data_mof_unit_60448.cif
_audit_creation_date              2012-12-10T17:10:19-0500
_audit_creation_method            fapswitch 2.2
_symmetry_space_group_name_H-M    P1
_symmetry_Int_Tables_number       1
_space_group_crystal_system       triclinic
_cell_length_a                    18.449179
_cell_length_b                    18.447932
_cell_length_c                    32.811452
_cell_angle_alpha                 89.999572
_cell_angle_beta                  90.001173
_cell_angle_gamma                 89.991937
_cell_volume                      11167.3513143

loop_
_atom_site_label
_atom_site_type_symbol
_atom_type_description
_atom_site_fract_x
_atom_site_fract_y
_atom_site_fract_z
_atom_type_partial_charge
C1    C     C_R   0.999999 0.500000 0.895976 0.588270
C2    C     C_1   0.500001 0.999997 0.231203 0.050032
C3    C     C_R   0.301798 0.805506 0.998414 0.024247
C4    C     C_R   0.694561 0.198139 0.498461 0.024473
C5    C     C_R   0.801860 0.694554 0.498463 0.024529
C6    C     C_R   0.305459 0.801845 0.498477 0.024490
C7    C     C_R   0.198139 0.305445 0.498471 0.024554
C8    C     C_R   0.305450 0.198143 0.498473 0.024554
C9    C     C_R   0.198136 0.694560 0.498466 0.024463
C10   C     C_R   0.694542 0.801853 0.498473 0.024552
C11   C     C_R   0.801857 0.305453 0.498489 0.024516
C12   C     C_R   0.236104 0.710270 0.033719 0.065830
C13   C     C_1   0.500004 0.000001 0.731203 0.050053
C14   C     C_R   0.291631 0.237980 0.033313 0.065248
C15   C     C_R   0.764054 0.289576 0.033756 0.065845
C16   C     C_R   0.708524 0.762158 0.033347 0.065257
C17   C     C_R   0.762172 0.708523 0.033345 0.065256
C18   C     C_R   0.710422 0.235947 0.033753 0.065952
C19   C     C_R   0.237992 0.291623 0.033316 0.065186
C20   C     C_R   0.289732 0.763903 0.033719 0.065864
C21   C     C_R   0.736965 0.209387 0.533548 0.065563
C22   C     C_R   0.790640 0.736999 0.533531 0.065558
C23   C     C_R   0.263074 0.790556 0.533563 0.065550
C24   C     C_1   0.999999 0.500000 0.731203 0.050026
C25   C     C_R   0.209271 0.262906 0.533514 0.065515
C26   C     C_R   0.262911 0.209271 0.533515 0.065513
C27   C     C_R   0.209439 0.736927 0.533561 0.065562
C28   C     C_R   0.737002 0.790636 0.533535 0.065537
C29   C     C_R   0.790608 0.263010 0.533558 0.065499
C30   C     C_1   0.999999 0.499999 0.149188 0.052091
C31   C     C_1   0.500000 0.999999 0.149188 0.052100
C32   C     C_1   0.500001 0.999999 0.649188 0.052099
C33   C     C_1   0.999999 0.500000 0.649188 0.052100
C34   C     C_1   0.500004 0.000001 0.768801 0.053470
C35   C     C_1   0.999998 0.500000 0.768801 0.053427
C36   C     C_1   0.999999 0.500001 0.268801 0.053436
C37   C     C_1   0.500000 0.999997 0.268801 0.053436
C38   C     C_1   0.500004 0.000002 0.813212 0.027645
C39   C     C_1   1.000000 0.500000 0.813213 0.027534
C40   C     C_1   0.999999 0.500002 0.313212 0.027571
C41   C     C_R   0.500001 0.000000 0.895975 0.588378
C42   C     C_1   0.500001 0.999997 0.313213 0.027577
C43   C     C_1   0.500002 0.000002 0.850805 0.071656
C44   C     C_1   1.000000 0.500000 0.850805 0.071420
C45   C     C_1   0.999999 0.500002 0.350805 0.071515
C46   C     C_1   0.500000 0.999998 0.350805 0.071532
C47   C     C_R   1.000000 0.500000 0.104010 0.507884
C48   C     C_R   0.500001 1.000000 0.104009 0.507912
C49   C     C_R   0.500000 1.000000 0.604010 0.507919
C50   C     C_R   0.000000 0.500000 0.604009 0.507887
C51   C     C_R   0.859711 0.640694 0.999798 0.615843
C52   C     C_R   0.499999 0.999999 0.395976 0.588348
C53   C     C_R   0.359241 0.859776 0.999736 0.615292
C54   C     C_R   0.140309 0.359328 0.999815 0.615923
C55   C     C_R   0.640759 0.140224 0.999729 0.615132
C56   C     C_R   0.140229 0.640753 0.999744 0.615345
C57   C     C_R   0.640681 0.859699 0.999809 0.615780
C58   C     C_R   0.859785 0.359234 0.999739 0.615467
C59   C     C_R   0.359314 0.140300 0.999800 0.615818
C60   C     C_R   0.359729 0.140713 0.499780 0.615560
C61   C     C_R   0.859306 0.359711 0.499796 0.615538
C62   C     C_R   0.640264 0.859284 0.499779 0.615578
C63   C     C_R   1.000000 0.500000 0.395975 0.588382
C64   C     C_R   0.140719 0.640269 0.499773 0.615526
C65   C     C_R   0.640258 0.140729 0.499765 0.615582
C66   C     C_R   0.140712 0.359728 0.499779 0.615571
C67   C     C_R   0.359729 0.859285 0.499781 0.615553
C68   C     C_R   0.859277 0.640258 0.499769 0.615575
C69   C     C_R   0.163404 0.729584 0.926638 0.369779
C70   C     C_R   0.266775 0.159780 0.927841 0.368591
C71   C     C_R   0.836600 0.270387 0.926619 0.369899
C72   C     C_R   0.733034 0.840118 0.927806 0.368508
C73   C     C_R   0.840007 0.732995 0.927772 0.368649
C74   C     C_1   0.999999 0.499999 0.186786 0.017707
C75   C     C_R   0.729131 0.163911 0.926470 0.369905
C76   C     C_R   0.159729 0.266833 0.927875 0.368710
C77   C     C_R   0.270428 0.836523 0.926593 0.369881
C78   C     C_R   0.661847 0.231231 0.427160 0.369268
C79   C     C_R   0.768726 0.661721 0.427180 0.369267
C80   C     C_R   0.338237 0.768778 0.427175 0.369275
C81   C     C_R   0.231495 0.338528 0.427260 0.369150
C82   C     C_R   0.338519 0.231495 0.427262 0.369140
C83   C     C_R   0.231129 0.661880 0.427142 0.369281
C84   C     C_R   0.661628 0.768682 0.427213 0.369223
C85   C     C_1   0.500000 0.999998 0.186785 0.017713
C86   C     C_R   0.768670 0.338413 0.427230 0.369209
C87   C     C_R   0.177851 0.768592 0.891087 0.102151
C88   C     C_R   0.225227 0.171750 0.892928 0.101488
C89   C     C_R   0.821897 0.231712 0.891000 0.102285
C90   C     C_R   0.774417 0.828035 0.892837 0.101471
C91   C     C_R   0.827912 0.774425 0.892815 0.101491
C92   C     C_R   0.768089 0.178468 0.890921 0.102264
C93   C     C_R   0.171686 0.225309 0.892949 0.101434
C94   C     C_R   0.231411 0.822083 0.891057 0.102404
C95   C     C_R   0.675141 0.271480 0.391910 0.101802
C96   C     C_1   0.500003 0.999999 0.686786 0.017719
C97   C     C_R   0.728485 0.674980 0.391916 0.101893
C98   C     C_R   0.324860 0.728716 0.391877 0.101971
C99   C     C_R   0.271828 0.325383 0.392029 0.101859
C100  C     C_R   0.325370 0.271831 0.392030 0.101838
C101  C     C_R   0.271254 0.675243 0.391860 0.101868
C102  C     C_R   0.674889 0.728481 0.391936 0.101879
C103  C     C_R   0.728561 0.325124 0.391945 0.101972
C104  C     C_R   0.260140 0.794282 0.962459 -0.077243
C105  C     C_R   0.203917 0.258394 0.963119 -0.077080
C106  C     C_R   0.739665 0.205898 0.962399 -0.077281
C107  C     C_1   0.999998 0.500000 0.686785 0.017709
C108  C     C_R   0.795963 0.741535 0.963074 -0.077068
C109  C     C_R   0.741535 0.795996 0.963084 -0.077044
C110  C     C_R   0.794264 0.260175 0.962446 -0.077204
C111  C     C_R   0.258362 0.203949 0.963105 -0.077067
C112  C     C_R   0.205695 0.739851 0.962471 -0.077265
C113  C     C_R   0.759313 0.295160 0.462784 -0.077161
C114  C     C_R   0.704847 0.759302 0.462779 -0.077179
C115  C     C_R   0.240615 0.704951 0.462749 -0.077166
C116  C     C_R   0.295239 0.240797 0.462805 -0.077174
C117  C     C_R   0.240794 0.295240 0.462804 -0.077174
C118  C     C_1   0.999998 0.500001 0.231203 0.050030
C119  C     C_R   0.295084 0.759356 0.462760 -0.077171
C120  C     C_R   0.759309 0.704876 0.462768 -0.077189
C121  C     C_R   0.704924 0.240673 0.462761 -0.077152
C122  C     C_R   0.194490 0.698199 0.998420 0.024252
C123  C     C_R   0.301910 0.194612 0.998510 0.024820
C124  C     C_R   0.805561 0.301745 0.998425 0.024286
C125  C     C_R   0.698102 0.805411 0.998516 0.024803
C126  C     C_R   0.805410 0.698106 0.998507 0.024762
C127  C     C_R   0.698176 0.194513 0.998396 0.024149
C128  C     C_R   0.194607 0.301922 0.998519 0.024801
F1    F     F_    0.106678 0.682810 0.925503 -0.586147
F2    F     F_    0.815911 0.605324 0.426027 -0.586624
F3    F     F_    0.394773 0.815764 0.426069 -0.586648
F4    F     F_    0.184333 0.394944 0.426125 -0.586777
F5    F     F_    0.394934 0.184330 0.426128 -0.586810
F6    F     F_    0.183994 0.605453 0.425991 -0.586619
F7    F     F_    0.605158 0.815781 0.426098 -0.586680
F8    F     F_    0.815639 0.394969 0.426153 -0.586688
F9    F     F_    0.314290 0.103656 0.926699 -0.587342
F10   F     F_    0.893733 0.316653 0.925616 -0.585946
F11   F     F_    0.685623 0.896334 0.926706 -0.587563
F12   F     F_    0.896145 0.685497 0.926629 -0.587275
F13   F     F_    0.682144 0.107369 0.925229 -0.586135
F14   F     F_    0.103589 0.314336 0.926762 -0.587031
F15   F     F_    0.317227 0.893194 0.925424 -0.586154
F16   F     F_    0.605502 0.184004 0.425980 -0.586670
I1    I     I_    0.219975 0.643583 0.086694 -0.204400
I2    I     I_    0.858475 0.721906 0.586129 -0.205547
I3    I     I_    0.278255 0.858274 0.586203 -0.205020
I4    I     I_    0.141309 0.277871 0.586075 -0.205604
I5    I     I_    0.277885 0.141310 0.586078 -0.205617
I6    I     I_    0.141721 0.721747 0.586196 -0.205064
I7    I     I_    0.721916 0.858466 0.586137 -0.205526
I8    I     I_    0.858380 0.278103 0.586181 -0.205050
I9    I     I_    0.116103 0.744422 0.838063 -0.102709
I10   I     I_    0.245654 0.106354 0.840796 -0.098165
I11   I     I_    0.883604 0.255966 0.837966 -0.102942
I12   I     I_    0.360728 0.224056 0.085487 -0.206280
I13   I     I_    0.753823 0.893397 0.840699 -0.098473
I14   I     I_    0.893038 0.753689 0.840614 -0.098517
I15   I     I_    0.743494 0.117186 0.837769 -0.103100
I16   I     I_    0.106295 0.245852 0.840838 -0.098029
I17   I     I_    0.255685 0.883657 0.837969 -0.102805
I18   I     I_    0.611921 0.248932 0.339223 -0.100616
I19   I     I_    0.750991 0.611608 0.339254 -0.100632
I20   I     I_    0.388228 0.751273 0.339221 -0.100595
I21   I     I_    0.249550 0.389013 0.339440 -0.100462
I22   I     I_    0.388970 0.249529 0.339438 -0.100522
I23   I     I_    0.780374 0.356075 0.086787 -0.204450
I24   I     I_    0.248579 0.612047 0.339164 -0.100721
I25   I     I_    0.611353 0.750887 0.339323 -0.100539
I26   I     I_    0.750988 0.388671 0.339336 -0.100465
I27   I     I_    0.639626 0.776234 0.085587 -0.206113
I28   I     I_    0.776277 0.639624 0.085584 -0.206202
I29   I     I_    0.643958 0.219610 0.086798 -0.204282
I30   I     I_    0.224090 0.360708 0.085495 -0.206254
I31   I     I_    0.356413 0.780053 0.086695 -0.204440
I32   I     I_    0.721815 0.141596 0.586161 -0.205016
O1    O     O_3   0.000000 0.500000 0.999990 -0.472338
O2    O     O_R   1.000000 0.560760 0.415980 -0.478071
O3    O     O_R   0.439240 1.000000 0.415980 -0.478411
O4    O     O_R   1.000000 0.439240 0.415980 -0.478513
O5    O     O_R   1.000000 0.560700 0.083990 -0.524418
O6    O     O_R   0.439300 0.000000 0.083990 -0.524438
O7    O     O_R   0.000000 0.439300 0.083990 -0.524471
O8    O     O_R   0.560700 0.000000 0.083990 -0.524350
O9    O     O_R   0.500000 0.060700 0.583990 -0.524429
O10   O     O_R   0.939300 0.500000 0.583990 -0.524437
O11   O     O_R   0.500000 0.939300 0.583990 -0.524424
O12   O     O_3   0.500000 1.000000 0.999990 -0.472433
O13   O     O_R   0.060700 0.500000 0.583990 -0.524437
O14   O     O_R   0.853840 0.585420 0.977960 -0.494395
O15   O     O_R   0.414580 0.853840 0.977960 -0.492860
O16   O     O_R   0.146160 0.414580 0.977960 -0.494507
O17   O     O_R   0.585420 0.146160 0.977960 -0.492339
O18   O     O_R   0.146160 0.585420 0.977960 -0.492892
O19   O     O_R   0.585420 0.853840 0.977960 -0.494503
O20   O     O_R   0.853840 0.414580 0.977960 -0.493591
O21   O     O_R   0.414580 0.146160 0.977960 -0.494529
O22   O     O_R   0.353840 0.085420 0.477960 -0.493749
O23   O     O_3   0.500000 1.000000 0.499990 -0.472379
O24   O     O_R   0.914580 0.353840 0.477960 -0.493839
O25   O     O_R   0.646160 0.914580 0.477960 -0.493719
O26   O     O_R   0.085420 0.646160 0.477960 -0.493515
O27   O     O_R   0.646160 0.085420 0.477960 -0.493451
O28   O     O_R   0.085420 0.353840 0.477960 -0.493777
O29   O     O_R   0.353840 0.914580 0.477960 -0.493744
O30   O     O_R   0.914580 0.646160 0.477960 -0.493612
O31   O     O_R   0.085460 0.353830 0.022010 -0.507604
O32   O     O_R   0.646170 0.085460 0.022010 -0.508494
O33   O     O_R   0.914540 0.646170 0.022010 -0.507800
O34   O     O_3   1.000000 0.500000 0.499990 -0.472373
O35   O     O_R   0.353830 0.914540 0.022010 -0.508273
O36   O     O_R   0.914540 0.353830 0.022010 -0.507886
O37   O     O_R   0.353830 0.085460 0.022010 -0.507764
O38   O     O_R   0.085460 0.646170 0.022010 -0.508238
O39   O     O_R   0.646170 0.914540 0.022010 -0.507787
O40   O     O_R   0.585460 0.853830 0.522010 -0.507969
O41   O     O_R   0.146170 0.585460 0.522010 -0.508051
O42   O     O_R   0.414540 0.146170 0.522010 -0.508004
O43   O     O_R   0.853830 0.414540 0.522010 -0.507854
O44   O     O_R   0.414540 0.853830 0.522010 -0.507930
O45   O     O_R   0.060760 0.500000 0.915980 -0.478287
O46   O     O_R   0.853830 0.585460 0.522010 -0.508024
O47   O     O_R   0.585460 0.146170 0.522010 -0.508122
O48   O     O_R   0.146170 0.414540 0.522010 -0.507975
O49   O     O_R   0.500000 0.060760 0.915980 -0.477979
O50   O     O_R   0.939240 0.500000 0.915980 -0.478531
O51   O     O_R   0.500000 0.939240 0.915980 -0.478374
O52   O     O_R   0.560760 1.000000 0.415980 -0.478164
Zn1   Zn    Zn3+2 0.000000 0.586740 0.031450 1.046136
Zn2   Zn    Zn3+2 0.500000 0.913250 0.968520 1.097688
Zn3   Zn    Zn3+2 0.086750 0.500000 0.968520 1.097819
Zn4   Zn    Zn3+2 0.500000 0.086750 0.968520 1.098019
Zn5   Zn    Zn3+2 0.413250 1.000000 0.468520 1.097697
Zn6   Zn    Zn3+2 1.000000 0.413250 0.468520 1.097622
Zn7   Zn    Zn3+2 0.586750 1.000000 0.468520 1.097906
Zn8   Zn    Zn3+2 1.000000 0.586750 0.468520 1.097976
Zn9   Zn    Zn3+2 0.413260 1.000000 0.031450 1.046078
Zn10  Zn    Zn3+2 1.000000 0.413260 0.031450 1.046417
Zn11  Zn    Zn3+2 0.586740 1.000000 0.031450 1.045991
Zn12  Zn    Zn3+2 0.500000 0.086740 0.531450 1.046074
Zn13  Zn    Zn3+2 0.913260 0.500000 0.531450 1.046196
Zn14  Zn    Zn3+2 0.500000 0.913260 0.531450 1.046212
Zn15  Zn    Zn3+2 0.086740 0.500000 0.531450 1.046107
Zn16  Zn    Zn3+2 0.913250 0.500000 0.968520 1.097543

loop_
_geom_bond_atom_site_label_1
_geom_bond_atom_site_label_2
_ccdc_geom_bond_type
C1    O50   A    
C3    C104  A    
O16   Zn3   S    
C48   O6    A    
C41   O51   A    
C84   F7    S    
O14   Zn16  S    
C76   C105  A    
C31   C85   T    
C46   C52   S    
C15   C18   A    
C9    C64   S    
C8    C26   A    
C7    C117  A    
C33   C107  T    
O42   Zn12  S    
C18   C127  A    
O3    Zn5   S    
C100  I22   S    
C70   C88   A    
O23   Zn12  S    
C77   F15   S    
C17   I28   S    
C54   C128  S    
C108  C109  A    
C112  C122  A    
C55   O32   A    
C63   O2    A    
C54   O16   A    
C64   O41   A    
O20   Zn16  S    
C86   C113  A    
C70   F9    S    
C1    O45   A    
C67   O44   A    
O24   Zn6   S    
O34   Zn15  S    
O37   Zn9   S    
O47   Zn12  S    
O23   Zn5   S    
O7    Zn10  S    
C57   C125  S    
C4    C65   S    
C30   C74   T    
C69   C112  A    
C17   C126  A    
C89   I11   S    
C20   I31   S    
C87   C94   A    
C81   C117  A    
C77   C94   A    
C84   C102  A    
C116  C117  A    
C61   O24   A    
C2    C85   S    
O30   Zn8   S    
C42   C46   T    
C37   C42   S    
C50   O13   A    
C78   C121  A    
C83   F6    S    
O28   Zn6   S    
O12   Zn9   S    
C75   F13   S    
O31   Zn10  S    
C110  C124  A    
C72   C109  A    
C52   O52   A    
C72   F11   S    
C19   C128  A    
C22   I2    S    
C99   I21   S    
O5    Zn1   S    
C16   C17   A    
C97   I19   S    
C65   O27   A    
O13   Zn15  S    
C103  I26   S    
O35   Zn9   S    
C16   I27   S    
C23   C27   A    
C36   C118  T    
C16   C125  A    
O8    Zn11  S    
C56   O38   A    
C97   C102  A    
C67   O29   A    
C60   O22   A    
C66   O28   A    
C102  I25   S    
C105  C111  A    
C80   C119  A    
O4    Zn6   S    
C80   F3    S    
C22   C28   A    
O40   Zn14  S    
C41   C43   S    
C15   I23   S    
C82   F5    S    
C10   C62   S    
C82   C100  A    
C5    C68   S    
O12   Zn2   S    
C86   C103  A    
C14   C19   A    
O32   Zn11  S    
O46   Zn13  S    
C95   C103  A    
O52   Zn7   S    
C71   F10   S    
C91   I14   S    
C59   C123  S    
C40   C45   T    
C74   C118  S    
O1    Zn1   S    
C41   O49   A    
C24   C35   T    
C15   C124  A    
C5    C22   A    
C13   C96   S    
C111  C123  A    
O49   Zn4   S    
O6    Zn9   S    
C83   C115  A    
C30   C47   S    
C36   C40   S    
C73   C91   A    
C12   C122  A    
C47   O7    A    
C10   C114  A    
C95   I18   S    
C48   O8    A    
C81   F4    S    
C73   C108  A    
C5    C120  A    
C25   C26   A    
C79   F2    S    
O44   Zn14  S    
C106  C127  A    
C45   C63   S    
C63   O4    A    
O43   Zn13  S    
O19   Zn2   S    
C88   I10   S    
C12   I1    S    
C101  I24   S    
C35   C39   S    
C93   I16   S    
O41   Zn15  S    
C62   O25   A    
O27   Zn7   S    
C60   O42   A    
C78   F16   S    
C76   C93   A    
C72   C90   A    
C51   O33   A    
C1    C44   S    
O50   Zn16  S    
C99   C100  A    
C49   O11   A    
C78   C95   A    
C53   O35   A    
C21   I32   S    
C79   C120  A    
C12   C20   A    
C87   I9    S    
C49   O9    A    
C3    C20   A    
C24   C107  S    
O33   Zn1   S    
C89   C92   A    
C53   O15   A    
C94   I17   S    
C51   O14   A    
C71   C89   A    
C28   I7    S    
C56   O18   A    
C75   C92   A    
C109  C125  A    
C6    C67   S    
C55   O17   A    
C57   O19   A    
C27   I6    S    
C115  C119  A    
C31   C48   S    
C92   I15   S    
C68   O30   A    
O39   Zn11  S    
O51   Zn2   S    
C50   O10   A    
O23   Zn7   S    
C65   O47   A    
C9    C27   A    
C66   O48   A    
C104  C112  A    
C106  C110  A    
O21   Zn4   S    
C10   C28   A    
O34   Zn8   S    
C64   O26   A    
C88   C93   A    
C86   F8    S    
C9    C115  A    
C84   C114  A    
C14   C123  A    
C83   C101  A    
C105  C128  A    
C80   C98   A    
C6    C119  A    
C34   C38   S    
C51   C126  S    
C62   O40   A    
O18   Zn3   S    
C79   C97   A    
C26   I5    S    
C68   O46   A    
C61   O43   A    
O34   Zn13  S    
C55   C127  S    
C14   I12   S    
C11   C61   S    
O22   Zn5   S    
C69   C87   A    
C21   C29   A    
O1    Zn3   S    
O10   Zn13  S    
C98   I20   S    
C59   O37   A    
O48   Zn15  S    
C39   C44   T    
C73   F12   S    
C58   O36   A    
C98   C101  A    
C81   C99   A    
C58   C124  S    
C47   O5    A    
C7    C25   A    
C71   C110  A    
C57   O39   A    
C108  C126  A    
C90   I13   S    
O29   Zn5   S    
C33   C50   S    
C19   I30   S    
C82   C116  A    
C13   C34   T    
C32   C96   T    
O12   Zn11  S    
C8    C60   S    
C29   I8    S    
O2    Zn8   S    
C4    C21   A    
C3    C53   S    
C2    C37   T    
C90   C91   A    
C23   I3    S    
C59   O21   A    
O15   Zn2   S    
C6    C23   A    
C58   O20   A    
C4    C121  A    
C25   I4    S    
O34   Zn6   S    
C11   C113  A    
C114  C120  A    
C32   C49   S    
C52   O3    A    
O25   Zn7   S    
C70   C111  A    
C8    C116  A    
O26   Zn8   S    
O9    Zn12  S    
C18   I29   S    
C38   C43   T    
O1    Zn16  S    
C113  C121  A    
C11   C29   A    
C75   C106  A    
C69   F1    S    
C54   O31   A    
O45   Zn3   S    
C77   C104  A    
O17   Zn4   S    
O11   Zn14  S    
O12   Zn4   S    
O38   Zn1   S    
O36   Zn10  S    
O23   Zn14  S    
C56   C122  S    
O1    Zn10  S    
C7    C66   S    
C76   F14   S    
