data_mof_unit_6417.cif
_audit_creation_date              2012-12-10T18:00:19-0500
_audit_creation_method            fapswitch 2.2
_symmetry_space_group_name_H-M    P1
_symmetry_Int_Tables_number       1
_space_group_crystal_system       triclinic
_cell_length_a                    10.831706
_cell_length_b                    9.522733
_cell_length_c                    10.67895
_cell_angle_alpha                 90.431115
_cell_angle_beta                  90.1199
_cell_angle_gamma                 90.012576
_cell_volume                      1101.47277526

loop_
_atom_site_label
_atom_site_type_symbol
_atom_type_description
_atom_site_fract_x
_atom_site_fract_y
_atom_site_fract_z
_atom_type_partial_charge
C1    C     C_R   0.871773 0.500013 0.500169 -0.011764
C2    C     C_R   0.128227 0.499987 0.499831 -0.011767
C3    C     C_R   0.262075 0.499990 0.499860 0.790994
C4    C     C_R   0.737925 0.500010 0.500140 0.790973
C5    C     C_R   0.499957 0.499353 0.259652 0.836538
C6    C     C_R   0.500038 0.500647 0.740348 0.836478
C7    C     C_3   0.399944 0.563716 0.042154 0.164679
C8    C     C_3   0.600042 0.436285 0.957848 0.164688
C9    C     C_3   0.499627 0.631957 0.962094 0.157273
C10   C     C_3   0.500357 0.368049 0.037908 0.157240
C11   C     C_3   0.396897 0.432108 0.956333 -0.286582
C12   C     C_3   0.603089 0.567894 0.043667 -0.286507
C13   C     C_3   0.499103 0.501910 0.876226 -0.068655
C14   C     C_3   0.500886 0.498092 0.123774 -0.068606
C15   C     C_R   0.422766 0.073742 0.422668 -0.014289
C16   C     C_R   0.577234 0.926258 0.577332 -0.014271
C17   C     C_R   0.577230 0.075062 0.577343 -0.024036
C18   C     C_R   0.422770 0.924937 0.422658 -0.024044
C19   C     C_R   0.063834 0.372411 0.501783 -0.187419
C20   C     C_R   0.936166 0.627589 0.498217 -0.187420
C21   C     C_R   0.936116 0.372424 0.502001 -0.178130
C22   C     C_R   0.063884 0.627575 0.497999 -0.178126
Cu1   Cu    Cu3+1 0.500000 0.640660 0.500000 0.950242
Cu2   Cu    Cu3+1 0.500000 0.359340 0.500000 0.950216
H1    H     H_    0.360821 0.129271 0.360791 0.113099
H2    H     H_    0.639178 0.870729 0.639210 0.113111
H3    H     H_    0.639143 0.131636 0.639281 0.113463
H4    H     H_    0.360856 0.868364 0.360720 0.113493
N1    N     N_R   0.500000 0.852070 0.500000 -0.156900
N2    N     N_R   0.500000 0.147930 0.500000 -0.156895
O1    O     O_R   0.319640 0.618740 0.499990 -0.588346
O2    O     O_R   0.680360 0.381260 0.500010 -0.588357
O3    O     O_R   0.680360 0.618740 0.500010 -0.594598
O4    O     O_R   0.319640 0.381260 0.499990 -0.594597
O5    O     O_R   0.499970 0.618770 0.316850 -0.591659
O6    O     O_R   0.500030 0.381230 0.683150 -0.591697
O7    O     O_R   0.500030 0.618770 0.683150 -0.569211
O8    O     O_R   0.499970 0.381230 0.316850 -0.569246
H5    H     H_    0.313271 0.377435 0.920616 0.152811
H6    H     H_    0.686714 0.622569 0.079384 0.152821
N3    N     N_3   0.290855 0.634830 0.090704 -0.593944
H7    H     H_    0.241116 0.671985 0.013840 0.230322
H8    H     H_    0.320856 0.722897 0.141200 0.213091
N4    N     N_3   0.709139 0.365140 0.909349 -0.593889
H9    H     H_    0.758663 0.327682 0.986239 0.230340
H10   H     H_    0.679137 0.277230 0.858644 0.213064
N5    N     N_3   0.495867 0.777019 0.919937 -0.579044
H11   H     H_    0.494648 0.841128 0.999776 0.207888
H12   H     H_    0.579238 0.797086 0.874389 0.216992
N6    N     N_3   0.504118 0.222987 0.080061 -0.579086
H13   H     H_    0.505243 0.158889 0.000211 0.207901
H14   H     H_    0.420781 0.202938 0.125685 0.217012
H15   H     H_    0.111851 0.272660 0.503236 0.148374
H16   H     H_    0.888149 0.727340 0.496764 0.148374
H17   H     H_    0.888060 0.272682 0.503641 0.148804
H18   H     H_    0.111940 0.727318 0.496359 0.148806

loop_
_geom_bond_atom_site_label_1
_geom_bond_atom_site_label_2
_ccdc_geom_bond_type
C2    C22   A    
C15   C18   A    
C11   H5    S    
Cu1   Cu2   S    
Cu2   O2    S    
C1    C21   A    
C8    C13   S    
C11   C13   S    
N3    H7    S    
Cu2   O8    S    
N5    H11   S    
C12   C14   S    
C8    C12   S    
C1    C4    S    
C7    C9    S    
C19   H15   S    
C2    C3    S    
C16   N1    A    
C6    O7    A    
N5    H12   S    
C18   N1    A    
C4    O2    A    
C5    O8    A    
C6    C13   S    
C7    C11   S    
C17   N2    A    
N3    H8    S    
C5    C14   S    
Cu2   O6    S    
C3    O1    A    
C5    O5    A    
C8    C10   S    
C19   C21   A    
C6    O6    A    
N6    H13   S    
Cu1   O5    S    
C7    N3    S    
C16   H2    S    
C9    C12   S    
Cu2   N2    S    
C15   H1    S    
C9    N5    S    
C10   C11   S    
C20   C22   A    
C17   H3    S    
Cu1   N1    S    
C18   H4    S    
N4    H9    S    
C15   N2    A    
C20   H16   S    
C10   C14   S    
N6    H14   S    
C21   H17   S    
C9    C13   S    
C4    O3    A    
C1    C20   A    
C22   H18   S    
C12   H6    S    
C3    O4    A    
Cu1   O1    S    
C2    C19   A    
Cu1   O7    S    
C7    C14   S    
Cu2   O4    S    
C8    N4    S    
N4    H10   S    
C16   C17   A    
Cu1   O3    S    
C10   N6    S    
