data_mof_unit_24092.cif
_audit_creation_date              2013-03-05T16:06:16-0500
_audit_creation_method            fapswitch 2.2
_symmetry_space_group_name_H-M    P1
_symmetry_Int_Tables_number       1
_space_group_crystal_system       triclinic
_cell_length_a                    10.814674
_cell_length_b                    9.494483
_cell_length_c                    27.727706
_cell_angle_alpha                 89.296746
_cell_angle_beta                  90.032817
_cell_angle_gamma                 89.930164
_cell_volume                      2846.85653519

loop_
_atom_site_label
_atom_site_type_symbol
_atom_site_description
_atom_site_fract_x
_atom_site_fract_y
_atom_site_fract_z
_atom_type_partial_charge
O1    O     O_R   0.319640 0.618740 0.500000 -0.591936
O2    O     O_R   0.680360 0.381260 0.500000 -0.591635
O3    O     O_R   0.680360 0.618740 0.500000 -0.588742
O4    O     O_R   0.319640 0.381260 0.500000 -0.589868
C1    C     C_R   0.262011 0.500056 0.499899 0.788434
C2    C     C_R   0.737994 0.499951 0.499999 0.793059
O5    O     O_R   0.500020 0.618770 0.430260 -0.570780
O6    O     O_R   0.499980 0.381230 0.569740 -0.574969
O7    O     O_R   0.499980 0.618770 0.569740 -0.582682
O8    O     O_R   0.500020 0.381230 0.430260 -0.580858
C3    C     C_R   0.496068 0.501069 0.407327 0.820936
C4    C     C_R   0.501754 0.498929 0.592938 0.822336
Cu1   Cu    Cu3+1 0.500000 0.640660 0.500000 0.942124
Cu2   Cu    Cu3+1 0.500000 0.359340 0.500000 0.940163
C5    C     C_R   0.404556 0.441991 0.175923 0.511627
C6    C     C_R   0.589275 0.569731 0.823569 0.530149
O9    O     O_2   0.315197 0.370271 0.199674 -0.552801
O10   O     O_2   0.695226 0.593577 0.799074 -0.553703
N1    N     N_R   0.498871 0.501562 0.201044 -0.459047
N2    N     N_R   0.484809 0.533438 0.799290 -0.456092
C7    C     C_R   0.594101 0.570283 0.178447 0.545595
C8    C     C_R   0.374094 0.514440 0.822277 0.523375
C9    C     C_R   0.550528 0.396307 0.278965 -0.138750
C10   C     C_R   0.468260 0.635484 0.718924 -0.140557
C11   C     C_R   0.549843 0.396791 0.328975 -0.271245
C12   C     C_R   0.472315 0.626093 0.669211 -0.268357
C13   C     C_R   0.423862 0.610879 0.328085 0.137485
C14   C     C_R   0.528563 0.376897 0.675760 0.127529
C15   C     C_R   0.428070 0.612768 0.276686 0.186821
C16   C     C_R   0.520197 0.386315 0.727045 0.191651
C17   C     C_R   0.491791 0.503332 0.252746 0.301395
C18   C     C_R   0.490978 0.517616 0.747898 0.311211
C19   C     C_R   0.492014 0.535037 0.101545 -0.090986
C20   C     C_R   0.474977 0.559765 0.898824 -0.087613
C21   C     C_R   0.398138 0.459113 0.125898 0.003305
C22   C     C_R   0.586966 0.582373 0.873657 0.003664
C23   C     C_R   0.299201 0.402568 0.099948 -0.156847
C24   C     C_R   0.695594 0.612385 0.899043 -0.158541
C25   C     C_R   0.595634 0.586335 0.127362 -0.087503
C26   C     C_R   0.365904 0.522519 0.873430 -0.086618
C27   C     C_R   0.489387 0.503894 0.354041 -0.081516
C28   C     C_R   0.501297 0.498601 0.646680 -0.087332
H1    H     H_    0.228308 0.340359 0.117712 0.182259
H2    H     H_    0.783231 0.625126 0.880587 0.179180
C29   C     C_R   0.365866 0.537481 0.975551 -0.042925
C30   C     C_R   0.579384 0.623142 0.025791 -0.042126
C31   C     C_R   0.582770 0.609435 0.974831 0.068531
C32   C     C_R   0.376875 0.509006 0.025783 0.067807
C33   C     C_R   0.474258 0.569344 0.949691 0.051969
C34   C     C_R   0.483051 0.555587 0.051055 0.052598
C35   C     C_R   0.252221 0.529960 0.950143 0.107224
C36   C     C_R   0.670769 0.696283 0.052332 0.101711
C37   C     C_R   0.253807 0.499811 0.900049 0.161110
C38   C     C_R   0.691357 0.658808 0.101447 0.164912
O11   O     O_2   0.273364 0.490520 0.795065 -0.552783
O12   O     O_2   0.682979 0.627423 0.205982 -0.559283
C39   C     C_R   0.289433 0.425891 0.050613 -0.243375
C40   C     C_R   0.693871 0.623408 0.948847 -0.244650
H3    H     H_    0.451769 0.720283 0.648258 0.177120
H4    H     H_    0.598812 0.313898 0.348257 0.171526
H5    H     H_    0.446009 0.735413 0.735266 0.149057
H6    H     H_    0.598858 0.313227 0.260283 0.151306
H7    H     H_    0.213898 0.375763 0.031894 0.146652
H8    H     H_    0.781246 0.638911 0.966964 0.149670
C41   C     C_R   0.064057 0.371992 0.500847 -0.178958
C42   C     C_R   0.935964 0.628031 0.498790 -0.178069
C43   C     C_R   0.936258 0.371933 0.500933 -0.184337
C44   C     C_R   0.063767 0.628089 0.498691 -0.184510
H9    H     H_    0.112302 0.271928 0.501688 0.147535
H10   H     H_    0.887717 0.728093 0.497953 0.147889
H11   H     H_    0.888248 0.271859 0.501844 0.146685
H12   H     H_    0.111786 0.728157 0.497764 0.147114
C45   C     C_R   0.871790 0.499950 0.499924 -0.017667
C46   C     C_R   0.128228 0.500071 0.499785 -0.017678
C47   C     C_R   0.414699 0.075550 0.473733 -0.019165
C48   C     C_R   0.585120 0.924453 0.526363 -0.020814
C49   C     C_R   0.585129 0.073423 0.526352 -0.030783
C50   C     C_R   0.414467 0.926595 0.473860 -0.033708
H13   H     H_    0.346519 0.132632 0.452647 0.121512
H14   H     H_    0.653133 0.867361 0.547528 0.121111
H15   H     H_    0.653318 0.128790 0.547410 0.117436
H16   H     H_    0.345587 0.871271 0.453151 0.118673
N3    N     N_R   0.500000 0.852070 0.500000 -0.155073
N4    N     N_R   0.500000 0.147930 0.500000 -0.156022
C51   C     C_3   0.348159 0.718028 0.355606 -0.846798
H17   H     H_    0.280284 0.776594 0.333410 0.228751
H18   H     H_    0.293181 0.664382 0.384223 0.222246
H19   H     H_    0.410903 0.796392 0.372014 0.241166
C52   C     C_3   0.568153 0.240746 0.652064 -0.845185
H20   H     H_    0.601771 0.158207 0.677169 0.229022
H21   H     H_    0.489074 0.194930 0.632147 0.247092
H22   H     H_    0.646460 0.261944 0.627152 0.229854
C53   C     C_3   0.368345 0.731030 0.246987 -0.390018
C54   C     C_3   0.440126 0.868897 0.251239 -0.795225
H23   H     H_    0.442004 0.906247 0.288946 0.255425
H24   H     H_    0.536619 0.854302 0.238549 0.274038
H25   H     H_    0.395466 0.951377 0.228427 0.248026
H26   H     H_    0.364168 0.706129 0.208109 0.202033
H27   H     H_    0.270145 0.745582 0.257203 0.201521
C55   C     C_3   0.537517 0.257951 0.759866 -0.409162
C56   C     C_3   0.673814 0.231169 0.771444 -0.788995
H28   H     H_    0.730517 0.226241 0.738188 0.257944
H29   H     H_    0.710654 0.316028 0.794485 0.276181
H30   H     H_    0.683192 0.129659 0.791423 0.238070
H31   H     H_    0.487381 0.270300 0.794444 0.202062
H32   H     H_    0.494839 0.163300 0.743731 0.201963
C57   C     C_3   0.138847 0.433633 0.877599 -0.334851
C58   C     C_3   0.161035 0.278846 0.865440 -0.781013
H33   H     H_    0.077522 0.235292 0.847733 0.242823
H34   H     H_    0.240991 0.265189 0.840945 0.269267
H35   H     H_    0.178971 0.217372 0.899081 0.228721
H36   H     H_    0.058745 0.433138 0.902298 0.186591
H37   H     H_    0.105416 0.495319 0.846049 0.247133
C59   C     C_3   0.818326 0.688061 0.123432 -0.346827
C60   C     C_3   0.888726 0.551278 0.134103 -0.778035
H38   H     H_    0.837448 0.481495 0.159401 0.275375
H39   H     H_    0.904780 0.493554 0.100047 0.226951
H40   H     H_    0.979848 0.576138 0.150394 0.244147
H41   H     H_    0.878621 0.748853 0.098681 0.188149
H42   H     H_    0.811535 0.755223 0.155675 0.240952
C61   C     C_3   0.133009 0.579006 0.974584 -0.426117
C62   C     C_3   0.076602 0.707305 0.948793 -0.841665
H43   H     H_    0.146262 0.792825 0.945605 0.260677
H44   H     H_    0.042613 0.680769 0.912303 0.247497
H45   H     H_    0.997074 0.746978 0.969955 0.228801
H46   H     H_    0.064513 0.492435 0.977513 0.188388
H47   H     H_    0.151061 0.614457 0.011896 0.223177
C63   C     C_3   0.728122 0.830637 0.031045 -0.428741
C64   C     C_3   0.697798 0.960165 0.061195 -0.819600
H48   H     H_    0.596085 0.970550 0.065579 0.259143
H49   H     H_    0.741508 0.953833 0.097321 0.245074
H50   H     H_    0.732977 0.056300 0.042588 0.241736
H51   H     H_    0.829515 0.819541 0.026609 0.186604
H52   H     H_    0.690041 0.854939 0.994738 0.225087

loop_
_geom_bond_atom_site_label_1
_geom_bond_atom_site_label_2
_geom_bond_distance
_ccdc_geom_bond_type
C42   C44   1.382158 A    
C53   C54   1.528431 S    
C16   C55   1.523377 S    
C13   C15   1.425828 A    
C57   H36   1.104581 S    
Cu2   N4    2.007230 S    
O3    C2    1.287945 A    
N1    C17   1.435985 S    
C63   C64   1.530818 S    
C59   C60   1.530265 S    
C36   C63   1.531065 S    
C32   C39   1.407203 A    
C31   C33   1.419381 A    
C51   H17   1.103117 S    
C5    N1    1.362233 A    
C55   H31   1.109132 S    
C10   H5    1.083292 S    
O1    C1    1.288409 A    
N1    C7    1.367953 A    
C10   C12   1.383119 A    
C61   H47   1.109156 S    
C47   N4    1.366307 A    
C29   C32   1.420455 A    
C25   C38   1.432456 A    
C29   C35   1.418593 A    
C44   C46   1.400443 A    
C60   H38   1.108366 S    
C30   C36   1.419132 A    
C58   H33   1.110478 S    
C14   C28   1.431205 A    
C1    C46   1.446824 S    
C13   C51   1.518310 S    
C37   C57   1.529238 S    
C57   H37   1.107053 S    
O7    Cu1   1.942329 S    
C24   C40   1.386314 A    
C50   N3    1.366272 A    
C9    H6    1.083076 S    
C13   C27   1.425348 A    
C41   C43   1.382113 A    
C4    C28   1.490099 S    
C57   C58   1.530503 S    
C14   C52   1.518503 S    
C43   C45   1.400454 A    
C11   H4    1.083538 S    
C49   H15   1.081229 S    
C52   H21   1.109879 S    
C12   H3    1.083177 S    
C53   H27   1.108204 S    
C20   C22   1.413420 A    
C59   H41   1.104995 S    
O3    Cu1   1.961354 S    
C6    N2    1.361639 A    
C64   H50   1.110647 S    
C32   C34   1.418810 A    
C56   H29   1.108672 S    
Cu1   Cu2   2.670988 S    
O2    C2    1.288463 A    
C48   N3    1.366434 A    
C5    C21   1.396269 A    
O7    C4    1.300288 A    
C36   C38   1.420698 A    
C39   H7    1.081551 S    
C51   H18   1.110814 S    
C40   H8    1.080981 S    
C16   C18   1.416068 A    
C56   H28   1.109127 S    
C48   C49   1.414393 A    
O8    Cu2   1.942329 S    
C11   C27   1.400309 A    
C49   N4    1.366333 A    
C60   H39   1.111245 S    
C19   C34   1.414396 A    
C42   C45   1.400928 A    
C41   C46   1.400875 A    
C44   H12   1.083350 S    
C35   C37   1.421718 A    
C9    C17   1.394395 A    
C23   H1    1.083359 S    
O5    C3    1.293259 A    
C10   C18   1.391114 A    
C24   H2    1.083560 S    
C63   H52   1.109006 S    
C50   H16   1.080920 S    
C7    C25   1.422886 A    
C29   C33   1.405801 A    
O6    C4    1.296377 A    
C60   H40   1.110643 S    
C8    C26   1.424161 A    
C19   C25   1.419297 A    
C52   H22   1.110169 S    
C54   H24   1.110517 S    
C61   C62   1.530912 S    
N2    C8    1.367847 A    
C56   H30   1.110248 S    
C35   C61   1.531518 S    
C20   C26   1.420707 A    
O1    Cu1   1.961858 S    
C62   H44   1.108300 S    
C12   C28   1.404161 A    
C2    C45   1.446965 S    
C64   H48   1.111148 S    
N2    C18   1.436288 S    
C51   H19   1.109144 S    
C5    O9    1.350035 S    
Cu1   N3    2.007229 S    
C30   C31   1.421049 A    
C20   C33   1.414510 A    
O6    Cu2   1.947402 S    
C21   C23   1.400288 A    
C48   H14   1.081649 S    
O4    C1    1.287951 A    
C7    O12   1.345998 S    
C8    O11   1.345907 S    
C30   C34   1.406743 A    
C55   H32   1.109698 S    
C54   H25   1.110478 S    
C58   H35   1.111100 S    
C62   H45   1.109555 S    
C22   C24   1.400562 A    
C52   H20   1.102959 S    
C61   H46   1.109428 S    
C15   C17   1.418032 A    
C63   H51   1.108521 S    
C6    C22   1.395702 A    
C31   C40   1.406905 A    
C15   C53   1.526764 S    
C42   H10   1.083323 S    
C41   H9    1.083326 S    
C38   C59   1.529167 S    
C14   C16   1.428823 A    
C55   C56   1.528717 S    
C19   C21   1.413126 A    
C58   H34   1.108311 S    
C3    C27   1.479135 S    
C43   H11   1.083343 S    
C9    C11   1.386739 A    
O4    Cu2   1.961354 S    
C54   H23   1.108350 S    
O2    Cu2   1.961858 S    
C47   C50   1.414223 A    
C59   H42   1.106929 S    
O8    C3    1.297254 A    
O5    Cu1   1.947402 S    
C6    O10   1.350276 S    
C26   C37   1.434807 A    
C62   H43   1.111064 S    
C47   H13   1.081646 S    
C53   H26   1.107372 S    
C23   C39   1.387014 A    
C64   H49   1.108325 S    
