data_mof_unit_19406.cif
_audit_creation_date              2013-03-05T15:50:10-0500
_audit_creation_method            fapswitch 2.2
_symmetry_space_group_name_H-M    P1
_symmetry_Int_Tables_number       1
_space_group_crystal_system       triclinic
_cell_length_a                    18.264717
_cell_length_b                    25.824105
_cell_length_c                    18.265396
_cell_angle_alpha                 90.150555
_cell_angle_beta                  90.005793
_cell_angle_gamma                 90.148806
_cell_volume                      8615.17992742

loop_
_atom_site_label
_atom_site_type_symbol
_atom_site_description
_atom_site_fract_x
_atom_site_fract_y
_atom_site_fract_z
_atom_type_partial_charge
Zn1   Zn    Zn3+2 0.249990 0.293780 0.913250 1.150513
Zn2   Zn    Zn3+2 0.249990 0.706220 0.086750 1.144130
Zn3   Zn    Zn3+2 0.249990 0.706220 0.913250 1.122484
Zn4   Zn    Zn3+2 0.249990 0.293780 0.086750 1.139794
Zn5   Zn    Zn3+2 0.749990 0.793780 0.413250 1.166668
Zn6   Zn    Zn3+2 0.749990 0.206220 0.586750 1.144233
Zn7   Zn    Zn3+2 0.749990 0.206220 0.413250 1.134643
Zn8   Zn    Zn3+2 0.749990 0.793780 0.586750 1.152344
Zn9   Zn    Zn3+2 0.336760 0.206240 0.000000 1.117555
Zn10  Zn    Zn3+2 0.336760 0.793760 0.000000 1.137670
Zn11  Zn    Zn3+2 0.836760 0.706240 0.500000 1.102767
Zn12  Zn    Zn3+2 0.836760 0.293760 0.500000 1.124899
Zn13  Zn    Zn3+2 0.163250 0.206230 0.000000 1.078595
Zn14  Zn    Zn3+2 0.163250 0.793770 0.000000 1.094452
Zn15  Zn    Zn3+2 0.663250 0.706230 0.500000 1.054495
Zn16  Zn    Zn3+2 0.663250 0.293770 0.500000 1.103606
O1    O     O_3   0.249990 0.250010 0.000000 -0.556843
O2    O     O_3   0.249990 0.749990 0.000000 -0.560903
O3    O     O_3   0.749990 0.750010 0.500000 -0.554586
O4    O     O_3   0.749990 0.249990 0.500000 -0.560903
O5    O     O_R   0.335430 0.280650 0.146160 -0.608570
O6    O     O_R   0.335430 0.719350 0.853840 -0.606914
O7    O     O_R   0.335430 0.719350 0.146160 -0.596020
O8    O     O_R   0.335430 0.280650 0.853840 -0.614030
O9    O     O_R   0.835430 0.780650 0.646160 -0.608772
O10   O     O_R   0.835430 0.219350 0.353840 -0.609032
O11   O     O_R   0.835430 0.219350 0.646160 -0.608261
O12   O     O_R   0.835430 0.780650 0.353840 -0.586776
O13   O     O_R   0.164550 0.280640 0.853840 -0.570642
O14   O     O_R   0.164550 0.719360 0.146160 -0.604522
O15   O     O_R   0.164550 0.719360 0.853840 -0.644931
O16   O     O_R   0.164550 0.280640 0.146160 -0.640248
O17   O     O_R   0.664550 0.780640 0.353840 -0.585014
O18   O     O_R   0.664550 0.219360 0.646160 -0.621587
O19   O     O_R   0.664550 0.219360 0.353840 -0.645180
O20   O     O_R   0.664550 0.780640 0.646160 -0.640418
O21   O     O_R   0.396160 0.219380 0.914560 -0.607518
O22   O     O_R   0.396160 0.780620 0.085440 -0.594199
O23   O     O_R   0.396160 0.780620 0.914560 -0.601647
O24   O     O_R   0.396160 0.219380 0.085440 -0.595759
O25   O     O_R   0.896160 0.719380 0.414560 -0.634553
O26   O     O_R   0.896160 0.280620 0.585440 -0.597785
O27   O     O_R   0.896160 0.280620 0.414560 -0.593760
O28   O     O_R   0.896160 0.719380 0.585440 -0.585654
O29   O     O_R   0.103840 0.219370 0.085450 -0.580961
O30   O     O_R   0.103840 0.780630 0.914550 -0.583228
O31   O     O_R   0.103840 0.780630 0.085450 -0.638194
O32   O     O_R   0.103840 0.219370 0.914550 -0.668542
O33   O     O_R   0.603840 0.719370 0.585450 -0.589493
O34   O     O_R   0.603840 0.280630 0.414550 -0.566622
O35   O     O_R   0.603840 0.280630 0.585450 -0.616801
O36   O     O_R   0.603840 0.719370 0.414550 -0.670607
O37   O     O_R   0.310730 0.133160 0.000000 -0.611229
O38   O     O_R   0.310730 0.866840 0.000000 -0.586417
O39   O     O_R   0.810730 0.633160 0.500000 -0.628230
O40   O     O_R   0.810730 0.366840 0.500000 -0.601778
O41   O     O_R   0.249970 0.366860 0.060720 -0.557466
O42   O     O_R   0.249970 0.633140 0.939280 -0.565087
O43   O     O_R   0.249970 0.633140 0.060720 -0.566795
O44   O     O_R   0.249970 0.366860 0.939280 -0.570938
O45   O     O_R   0.749970 0.866860 0.560720 -0.558553
O46   O     O_R   0.749970 0.133140 0.439280 -0.564418
O47   O     O_R   0.749970 0.133140 0.560720 -0.555794
O48   O     O_R   0.749970 0.866860 0.439280 -0.557796
O49   O     O_R   0.189290 0.133150 0.000000 -0.602327
O50   O     O_R   0.189290 0.866850 0.000000 -0.595421
O51   O     O_R   0.689290 0.633150 0.500000 -0.601218
O52   O     O_R   0.689290 0.366850 0.500000 -0.591593
C1    C     C_R   0.389774 0.250152 0.139913 0.967037
C2    C     C_R   0.389751 0.750041 0.860008 0.968545
C3    C     C_R   0.389605 0.750524 0.140167 1.036185
C4    C     C_R   0.389825 0.250128 0.860164 0.957584
C5    C     C_R   0.889845 0.750234 0.639848 0.974920
C6    C     C_R   0.889708 0.250069 0.359959 0.970486
C7    C     C_R   0.889772 0.250203 0.639948 1.029042
C8    C     C_R   0.889532 0.749671 0.359915 0.967188
C9    C     C_R   0.109824 0.250133 0.860496 0.832357
C10   C     C_R   0.110300 0.750242 0.139986 0.891878
C11   C     C_R   0.110498 0.750186 0.859782 0.874918
C12   C     C_R   0.110570 0.249615 0.140310 0.884481
C13   C     C_R   0.609853 0.750092 0.360503 0.824419
C14   C     C_R   0.610087 0.249797 0.639741 0.893021
C15   C     C_R   0.610520 0.250199 0.359756 0.889614
C16   C     C_R   0.610540 0.749645 0.640288 0.887433
C17   C     C_R   0.249810 0.109027 0.008945 0.919655
C18   C     C_R   0.250066 0.891103 0.991729 0.944712
C19   C     C_R   0.749802 0.608974 0.508567 0.907956
C20   C     C_R   0.750033 0.391089 0.491843 0.892049
C21   C     C_R   0.249907 0.391332 0.999951 1.168094
C22   C     C_R   0.250028 0.608665 0.999832 1.150110
C23   C     C_R   0.749876 0.891335 0.499953 1.184739
C24   C     C_R   0.750000 0.108667 0.499833 1.162476
C25   C     C_3   0.180277 0.469861 0.039772 0.948819
C26   C     C_3   0.249115 0.529737 0.918923 0.954444
C27   C     C_3   0.180650 0.530061 0.040191 0.924972
C28   C     C_3   0.249573 0.469961 0.918998 0.947922
C29   C     C_3   0.680231 0.969871 0.539797 0.942106
C30   C     C_3   0.749025 0.029744 0.418934 0.952681
C31   C     C_3   0.680613 0.030075 0.540230 0.935365
C32   C     C_3   0.749494 0.969970 0.419008 0.948719
C33   C     C_3   0.319846 0.470071 0.039289 0.958508
C34   C     C_3   0.320244 0.530273 0.038640 0.935093
C35   C     C_3   0.819802 0.970081 0.539284 0.966107
C36   C     C_3   0.820207 0.030281 0.538625 0.929001
C37   C     C_3   0.249897 0.449087 0.999584 -0.888200
C38   C     C_3   0.250017 0.550905 0.999428 -0.864919
C39   C     C_3   0.749846 0.949094 0.499592 -0.897092
C40   C     C_3   0.749968 0.050911 0.499437 -0.873239
C41   C     C_R   0.998136 0.331155 0.859179 0.311620
C42   C     C_R   0.132032 0.809084 0.275773 0.299706
C43   C     C_R   0.104626 0.834743 0.752920 0.345455
C44   C     C_R   0.106217 0.166704 0.249929 0.334578
C45   C     C_R   0.498179 0.830870 0.359586 0.307591
C46   C     C_R   0.472466 0.193752 0.615339 0.325607
C47   C     C_R   0.605380 0.334260 0.251969 0.343574
C48   C     C_R   0.605581 0.666319 0.749227 0.324022
C49   C     C_R   0.950599 0.372932 0.852035 0.525258
C50   C     C_R   0.142060 0.834857 0.343125 0.388333
C51   C     C_R   0.098014 0.875812 0.702762 0.395411
C52   C     C_R   0.102510 0.127845 0.303812 0.410518
C53   C     C_R   0.453134 0.873860 0.351015 0.547079
C54   C     C_R   0.404425 0.169129 0.604395 0.404211
C55   C     C_R   0.599843 0.374631 0.200551 0.400214
C56   C     C_R   0.601247 0.627031 0.802437 0.403985
C57   C     C_R   0.405064 0.877042 0.291737 0.259543
C58   C     C_R   0.350494 0.170534 0.658581 0.312157
C59   C     C_R   0.544881 0.374080 0.147401 0.345624
C60   C     C_R   0.547171 0.628297 0.856460 0.311354
C61   C     C_R   0.899398 0.374269 0.795276 0.265495
C62   C     C_R   0.087935 0.833218 0.397074 0.321291
C63   C     C_R   0.042634 0.875583 0.650058 0.327036
C64   C     C_R   0.048602 0.129259 0.358002 0.312130
C65   C     C_R   0.401883 0.836548 0.241221 0.512898
C66   C     C_R   0.364100 0.196416 0.724081 0.523663
C67   C     C_R   0.495042 0.333321 0.145270 0.581385
C68   C     C_R   0.496786 0.668546 0.857452 0.549447
C69   C     C_R   0.896232 0.333461 0.745289 0.537328
C70   C     C_R   0.023476 0.805924 0.384167 0.559881
C71   C     C_R   0.993698 0.834306 0.646860 0.592480
C72   C     C_R   0.997735 0.169209 0.358467 0.551280
C73   C     C_R   0.449305 0.792740 0.246427 -0.215268
C74   C     C_R   0.431402 0.223190 0.736835 -0.220786
C75   C     C_R   0.497215 0.292291 0.197484 -0.250828
C76   C     C_R   0.497956 0.708583 0.803701 -0.235244
C77   C     C_R   0.947138 0.291515 0.747993 -0.227606
C78   C     C_R   0.011771 0.777985 0.317612 -0.239679
C79   C     C_R   0.996622 0.792729 0.698182 -0.256057
C80   C     C_R   0.998414 0.208877 0.304180 -0.235057
C81   C     C_R   0.999803 0.290824 0.804956 -0.193048
C82   C     C_R   0.066913 0.779152 0.262994 -0.106059
C83   C     C_R   0.052553 0.792966 0.752047 -0.111563
C84   C     C_R   0.053634 0.207976 0.249621 -0.111136
C85   C     C_R   0.500348 0.790998 0.304721 -0.197934
C86   C     C_R   0.486087 0.222164 0.681704 -0.108169
C87   C     C_R   0.553004 0.292671 0.251499 -0.113612
C88   C     C_R   0.553249 0.707757 0.749217 -0.117609
C89   C     C_R   0.446645 0.750833 0.195375 -0.021534
C90   C     C_R   0.445254 0.250483 0.803422 -0.008614
C91   C     C_R   0.445342 0.250942 0.196473 -0.013705
C92   C     C_R   0.445639 0.749453 0.803792 -0.017513
C93   C     C_R   0.946129 0.250358 0.695757 -0.015368
C94   C     C_R   0.946124 0.749480 0.304417 -0.010222
C95   C     C_R   0.945319 0.751024 0.696507 -0.019319
C96   C     C_R   0.945573 0.249397 0.303703 -0.013577
C97   C     C_R   0.497948 0.709288 0.197488 -0.061677
C98   C     C_R   0.512295 0.277157 0.816312 -0.136102
C99   C     C_R   0.447452 0.209962 0.248288 -0.134122
C100  C     C_R   0.447469 0.790012 0.751254 -0.132831
C101  C     C_R   0.997938 0.209139 0.697582 -0.060821
C102  C     C_R   0.934023 0.721833 0.237987 -0.123611
C103  C     C_R   0.947652 0.709855 0.748025 -0.132953
C104  C     C_R   0.946744 0.289477 0.250437 -0.120640
C105  C     C_R   0.050820 0.209348 0.753970 -0.093001
C106  C     C_R   0.988242 0.724412 0.183065 -0.078490
C107  C     C_R   0.005599 0.708915 0.798986 -0.090902
C108  C     C_R   0.004320 0.290087 0.199038 -0.095972
C109  C     C_R   0.550992 0.709465 0.253743 -0.088084
C110  C     C_R   0.567590 0.274090 0.762576 -0.082929
C111  C     C_R   0.505543 0.208953 0.299070 -0.080606
C112  C     C_R   0.504888 0.790473 0.699659 -0.095015
C113  C     C_R   0.052224 0.250251 0.805803 0.044369
C114  C     C_R   0.054506 0.751379 0.196621 0.046254
C115  C     C_R   0.055668 0.750842 0.802265 0.051963
C116  C     C_R   0.055416 0.248944 0.197457 0.044838
C117  C     C_R   0.552214 0.750147 0.305897 0.046434
C118  C     C_R   0.553360 0.248516 0.695359 0.045880
C119  C     C_R   0.555724 0.250817 0.302196 0.045952
C120  C     C_R   0.555422 0.748986 0.697482 0.039554
C121  C     C_R   0.499327 0.668140 0.144246 0.300380
C122  C     C_R   0.526989 0.306517 0.881648 0.283615
C123  C     C_R   0.393861 0.169209 0.251033 0.271104
C124  C     C_R   0.394337 0.830886 0.748562 0.278821
C125  C     C_R   0.999497 0.167993 0.644331 0.304030
C126  C     C_R   0.869063 0.691978 0.223502 0.277287
C127  C     C_R   0.894295 0.668933 0.750443 0.273230
C128  C     C_R   0.892779 0.329738 0.246845 0.290019
C129  C     C_R   0.551387 0.628031 0.150335 0.510677
C130  C     C_R   0.596767 0.326698 0.895021 0.599220
C131  C     C_R   0.403956 0.126459 0.296569 0.591132
C132  C     C_R   0.403622 0.872787 0.701242 0.561348
C133  C     C_R   0.051061 0.127621 0.650987 0.502239
C134  C     C_R   0.857168 0.669943 0.154557 0.591101
C135  C     C_R   0.904454 0.626155 0.795908 0.573372
C136  C     C_R   0.901482 0.371415 0.199025 0.575794
C137  C     C_R   0.102160 0.127815 0.708003 0.399703
C138  C     C_R   0.910423 0.673657 0.099780 0.350873
C139  C     C_R   0.963643 0.624429 0.844409 0.374837
C140  C     C_R   0.960063 0.372705 0.149747 0.361134
C141  C     C_R   0.603064 0.628449 0.206846 0.409734
C142  C     C_R   0.652174 0.321989 0.842587 0.344432
C143  C     C_R   0.463406 0.124584 0.344743 0.371385
C144  C     C_R   0.461890 0.873790 0.651595 0.358357
C145  C     C_R   0.102381 0.168528 0.757713 -0.224142
C146  C     C_R   0.975429 0.699715 0.114733 -0.243534
C147  C     C_R   0.012126 0.665993 0.846962 -0.224658
C148  C     C_R   0.009535 0.331892 0.148948 -0.244467
C149  C     C_R   0.602950 0.668889 0.256992 -0.241346
C150  C     C_R   0.636853 0.297062 0.776774 -0.251638
C151  C     C_R   0.512164 0.165994 0.346946 -0.246269
C152  C     C_R   0.510560 0.832515 0.650009 -0.241590
H1    H     H_    0.143939 0.167250 0.799874 0.211299
H2    H     H_    0.015477 0.700694 0.071104 0.176955
H3    H     H_    0.055532 0.663585 0.887072 0.199476
H4    H     H_    0.052636 0.333959 0.108437 0.207975
H5    H     H_    0.644738 0.667709 0.298938 0.202839
H6    H     H_    0.680910 0.295561 0.737246 0.203812
H7    H     H_    0.555935 0.163400 0.386615 0.200594
H8    H     H_    0.553431 0.834426 0.609245 0.210044
C153  C     C_R   0.381896 0.044847 0.050525 0.405456
C154  C     C_R   0.384344 0.956013 0.961292 0.333095
C155  C     C_R   0.881412 0.544075 0.550316 0.407500
C156  C     C_R   0.884879 0.455891 0.459671 0.332813
C157  C     C_R   0.449618 0.021102 0.033863 0.337798
C158  C     C_R   0.451135 0.977418 0.987159 0.237062
C159  C     C_R   0.949111 0.520070 0.534362 0.291238
C160  C     C_R   0.951118 0.477425 0.485808 0.343382
C161  C     C_R   0.317043 0.975524 0.987756 -0.085497
C162  C     C_R   0.316200 0.024835 0.020164 -0.127569
C163  C     C_R   0.816877 0.475606 0.485474 -0.174235
C164  C     C_R   0.816031 0.524688 0.518571 -0.103395
C165  C     C_R   0.250155 0.948024 0.980327 0.056926
C166  C     C_R   0.249157 0.052314 0.022291 0.062707
C167  C     C_R   0.749957 0.447906 0.479617 -0.009993
C168  C     C_R   0.749070 0.552204 0.521108 0.072558
C169  C     C_R   0.182998 0.975283 0.983812 -0.257615
C170  C     C_R   0.182240 0.024819 0.015576 -0.251988
C171  C     C_R   0.682777 0.475094 0.483266 -0.223093
C172  C     C_R   0.682086 0.524814 0.514393 -0.188600
C173  C     C_R   0.116447 0.954858 0.956199 0.662717
C174  C     C_R   0.114449 0.045087 0.039788 0.662592
C175  C     C_R   0.616256 0.454616 0.455772 0.609267
C176  C     C_R   0.614454 0.545035 0.539191 0.537038
C177  C     C_R   0.049225 0.977274 0.974274 0.205286
C178  C     C_R   0.048172 0.022606 0.018123 0.201511
C179  C     C_R   0.549194 0.477735 0.472508 0.323506
C180  C     C_R   0.547712 0.521804 0.518162 0.193910
F1    F     F_    0.178165 0.451793 0.111257 -0.525688
F2    F     F_    0.309671 0.547914 0.880701 -0.511689
F3    F     F_    0.179745 0.547846 0.111971 -0.525857
F4    F     F_    0.310860 0.452288 0.881565 -0.532548
F5    F     F_    0.678125 0.951794 0.611276 -0.527580
F6    F     F_    0.809559 0.047923 0.380679 -0.510455
F7    F     F_    0.679748 0.047852 0.612014 -0.521193
F8    F     F_    0.810774 0.952306 0.381556 -0.518945
O53   O     O_3   0.451140 0.668099 0.085774 -0.725184
H9    H     H_    0.457888 0.636797 0.055161 0.454119
O54   O     O_3   0.474249 0.317939 0.932759 -0.648634
H10   H     H_    0.436922 0.338763 0.906733 0.359089
O55   O     O_3   0.329307 0.170591 0.212555 -0.690808
H11   H     H_    0.304076 0.202676 0.228362 0.332909
O56   O     O_3   0.331157 0.830577 0.789256 -0.692626
H12   H     H_    0.303905 0.799140 0.773802 0.330691
O57   O     O_3   0.951704 0.168057 0.585535 -0.723619
H13   H     H_    0.958456 0.136704 0.555027 0.454735
O58   O     O_3   0.816539 0.682302 0.275555 -0.731244
H14   H     H_    0.840942 0.661063 0.313507 0.324333
O59   O     O_3   0.829850 0.670189 0.711768 -0.689314
H15   H     H_    0.804315 0.702118 0.727720 0.331316
O60   O     O_3   0.829250 0.328890 0.286961 -0.728862
H16   H     H_    0.802933 0.297016 0.271685 0.335314
F9    F     F_    0.051906 0.088289 0.601350 -0.591094
F10   F     F_    0.794117 0.643281 0.142217 -0.595425
F11   F     F_    0.854150 0.587301 0.794778 -0.570862
F12   F     F_    0.850449 0.409607 0.198847 -0.583382
F13   F     F_    0.552302 0.588832 0.100490 -0.586674
F14   F     F_    0.609290 0.352764 0.958533 -0.585322
F15   F     F_    0.353419 0.087754 0.295757 -0.565366
F16   F     F_    0.353432 0.911532 0.701938 -0.573952
O61   O     O_3   0.984423 0.047232 0.038710 -0.652561
H17   H     H_    0.946407 0.040521 0.001248 0.357942
O62   O     O_3   0.986535 0.952559 0.950326 -0.653900
H18   H     H_    0.946576 0.959296 0.985631 0.359305
O63   O     O_3   0.480994 0.541473 0.540487 -0.701740
H19   H     H_    0.488873 0.573183 0.570098 0.403788
O64   O     O_3   0.486412 0.455255 0.444456 -0.643007
H20   H     H_    0.443230 0.476141 0.458445 0.402626
O65   O     O_3   0.377141 0.084496 0.101525 -0.663613
H21   H     H_    0.426476 0.094562 0.118910 0.390587
O66   O     O_3   0.382770 0.919621 0.905577 -0.682294
H22   H     H_    0.428088 0.922596 0.876109 0.361603
O67   O     O_3   0.876293 0.583429 0.601727 -0.659280
H23   H     H_    0.925456 0.593058 0.620064 0.392466
O68   O     O_3   0.888329 0.418745 0.405069 -0.707340
H24   H     H_    0.840817 0.417641 0.378882 0.379586
O69   O     O_3   0.512987 0.041713 0.063761 -0.723065
H25   H     H_    0.555994 0.021072 0.048650 0.414591
O70   O     O_3   0.517893 0.955476 0.969960 -0.725723
H26   H     H_    0.510594 0.918099 0.959899 0.361226
O71   O     O_3   0.012246 0.540110 0.565478 -0.720468
H27   H     H_    0.054801 0.518210 0.552812 0.413481
O72   O     O_3   0.018478 0.457969 0.464797 -0.712144
H28   H     H_    0.011875 0.426305 0.434850 0.402378
F17   F     F_    0.117608 0.451657 0.005148 -0.495391
F18   F     F_    0.187272 0.547280 0.882402 -0.526447
F19   F     F_    0.117724 0.548514 0.006695 -0.530776
F20   F     F_    0.188450 0.451614 0.881705 -0.511302
F21   F     F_    0.617556 0.951678 0.505174 -0.496047
F22   F     F_    0.687161 0.047284 0.382448 -0.526780
F23   F     F_    0.617673 0.048544 0.506773 -0.526125
F24   F     F_    0.688365 0.951616 0.381730 -0.515425
F25   F     F_    0.116320 0.914740 0.907974 -0.576430
F26   F     F_    0.112041 0.085072 0.088207 -0.571414
F27   F     F_    0.616257 0.414605 0.407373 -0.582986
F28   F     F_    0.613543 0.584235 0.588984 -0.615696
F29   F     F_    0.321781 0.452629 0.111085 -0.509437
F30   F     F_    0.382387 0.548217 0.002983 -0.511892
F31   F     F_    0.323504 0.548732 0.110017 -0.522175
F32   F     F_    0.382255 0.451400 0.004950 -0.502309
F33   F     F_    0.821748 0.952644 0.611083 -0.509636
F34   F     F_    0.882338 0.048220 0.502941 -0.512116
F35   F     F_    0.823498 0.048744 0.609999 -0.523107
F36   F     F_    0.882206 0.951410 0.504938 -0.486559
O73   O     O_3   0.153314 0.089034 0.716869 -0.649394
H29   H     H_    0.146866 0.062608 0.677988 0.410333
O74   O     O_3   0.901609 0.651689 0.031326 -0.692174
H30   H     H_    0.853008 0.634688 0.028457 0.398749
O75   O     O_3   0.975021 0.583497 0.891517 -0.591320
H31   H     H_    0.936760 0.556839 0.883353 0.405629
O76   O     O_3   0.969982 0.412484 0.100334 -0.588318
H32   H     H_    0.931095 0.438698 0.107365 0.407189
O77   O     O_3   0.655168 0.590196 0.214736 -0.643652
H33   H     H_    0.648874 0.563914 0.175637 0.415779
O78   O     O_3   0.721544 0.342098 0.852868 -0.683917
H34   H     H_    0.724574 0.358441 0.901905 0.394175
O79   O     O_3   0.474814 0.083646 0.391832 -0.590314
H35   H     H_    0.436393 0.057074 0.383865 0.411047
O80   O     O_3   0.472297 0.913778 0.602618 -0.584503
H36   H     H_    0.433975 0.940330 0.610208 0.408291
O81   O     O_3   0.040414 0.330523 0.921406 -0.660633
H37   H     H_    0.024776 0.299439 0.949138 0.311105
O82   O     O_3   0.184813 0.813641 0.221840 -0.735412
H38   H     H_    0.223730 0.838021 0.237331 0.428754
O83   O     O_3   0.162531 0.834548 0.801745 -0.717523
H39   H     H_    0.192047 0.866573 0.797148 0.437551
O84   O     O_3   0.161542 0.165081 0.198260 -0.713166
H40   H     H_    0.190497 0.132920 0.203068 0.438071
O85   O     O_3   0.537061 0.828474 0.423932 -0.667207
H41   H     H_    0.521180 0.796139 0.448475 0.315125
O86   O     O_3   0.526267 0.189458 0.562293 -0.749314
H42   H     H_    0.509184 0.167812 0.520852 0.400643
O87   O     O_3   0.662541 0.334553 0.301660 -0.721111
H43   H     H_    0.692004 0.366599 0.297001 0.430626
O88   O     O_3   0.661372 0.665011 0.698039 -0.711764
H44   H     H_    0.690474 0.632921 0.702891 0.440591
F37   F     F_    0.952468 0.411253 0.903149 -0.535652
F38   F     F_    0.204670 0.862020 0.355958 -0.619306
F39   F     F_    0.146587 0.915799 0.704470 -0.591731
F40   F     F_    0.152464 0.088891 0.304188 -0.581761
F41   F     F_    0.454487 0.911717 0.402830 -0.529533
F42   F     F_    0.390961 0.143151 0.540924 -0.619866
F43   F     F_    0.649070 0.414227 0.201473 -0.591256
F44   F     F_    0.650794 0.587816 0.802372 -0.585318
O89   O     O_3   0.358827 0.918730 0.281997 -0.609815
H45   H     H_    0.367392 0.944576 0.321270 0.408930
O90   O     O_3   0.283371 0.146464 0.649955 -0.641214
H46   H     H_    0.280786 0.129746 0.601164 0.401952
O91   O     O_3   0.538259 0.412720 0.095604 -0.530566
H47   H     H_    0.576712 0.439263 0.103479 0.411515
O92   O     O_3   0.541920 0.590859 0.910174 -0.562387
H48   H     H_    0.580817 0.564671 0.903134 0.414269
O93   O     O_3   0.850048 0.414364 0.787662 -0.610015
H49   H     H_    0.858759 0.440566 0.826425 0.401926
O94   O     O_3   0.095574 0.858420 0.463490 -0.615516
H50   H     H_    0.143674 0.876150 0.465563 0.399333
O95   O     O_3   0.034759 0.915041 0.599693 -0.539367
H51   H     H_    0.072692 0.941862 0.608196 0.406741
O96   O     O_3   0.043905 0.092213 0.412305 -0.565465
H52   H     H_    0.083111 0.066213 0.405603 0.414217
F45   F     F_    0.352361 0.842012 0.186482 -0.641706
F46   F     F_    0.309746 0.194283 0.774741 -0.643007
F47   F     F_    0.444959 0.335024 0.090405 -0.567488
F48   F     F_    0.447429 0.667556 0.913011 -0.605258
F49   F     F_    0.842097 0.336145 0.694492 -0.638923
F50   F     F_    0.972744 0.807847 0.438438 -0.576268
F51   F     F_    0.943673 0.836126 0.591948 -0.548883
F52   F     F_    0.948331 0.168281 0.413984 -0.606286

loop_
_geom_bond_atom_site_label_1
_geom_bond_atom_site_label_2
_geom_bond_distance
_ccdc_geom_bond_type
C173  C177  1.397970 A    
O85   H41   0.991505 S    
O62   H18   0.989424 S    
C42   C50   1.408881 A    
O75   H31   0.990688 S    
O96   H52   0.990295 S    
O73   H29   0.990426 S    
C122  C130  1.396915 A    
O26   C7    1.274957 A    
C165  C169  1.417197 A    
C64   O96   1.382381 S    
O30   C11   1.276703 A    
C127  C135  1.396532 A    
O56   H12   0.991542 S    
C164  C168  1.416765 A    
C125  C133  1.412261 A    
C13   C117  1.450142 S    
Zn12  O26   1.931840 S    
C146  H2    1.082055 S    
C78   C82   1.418004 A    
C103  C107  1.409700 A    
C136  C140  1.398661 A    
C9    C113  1.450727 S    
C122  O54   1.373545 S    
C76   C92   1.425560 A    
C70   F50   1.357895 S    
C57   O89   1.381854 S    
C29   F5    1.388212 S    
C54   C58   1.396909 A    
C138  C146  1.389937 A    
C31   F7    1.388168 S    
C169  C170  1.403362 A    
C53   F41   1.359061 S    
C177  O62   1.380000 S    
C174  F26   1.358600 S    
O11   C7    1.276401 A    
O34   C15   1.276917 A    
C3    C89   1.449838 S    
C47   C55   1.408842 A    
C142  O78   1.380698 S    
C23   C39   1.491623 S    
C47   O87   1.383309 S    
C103  C127  1.436456 A    
Zn1   O44   1.944983 S    
C109  C149  1.416884 A    
C44   C52   1.408925 A    
Zn2   O43   1.944981 S    
C101  C125  1.438970 A    
C144  C152  1.389962 A    
C100  C112  1.410079 A    
Zn5   O48   1.944983 S    
Zn14  O30   1.929660 S    
Zn6   O47   1.944981 S    
C105  C145  1.417152 A    
C148  H4    1.081759 S    
Zn7   O46   1.947404 S    
C144  O80   1.380817 S    
O16   C12   1.273112 A    
O84   H40   0.989875 S    
Zn16  O4    1.948706 S    
C62   O94   1.382029 S    
Zn12  O4    1.944225 S    
C29   F21   1.388022 S    
Zn3   O15   1.931918 S    
Zn4   O16   1.930671 S    
C25   F1    1.388217 S    
C73   C89   1.427422 A    
O93   H49   0.990641 S    
C104  C128  1.436134 A    
O94   H50   0.990305 S    
C62   C70   1.390420 A    
C71   F51   1.357686 S    
C134  F10   1.358703 S    
C107  C115  1.416576 A    
C102  C106  1.411267 A    
C121  C129  1.412458 A    
C46   O86   1.384522 S    
C108  C116  1.416207 A    
C111  C151  1.419810 A    
C157  O69   1.384300 S    
C42   C82   1.435545 A    
O90   H46   0.990305 S    
C99   C123  1.436356 A    
C30   F22   1.389298 S    
C100  C124  1.436636 A    
Zn10  O22   1.931840 S    
C141  C149  1.387259 A    
C5    C95   1.448318 S    
C87   C119  1.426081 A    
O25   C8    1.275676 A    
Zn13  O29   1.930827 S    
C180  O63   1.382556 S    
C77   C93   1.426497 A    
Zn10  O2    1.944225 S    
C17   C166  1.485366 S    
C91   C99   1.422182 A    
C74   C90   1.426370 A    
O29   C12   1.274586 A    
Zn15  O33   1.930827 S    
C48   C88   1.436675 A    
O74   H30   0.990609 S    
C29   C39   1.563807 S    
C61   C69   1.393625 A    
C58   C66   1.390933 A    
O86   H42   0.989741 S    
C163  C167  1.418496 A    
O48   C23   1.274336 A    
C150  H6    1.081873 S    
C142  C150  1.390197 A    
C172  C176  1.416323 A    
C130  F14   1.358758 S    
C6    C96   1.448279 S    
C45   O85   1.374747 S    
O81   H37   0.991707 S    
C127  O59   1.373204 S    
C97   C109  1.412165 A    
C41   C81   1.435735 A    
O82   H38   0.989132 S    
Zn16  O35   1.931278 S    
C176  F28   1.359216 S    
C20   C167  1.484735 S    
C30   C40   1.567467 S    
C31   C40   1.564652 S    
C86   C118  1.424704 A    
Zn7   O10   1.930628 S    
O33   C16   1.274694 A    
C177  C178  1.416853 A    
O40   C20   1.283516 A    
C43   O83   1.383383 S    
C156  C160  1.412752 A    
C43   C51   1.408715 A    
C154  O66   1.383663 S    
C75   C87   1.418270 A    
C24   C40   1.491499 S    
C141  O77   1.381268 S    
C59   O91   1.382390 S    
Zn5   O17   1.929491 S    
C51   C63   1.396301 A    
C35   F33   1.388196 S    
C154  C158  1.418445 A    
C124  O56   1.372713 S    
C49   C61   1.396673 A    
C157  C158  1.412878 A    
C93   C101  1.426519 A    
C124  C132  1.396643 A    
C25   C27   1.554610 S    
O59   H15   0.991470 S    
C121  O53   1.383867 S    
Zn8   O3    1.943945 S    
C80   C96   1.425403 A    
C32   F8    1.389216 S    
C89   C97   1.426866 A    
O38   C18   1.283416 A    
O5    C1    1.273634 A    
C155  C164  1.417059 A    
C10   C114  1.452467 S    
C110  C118  1.416296 A    
O32   C9    1.273399 A    
C76   C88   1.418091 A    
C79   C83   1.418225 A    
C53   C57   1.396636 A    
O63   H19   0.990388 S    
C27   C38   1.564631 S    
C30   F6    1.389328 S    
C55   C59   1.396446 A    
O88   H44   0.989854 S    
Zn15  O51   1.947431 S    
O61   H17   0.989448 S    
Zn11  O28   1.929408 S    
C44   O84   1.383381 S    
Zn12  O40   1.947389 S    
C34   F31   1.388181 S    
C74   C86   1.418639 A    
Zn7   O4    1.943946 S    
C143  O79   1.380838 S    
C96   C104  1.422495 A    
C128  C136  1.396660 A    
C36   F35   1.388184 S    
C155  O67   1.385236 S    
O8    C4    1.275227 A    
C169  C173  1.416078 A    
C80   C84   1.418119 A    
O50   C18   1.282280 A    
O37   C17   1.284569 A    
O54   H10   0.991552 S    
C83   C115  1.426007 A    
C171  C175  1.415327 A    
C143  C151  1.390347 A    
Zn1   O1    1.948782 S    
Zn13  O1    1.943926 S    
C7    C93   1.448598 S    
O64   H20   0.989856 S    
C128  O60   1.372548 S    
C79   C95   1.425992 A    
C65   F45   1.356067 S    
C175  F27   1.358063 S    
C19   C168  1.484442 S    
C26   F2    1.389324 S    
C70   C78   1.427793 A    
C1    C91   1.448223 S    
C11   C115  1.451498 S    
C2    C92   1.448028 S    
C12   C116  1.450818 S    
C153  C157  1.414802 A    
O36   C13   1.272689 A    
C130  C142  1.398713 A    
C63   C71   1.390417 A    
C105  C113  1.416797 A    
C135  F11   1.358822 S    
O13   C9    1.277104 A    
Zn1   O8    1.931050 S    
C21   C37   1.491515 S    
Zn2   O7    1.929448 S    
C101  C105  1.411903 A    
Zn3   O6    1.930628 S    
C155  C159  1.414657 A    
O18   C14   1.275003 A    
O31   C10   1.275382 A    
O6    C2    1.273052 A    
C104  C108  1.409865 A    
C149  H5    1.081957 S    
C174  C178  1.397876 A    
C99   C111  1.409556 A    
C28   C37   1.568870 S    
C33   C34   1.554750 S    
C56   F44   1.359882 S    
C163  C164  1.402988 A    
O78   H34   0.990610 S    
O83   H39   0.989797 S    
C41   C49   1.392988 A    
O92   H48   0.990292 S    
C82   C114  1.424797 A    
C92   C100  1.422730 A    
Zn15  O3    1.943926 S    
C78   C94   1.425493 A    
Zn11  O3    1.949005 S    
C126  O58   1.373641 S    
C166  C170  1.417042 A    
O41   C21   1.278718 A    
C14   C118  1.451495 S    
C69   C77   1.430309 A    
Zn16  O34   1.929660 S    
C60   C68   1.390113 A    
C60   O92   1.382386 S    
C111  C119  1.416543 A    
C73   C85   1.416046 A    
C126  C134  1.397286 A    
C109  C117  1.416439 A    
C152  H8    1.081700 S    
Zn8   O20   1.930671 S    
C112  C120  1.416420 A    
C160  O72   1.384076 S    
C145  H1    1.081849 S    
C156  C163  1.423417 A    
C97   C121  1.438837 A    
C159  C160  1.412722 A    
C44   C84   1.436562 A    
C67   F47   1.357648 S    
C98   C110  1.410600 A    
C46   C86   1.436647 A    
C95   C103  1.422342 A    
C28   F20   1.389329 S    
C56   C60   1.396589 A    
C33   F32   1.388032 S    
C137  C145  1.387364 A    
C54   F42   1.359992 S    
O55   H11   0.991460 S    
C81   C113  1.421285 A    
Zn8   O9    1.931874 S    
C106  C114  1.416248 A    
C173  F25   1.358092 S    
C88   C120  1.425912 A    
O70   H26   0.990750 S    
O7    C3    1.278877 A    
C31   F23   1.388057 S    
C22   C38   1.491609 S    
C179  O64   1.381787 S    
O80   H36   0.990608 S    
C102  C126  1.437450 A    
O19   C15   1.274138 A    
C63   O95   1.382371 S    
Zn9   O24   1.929408 S    
C26   F18   1.389293 S    
C43   C83   1.436449 A    
Zn10  O23   1.930578 S    
C106  C146  1.419271 A    
C107  C147  1.420033 A    
O66   H22   0.990304 S    
C50   C62   1.396517 A    
C66   C74   1.427602 A    
C175  C179  1.397540 A    
O76   H32   0.990608 S    
C94   C102  1.423161 A    
C28   F4    1.389241 S    
C139  C147  1.390395 A    
C123  O55   1.373169 S    
C49   F37   1.359073 S    
C66   F46   1.358304 S    
Zn15  O36   1.932092 S    
O15   C11   1.274285 A    
O42   C22   1.275304 A    
C51   F39   1.359926 S    
C42   O82   1.383426 S    
C48   O88   1.383428 S    
C167  C171  1.416755 A    
C16   C120  1.450977 S    
Zn9   O37   1.944995 S    
O12   C8    1.278021 A    
C36   C40   1.564412 S    
Zn11  O39   1.944995 S    
C90   C98   1.422676 A    
O95   H51   0.990342 S    
C139  O75   1.380847 S    
C138  O74   1.380892 S    
C48   C56   1.408894 A    
C69   F49   1.357868 S    
O51   C19   1.280573 A    
C110  C150  1.419427 A    
O67   H23   0.989274 S    
C36   F34   1.387888 S    
C75   C91   1.425779 A    
Zn5   O3    1.948782 S    
C161  C165  1.417815 A    
C64   C72   1.390153 A    
Zn6   O4    1.948781 S    
C65   C73   1.429933 A    
Zn2   O14   1.931093 S    
C55   F43   1.359924 S    
O60   H16   0.991528 S    
C27   F19   1.388023 S    
C68   C76   1.427780 A    
C18   C165  1.485157 S    
O28   C5    1.277534 A    
Zn3   O42   1.947404 S    
C168  C172  1.416763 A    
C41   O81   1.374187 S    
O69   H25   0.989331 S    
O21   C4    1.278922 A    
C35   C36   1.554685 S    
C35   F36   1.388000 S    
C151  H7    1.081215 S    
C153  C162  1.417579 A    
C77   C81   1.417076 A    
O72   H28   0.989686 S    
C72   F52   1.357671 S    
C137  O73   1.381253 S    
Zn2   O2    1.948781 S    
O65   H21   0.989275 S    
Zn14  O2    1.948706 S    
C8    C94   1.447834 S    
Zn6   O18   1.931093 S    
C72   C80   1.427589 A    
Zn13  O49   1.947431 S    
O71   H27   0.989511 S    
C27   F3    1.388171 S    
C71   C79   1.428259 A    
C132  C144  1.398494 A    
C123  C131  1.396580 A    
Zn12  O27   1.930578 S    
C125  O57   1.383893 S    
C4    C90   1.448931 S    
Zn3   O2    1.943946 S    
C25   C37   1.563727 S    
O68   H24   0.991163 S    
O46   C24   1.275298 A    
Zn4   O41   1.947406 S    
C108  C148  1.419967 A    
C153  O65   1.385315 S    
Zn16  O52   1.945036 S    
C84   C116  1.425945 A    
C178  O61   1.379950 S    
O53   H9    0.989676 S    
O9    C5    1.273441 A    
Zn8   O45   1.947406 S    
C176  C180  1.410090 A    
O27   C6    1.275264 A    
C140  C148  1.390097 A    
O39   C19   1.284488 A    
C15   C119  1.451634 S    
C52   F40   1.359880 S    
Zn10  O38   1.947389 S    
Zn1   O13   1.929491 S    
C29   C31   1.554711 S    
C61   O93   1.381816 S    
C156  O68   1.383520 S    
C33   C37   1.563963 S    
C33   F29   1.388189 S    
O24   C1    1.277262 A    
C133  F9    1.359822 S    
C135  C139  1.398492 A    
C136  F12   1.358800 S    
C25   F17   1.388037 S    
C98   C122  1.437083 A    
O43   C22   1.277755 A    
C46   C54   1.408493 A    
O47   C24   1.277696 A    
C26   C28   1.543710 S    
Zn5   O12   1.931050 S    
Zn6   O11   1.929448 S    
Zn9   O21   1.931029 S    
O57   H13   0.989665 S    
Zn14  O50   1.945036 S    
C45   C53   1.392674 A    
O35   C14   1.278654 A    
O91   H47   0.990338 S    
C32   F24   1.389331 S    
C159  O71   1.384118 S    
C140  O76   1.380805 S    
Zn9   O1    1.949005 S    
O58   H14   0.991592 S    
O52   C20   1.281345 A    
C112  C152  1.420018 A    
Zn4   O1    1.943945 S    
C179  C180  1.409400 A    
C158  O70   1.381738 S    
C170  C174  1.415930 A    
C57   C65   1.393883 A    
O44   C21   1.274266 A    
O22   C3    1.273263 A    
C26   C38   1.567490 S    
C32   C39   1.568867 S    
C133  C137  1.398361 A    
C47   C87   1.436412 A    
C52   C64   1.396674 A    
Zn7   O19   1.931918 S    
C45   C85   1.435553 A    
C154  C161  1.414407 A    
C147  H3    1.081448 S    
Zn13  O32   1.932092 S    
C129  F13   1.359819 S    
C171  C172  1.402941 A    
O49   C17   1.280899 A    
Zn14  O31   1.931278 S    
C68   F48   1.357709 S    
C131  F15   1.358820 S    
O87   H43   0.989823 S    
C162  C166  1.417356 A    
C30   C32   1.543671 S    
C132  F16   1.358799 S    
C35   C39   1.563987 S    
O79   H35   0.990689 S    
O89   H45   0.990670 S    
Zn4   O5    1.931874 S    
C85   C117  1.419876 A    
O20   C16   1.273081 A    
C67   C75   1.428042 A    
O10   C6    1.272809 A    
O23   C2    1.274946 A    
Zn11  O25   1.931029 S    
C131  C143  1.398554 A    
C34   F30   1.387877 S    
C59   C67   1.390271 A    
C129  C141  1.398610 A    
O14   C10   1.278693 A    
C134  C138  1.398776 A    
C34   C38   1.564436 S    
O77   H33   0.990419 S    
C58   O90   1.381922 S    
C161  C162  1.402999 A    
O17   C13   1.277353 A    
C50   F38   1.360007 S    
O45   C23   1.278718 A    
