data_mof_unit_13234.cif
_audit_creation_date              2013-03-05T16:01:10-0500
_audit_creation_method            fapswitch 2.2
_symmetry_space_group_name_H-M    P1
_symmetry_Int_Tables_number       1
_space_group_crystal_system       triclinic
_cell_length_a                    7.19829
_cell_length_b                    37.178573
_cell_length_c                    41.030746
_cell_angle_alpha                 89.956216
_cell_angle_beta                  89.239774
_cell_angle_gamma                 90.280892
_cell_volume                      10979.6341746

loop_
_atom_site_label
_atom_site_type_symbol
_atom_site_description
_atom_site_fract_x
_atom_site_fract_y
_atom_site_fract_z
_atom_type_partial_charge
O1    O     O_R   0.564240 0.782760 0.216890 -0.594685
O2    O     O_R   0.435760 0.217240 0.783110 -0.591666
O3    O     O_R   0.435760 0.217240 0.716890 -0.586779
O4    O     O_R   0.564240 0.782760 0.283110 -0.585901
O5    O     O_R   0.064240 0.717240 0.283110 -0.586252
O6    O     O_R   0.935760 0.282760 0.716890 -0.582762
O7    O     O_R   0.935760 0.282760 0.783110 -0.592327
O8    O     O_R   0.064240 0.717240 0.216890 -0.591290
O9    O     O_R   0.234510 0.787070 0.282870 -0.599302
O10   O     O_R   0.765490 0.212930 0.717130 -0.600901
O11   O     O_R   0.765490 0.212930 0.782870 -0.587188
O12   O     O_R   0.234510 0.787070 0.217130 -0.593335
O13   O     O_R   0.734510 0.712930 0.217130 -0.585136
O14   O     O_R   0.265490 0.287070 0.782870 -0.586744
O15   O     O_R   0.265490 0.287070 0.717130 -0.595500
O16   O     O_R   0.734510 0.712930 0.282870 -0.599338
C1    C     C_R   0.402798 0.795888 0.293540 0.950138
C2    C     C_R   0.597184 0.204085 0.706484 0.947065
C3    C     C_R   0.595706 0.204131 0.793447 0.944308
C4    C     C_R   0.404198 0.795979 0.206485 0.949874
C5    C     C_R   0.903777 0.704187 0.206503 0.945592
C6    C     C_R   0.096221 0.295838 0.793475 0.942581
C7    C     C_R   0.097880 0.295936 0.706549 0.949633
C8    C     C_R   0.902144 0.704057 0.293562 0.952386
O17   O     O_3   0.397750 0.727090 0.250000 -0.283414
O18   O     O_3   0.602250 0.272910 0.750000 -0.282302
O19   O     O_3   0.897750 0.772910 0.250000 -0.289794
O20   O     O_3   0.102250 0.227090 0.750000 -0.287153
V1    V     V_3+5 0.122890 0.754250 0.250000 1.147979
V2    V     V_3+5 0.877110 0.245750 0.750000 1.152669
V3    V     V_3+5 0.622890 0.745750 0.250000 1.152644
V4    V     V_3+5 0.377110 0.254250 0.750000 1.156573
C9    C     C_R   0.038034 0.607723 0.423982 0.572320
C10   C     C_R   0.920472 0.398377 0.582205 0.582470
C11   C     C_R   0.148598 0.396808 0.922005 0.564140
C12   C     C_R   0.851832 0.603568 0.077680 0.563549
C13   C     C_R   0.362380 0.894684 0.075614 0.563822
C14   C     C_R   0.666590 0.098160 0.918645 0.594531
C15   C     C_R   0.537555 0.111347 0.572222 0.531294
C16   C     C_R   0.461593 0.888341 0.428054 0.531117
O21   O     O_2   0.118355 0.640486 0.426292 -0.521164
O22   O     O_2   0.796512 0.371187 0.585258 -0.530123
O23   O     O_2   0.261628 0.368025 0.923691 -0.540469
O24   O     O_2   0.738708 0.632338 0.076015 -0.540418
O25   O     O_2   0.279283 0.862387 0.071675 -0.529170
O26   O     O_2   0.803372 0.123116 0.917774 -0.534700
O27   O     O_2   0.537702 0.147019 0.566097 -0.524566
O28   O     O_2   0.461477 0.852668 0.434173 -0.524903
N1    N     N_R   0.937544 0.599158 0.396994 -0.174952
N2    N     N_R   0.058116 0.402237 0.604644 -0.177812
N3    N     N_R   0.048618 0.402647 0.894469 -0.173102
N4    N     N_R   0.951811 0.597714 0.105215 -0.173172
N5    N     N_R   0.442187 0.903008 0.104727 -0.173464
N6    N     N_R   0.543356 0.096139 0.893636 -0.176772
N7    N     N_R   0.554328 0.099352 0.603502 -0.174269
N8    N     N_R   0.444920 0.900340 0.396774 -0.174340
C17   C     C_R   0.849187 0.566529 0.394570 0.530551
C18   C     C_R   0.186011 0.429571 0.601973 0.551031
C19   C     C_R   0.929946 0.431164 0.892325 0.591338
C20   C     C_R   0.070597 0.569212 0.107335 0.591117
C21   C     C_R   0.529004 0.935469 0.109285 0.534999
C22   C     C_R   0.404471 0.070805 0.893641 0.574453
C23   C     C_R   0.549154 0.063356 0.610581 0.556189
C24   C     C_R   0.450019 0.936338 0.389701 0.553600
C25   C     C_R   0.088263 0.633284 0.351823 0.661228
C26   C     C_R   0.929458 0.374052 0.655096 0.637841
C27   C     C_R   0.197073 0.379509 0.843817 0.636853
C28   C     C_R   0.803345 0.620660 0.155937 0.636975
C29   C     C_R   0.264471 0.870135 0.147547 0.662717
C30   C     C_R   0.694361 0.120266 0.843416 0.648903
C31   C     C_R   0.408186 0.132204 0.649278 0.635782
C32   C     C_R   0.591548 0.867516 0.351034 0.635411
C33   C     C_R   0.079182 0.659771 0.327382 -0.347463
C34   C     C_R   0.936925 0.347010 0.679024 -0.353312
C35   C     C_R   0.213669 0.352000 0.820256 -0.376179
C36   C     C_R   0.786645 0.648070 0.179589 -0.371823
C37   C     C_R   0.255262 0.842819 0.171294 -0.351618
C38   C     C_R   0.712025 0.148020 0.820091 -0.371740
C39   C     C_R   0.419087 0.158471 0.674000 -0.371830
C40   C     C_R   0.580824 0.841348 0.326225 -0.366335
C41   C     C_R   0.749208 0.666351 0.337578 -0.168963
C42   C     C_R   0.235893 0.327918 0.657882 -0.149343
C43   C     C_R   0.940609 0.322408 0.842790 -0.146056
C44   C     C_R   0.059160 0.677859 0.157063 -0.142774
C45   C     C_R   0.585338 0.832515 0.164889 -0.161476
C46   C     C_R   0.437612 0.176802 0.842378 -0.148302
C47   C     C_R   0.744766 0.168235 0.661079 -0.155540
C48   C     C_R   0.254953 0.831605 0.339005 -0.152331
C49   C     C_R   0.758987 0.641142 0.362871 -0.147859
C50   C     C_R   0.224848 0.353622 0.633016 -0.099385
C51   C     C_R   0.929995 0.348402 0.867343 -0.135571
C52   C     C_R   0.069850 0.651959 0.132427 -0.134795
C53   C     C_R   0.593573 0.858490 0.140168 -0.171682
C54   C     C_R   0.425707 0.150503 0.866709 -0.129388
C55   C     C_R   0.732948 0.143204 0.635737 -0.161100
C56   C     C_R   0.266587 0.856548 0.364421 -0.160927
C57   C     C_R   0.928124 0.624684 0.370414 0.064053
C58   C     C_R   0.070847 0.376573 0.631097 0.026223
C59   C     C_R   0.058803 0.376779 0.868288 0.074285
C60   C     C_R   0.941378 0.623528 0.131438 0.073717
C61   C     C_R   0.433460 0.877140 0.131051 0.080078
C62   C     C_R   0.554710 0.122380 0.867685 0.052867
C63   C     C_R   0.565443 0.125166 0.629681 0.091413
C64   C     C_R   0.434086 0.874539 0.370581 0.092280
C65   C     C_R   0.972883 0.548561 0.447105 -0.070261
C66   C     C_R   0.040468 0.450154 0.552039 -0.064982
C67   C     C_R   0.016410 0.450667 0.946886 -0.065675
C68   C     C_R   0.984159 0.549743 0.052762 -0.065879
C69   C     C_R   0.456172 0.953001 0.053727 -0.080191
C70   C     C_R   0.506143 0.048904 0.946449 -0.073519
C71   C     C_R   0.518491 0.049486 0.552819 -0.080155
C72   C     C_R   0.480518 0.950201 0.447467 -0.079455
C73   C     C_R   0.058200 0.582693 0.449350 -0.055343
C74   C     C_R   0.908495 0.422218 0.555714 -0.011360
C75   C     C_R   0.133315 0.420400 0.948665 -0.022729
C76   C     C_R   0.867182 0.579999 0.051003 -0.021416
C77   C     C_R   0.366862 0.919464 0.049729 -0.051081
C78   C     C_R   0.650112 0.074790 0.945481 -0.016192
C79   C     C_R   0.518350 0.086782 0.546450 -0.050689
C80   C     C_R   0.480675 0.912904 0.453832 -0.049370
C81   C     C_R   0.159914 0.591396 0.477103 -0.086279
C82   C     C_R   0.764493 0.419098 0.533268 -0.060519
C83   C     C_R   0.223767 0.412999 0.977738 -0.091568
C84   C     C_R   0.776698 0.587408 0.021933 -0.094373
C85   C     C_R   0.286841 0.911042 0.019759 -0.092672
C86   C     C_R   0.775690 0.076659 0.971206 -0.083120
C87   C     C_R   0.489082 0.098868 0.514724 -0.073112
C88   C     C_R   0.509854 0.900817 0.485561 -0.076682
C89   C     C_R   0.865180 0.540222 0.419578 -0.235991
C90   C     C_R   0.180449 0.454376 0.575562 -0.253390
C91   C     C_R   0.907627 0.455493 0.918862 -0.256974
C92   C     C_R   0.092987 0.544910 0.080780 -0.256840
C93   C     C_R   0.538806 0.961382 0.083812 -0.237578
C94   C     C_R   0.382754 0.046251 0.920063 -0.253984
C95   C     C_R   0.527253 0.037450 0.585415 -0.254910
C96   C     C_R   0.471793 0.962242 0.414872 -0.254422
C97   C     C_R   0.909742 0.676311 0.319730 -0.169984
C98   C     C_R   0.090442 0.323930 0.680811 -0.177030
C99   C     C_R   0.084250 0.323624 0.819292 -0.157261
C100  C     C_R   0.915776 0.676492 0.180605 -0.157580
C101  C     C_R   0.415451 0.824065 0.180580 -0.165668
C102  C     C_R   0.582544 0.176136 0.819116 -0.160809
C103  C     C_R   0.587548 0.176446 0.680339 -0.156393
C104  C     C_R   0.412332 0.823439 0.319765 -0.155629
H1    H     H_    0.616444 0.678576 0.332496 0.158610
H2    H     H_    0.355999 0.310520 0.658665 0.154043
H3    H     H_    0.838856 0.300850 0.842610 0.144732
H4    H     H_    0.160664 0.699459 0.157278 0.145976
H5    H     H_    0.711712 0.818654 0.171280 0.152633
H6    H     H_    0.335724 0.198141 0.842178 0.145837
H7    H     H_    0.876212 0.181691 0.665131 0.151590
H8    H     H_    0.123490 0.818187 0.334873 0.151899
H9    H     H_    0.634903 0.634614 0.376899 0.190577
H10   H     H_    0.335793 0.355522 0.615002 0.180057
H11   H     H_    0.821395 0.346478 0.885787 0.158452
H12   H     H_    0.178288 0.653990 0.113963 0.158525
H13   H     H_    0.724556 0.863891 0.127803 0.180310
H14   H     H_    0.316073 0.152023 0.884978 0.164437
H15   H     H_    0.854481 0.137788 0.620739 0.174190
H16   H     H_    0.144906 0.861939 0.379389 0.174133
H17   H     H_    0.220064 0.617931 0.480121 0.184544
H18   H     H_    0.655866 0.399080 0.536428 0.170922
H19   H     H_    0.302885 0.388521 0.980687 0.182038
H20   H     H_    0.697520 0.611880 0.018998 0.180509
H21   H     H_    0.223780 0.884962 0.015594 0.183768
H22   H     H_    0.892538 0.095126 0.970399 0.174642
H23   H     H_    0.474574 0.127272 0.509475 0.192111
H24   H     H_    0.524351 0.872412 0.490810 0.190265
C105  C     C_R   0.152893 0.503717 0.522523 -0.134303
C106  C     C_R   0.897244 0.489964 0.471864 -0.097306
C107  C     C_R   0.119498 0.495595 0.027328 -0.113913
C108  C     C_R   0.881132 0.504836 0.972301 -0.114776
C109  C     C_R   0.354071 0.997547 0.973721 -0.137454
C110  C     C_R   0.567817 0.010016 0.030177 -0.123852
C111  C     C_R   0.503944 0.012603 0.467163 -0.133256
C112  C     C_R   0.495001 0.987084 0.533127 -0.134426
C113  C     C_R   0.895073 0.468179 0.500562 0.151950
C114  C     C_R   0.115466 0.530791 0.498852 0.137278
C115  C     C_R   0.884981 0.530921 0.997975 0.164894
C116  C     C_R   0.115596 0.469505 0.001665 0.163484
C117  C     C_R   0.601676 0.030702 0.001386 0.155615
C118  C     C_R   0.363857 0.970688 0.998487 0.139015
C119  C     C_R   0.499969 0.962378 0.506403 0.116314
C120  C     C_R   0.498953 0.037306 0.493887 0.114631
C121  C     C_R   0.030045 0.474018 0.524982 0.083661
C122  C     C_R   0.995399 0.522989 0.472566 0.101559
C123  C     C_R   0.994877 0.525037 0.026125 0.093558
C124  C     C_R   0.005715 0.475386 0.973513 0.093649
C125  C     C_R   0.486917 0.025684 0.973863 0.084474
C126  C     C_R   0.462391 0.978008 0.027496 0.088291
C127  C     C_R   0.492466 0.975219 0.473746 0.073223
C128  C     C_R   0.506491 0.024467 0.526543 0.073299
C129  C     C_R   0.305842 0.505514 0.544118 0.167060
C130  C     C_R   0.804393 0.480228 0.442705 0.168192
C131  C     C_R   0.249079 0.494530 0.053514 0.184801
C132  C     C_R   0.751638 0.505906 0.946100 0.184911
C133  C     C_R   0.218821 0.997154 0.948739 0.165463
C134  C     C_R   0.634479 0.020045 0.061399 0.157590
C135  C     C_R   0.528793 0.023676 0.434025 0.169295
C136  C     C_R   0.470162 0.976014 0.566268 0.170696
C137  C     C_R   0.313554 0.482281 0.571282 0.316783
C138  C     C_R   0.784033 0.505518 0.417332 0.320171
C139  C     C_R   0.228563 0.517613 0.080532 0.324404
C140  C     C_R   0.772145 0.482809 0.919091 0.323966
C141  C     C_R   0.237764 0.020342 0.921630 0.322991
C142  C     C_R   0.622665 0.995662 0.087751 0.310998
C143  C     C_R   0.497739 0.999282 0.408357 0.295841
C144  C     C_R   0.501242 0.000411 0.591934 0.300450
O29   O     O_2   0.317647 0.432562 0.624864 -0.518754
O30   O     O_2   0.748446 0.559575 0.367833 -0.535666
O31   O     O_2   0.166118 0.564597 0.135056 -0.519801
O32   O     O_2   0.834462 0.435767 0.864599 -0.521798
O33   O     O_2   0.288020 0.069688 0.868197 -0.505081
O34   O     O_2   0.604114 0.942572 0.138471 -0.543559
O35   O     O_2   0.434602 0.946782 0.358384 -0.522712
O36   O     O_2   0.564646 0.052915 0.641898 -0.527182
C145  C     C_R   0.185859 0.566112 0.501568 -0.083312
C146  C     C_R   0.756179 0.442023 0.506542 -0.084833
C147  C     C_R   0.207959 0.436183 0.004084 -0.104039
C148  C     C_R   0.792546 0.564239 0.995575 -0.107134
C149  C     C_R   0.286835 0.936041 0.994530 -0.089862
C150  C     C_R   0.752585 0.054879 0.998550 -0.063347
C151  C     C_R   0.472426 0.074577 0.489251 -0.099579
C152  C     C_R   0.526451 0.925106 0.511037 -0.101065
H25   H     H_    0.824139 0.344686 0.696661 0.161688
H26   H     H_    0.205539 0.667177 0.314355 0.157993
H27   H     H_    0.675514 0.646741 0.197597 0.153880
H28   H     H_    0.325005 0.353204 0.802281 0.154252
H29   H     H_    0.824058 0.147112 0.802241 0.155111
H30   H     H_    0.122009 0.836543 0.182527 0.156140
H31   H     H_    0.704381 0.834985 0.312102 0.152060
H32   H     H_    0.295691 0.164868 0.688152 0.152305
H33   H     H_    0.256390 0.575156 0.523134 0.173800
H34   H     H_    0.635489 0.439717 0.491345 0.164777
H35   H     H_    0.263660 0.426490 0.026622 0.176046
H36   H     H_    0.736826 0.573945 0.973043 0.174415
H37   H     H_    0.231861 0.927245 0.971507 0.173643
H38   H     H_    0.858674 0.056351 0.016864 0.164905
H39   H     H_    0.432173 0.085690 0.466168 0.182376
H40   H     H_    0.566642 0.913990 0.534123 0.181076
O37   O     O_3   0.781410 0.397545 0.654611 -0.594873
C153  C     C_3   0.808335 0.423640 0.679127 0.136016
H41   H     H_    0.941303 0.438576 0.674960 0.124928
H42   H     H_    0.808965 0.411072 0.703782 0.088192
C154  C     C_3   0.650334 0.450532 0.678407 -0.599754
H43   H     H_    0.515516 0.436543 0.682686 0.249219
H44   H     H_    0.669851 0.471055 0.697725 0.180910
H45   H     H_    0.648864 0.464176 0.654386 0.306499
O38   O     O_3   0.256681 0.617876 0.359620 -0.640182
C155  C     C_3   0.315701 0.594307 0.334492 0.129954
H46   H     H_    0.468964 0.591990 0.335750 0.199354
H47   H     H_    0.285442 0.604207 0.309482 0.080567
C156  C     C_3   0.232224 0.556888 0.339455 -0.706397
H48   H     H_    0.081462 0.557287 0.334213 0.238044
H49   H     H_    0.300691 0.537538 0.322621 0.246473
H50   H     H_    0.252650 0.547863 0.364957 0.282450
O39   O     O_3   0.683179 0.591455 0.155868 -0.591097
C157  C     C_3   0.707090 0.571339 0.184789 0.149414
H51   H     H_    0.643280 0.585452 0.206007 0.094899
H52   H     H_    0.856992 0.566315 0.189622 0.120584
C158  C     C_3   0.611140 0.535068 0.181553 -0.546388
H53   H     H_    0.675342 0.519614 0.161223 0.276722
H54   H     H_    0.626177 0.519502 0.204467 0.178699
H55   H     H_    0.461017 0.538971 0.176897 0.282004
O40   O     O_3   0.317633 0.408659 0.843852 -0.589712
C159  C     C_3   0.295339 0.428574 0.814770 0.155668
H56   H     H_    0.145740 0.433576 0.809655 0.114224
H57   H     H_    0.360263 0.414309 0.793741 0.090886
C160  C     C_3   0.391216 0.464858 0.817952 -0.568698
H58   H     H_    0.541100 0.460976 0.822834 0.284040
H59   H     H_    0.377249 0.480281 0.794934 0.169379
H60   H     H_    0.326175 0.480442 0.838118 0.278691
O41   O     O_3   0.814341 0.091277 0.843185 -0.581621
C161  C     C_3   0.786273 0.071058 0.814454 0.148556
H61   H     H_    0.845233 0.085421 0.792864 0.094243
H62   H     H_    0.635761 0.065436 0.810507 0.112451
C162  C     C_3   0.884804 0.035182 0.817194 -0.551370
H63   H     H_    0.824506 0.019447 0.837795 0.278807
H64   H     H_    0.867056 0.019602 0.794356 0.179275
H65   H     H_    0.035428 0.039661 0.821143 0.278856
O42   O     O_3   0.105970 0.888307 0.138465 -0.645236
C163  C     C_3   0.042768 0.910575 0.164272 0.115595
H66   H     H_    0.053010 0.898047 0.188850 0.086362
H67   H     H_    0.893192 0.915603 0.160615 0.215970
C164  C     C_3   0.144083 0.946712 0.163809 -0.664328
H68   H     H_    0.146319 0.958056 0.138757 0.276037
H69   H     H_    0.072323 0.965809 0.180464 0.252985
H70   H     H_    0.288700 0.943251 0.172224 0.242420
O43   O     O_3   0.757268 0.884624 0.358529 -0.648657
C165  C     C_3   0.835899 0.901423 0.330632 0.138346
H71   H     H_    0.728630 0.912231 0.313876 0.140632
H72   H     H_    0.925287 0.882000 0.317185 0.109166
C166  C     C_3   0.956020 0.932892 0.341423 -0.621847
H73   H     H_    0.065087 0.923469 0.358193 0.232534
H74   H     H_    0.023452 0.945767 0.319864 0.228016
H75   H     H_    0.868928 0.953071 0.354307 0.274548
O44   O     O_3   0.242483 0.115016 0.641895 -0.646868
C167  C     C_3   0.163552 0.098510 0.669912 0.141503
H76   H     H_    0.074353 0.118092 0.683203 0.107082
H77   H     H_    0.270669 0.087807 0.686752 0.133890
C168  C     C_3   0.043028 0.067000 0.659354 -0.637132
H78   H     H_    0.129878 0.046653 0.646641 0.276906
H79   H     H_    0.975345 0.054366 0.681007 0.220487
H80   H     H_    0.934145 0.076321 0.642500 0.236084
N9    N     N_R   0.459690 0.487218 0.594182 0.285582
O45   O     O_R   0.431550 0.507289 0.619711 -0.325785
O46   O     O_R   0.626687 0.476207 0.587216 -0.375583
N10   N     N_R   0.690023 0.494597 0.388424 0.293166
O47   O     O_R   0.781439 0.478665 0.365049 -0.284685
O48   O     O_R   0.510973 0.498354 0.386443 -0.323822
N11   N     N_R   0.362325 0.515644 0.105940 0.283635
O49   O     O_R   0.337803 0.493013 0.129823 -0.322220
O50   O     O_R   0.518201 0.533294 0.103112 -0.352985
N12   N     N_R   0.638460 0.484787 0.893668 0.283996
O51   O     O_R   0.663264 0.507368 0.869755 -0.329828
O52   O     O_R   0.482403 0.467198 0.896506 -0.352396
N13   N     N_R   0.104772 0.017757 0.896156 0.288331
O53   O     O_R   0.136387 0.996365 0.871658 -0.333336
O54   O     O_R   0.942097 0.032367 0.899824 -0.359785
N14   N     N_R   0.684754 0.007249 0.119057 0.294998
O55   O     O_R   0.567753 0.021476 0.139692 -0.273849
O56   O     O_R   0.859093 0.004548 0.126569 -0.320671
N15   N     N_R   0.511681 0.012141 0.375503 0.293562
O57   O     O_R   0.673755 0.015714 0.361447 -0.302573
O58   O     O_R   0.364047 0.023519 0.360823 -0.259184
N16   N     N_R   0.487203 0.987562 0.624790 0.292477
O59   O     O_R   0.325109 0.984061 0.638852 -0.312826
O60   O     O_R   0.634739 0.976140 0.639471 -0.271476
N17   N     N_R   0.465837 0.527450 0.536415 0.239459
O61   O     O_R   0.539188 0.548223 0.558331 -0.316601
O62   O     O_R   0.540082 0.526362 0.507343 -0.419758
N18   N     N_R   0.754407 0.443395 0.436475 0.245089
O63   O     O_R   0.589405 0.435119 0.426187 -0.295112
O64   O     O_R   0.876563 0.418065 0.440113 -0.319037
N19   N     N_R   0.417704 0.474025 0.051268 0.239529
O65   O     O_R   0.533155 0.479156 0.027049 -0.360080
O66   O     O_R   0.462292 0.451872 0.074428 -0.322300
N20   N     N_R   0.583103 0.526441 0.948314 0.239665
O67   O     O_R   0.538777 0.548604 0.925146 -0.329203
O68   O     O_R   0.467404 0.521305 0.972496 -0.360313
N21   N     N_R   0.048894 0.976951 0.952685 0.240971
O69   O     O_R   0.953091 0.979203 0.979720 -0.413937
O70   O     O_R   0.987415 0.956788 0.929226 -0.317188
N22   N     N_R   0.687566 0.056641 0.067978 0.246917
O71   O     O_R   0.577962 0.082871 0.060028 -0.326101
O72   O     O_R   0.842447 0.063882 0.082652 -0.292368
N23   N     N_R   0.615124 0.057573 0.426039 0.246232
O73   O     O_R   0.772710 0.066358 0.439111 -0.344217
O74   O     O_R   0.541952 0.078937 0.404647 -0.277778
N24   N     N_R   0.383793 0.942122 0.574257 0.245780
O75   O     O_R   0.456926 0.920760 0.595654 -0.288137
O76   O     O_R   0.226204 0.933341 0.561184 -0.347993

loop_
_geom_bond_atom_site_label_1
_geom_bond_atom_site_label_2
_geom_bond_distance
_ccdc_geom_bond_type
C84   C148  1.386996 A    
C134  C142  1.411871 A    
C165  C166  1.521040 S    
C10   O22   1.349717 S    
C139  N11   1.430580 S    
C20   C92   1.423969 A    
C21   C93   1.421757 A    
O15   V4    1.997311 S    
C168  H78   1.109857 S    
O16   V3    1.997309 S    
C19   C91   1.424009 A    
C163  H66   1.113988 S    
C15   O27   1.349648 S    
C34   H25   1.083445 S    
C27   O40   1.385076 S    
C131  C139  1.409086 A    
C155  H47   1.114475 S    
C129  C137  1.411426 A    
C16   O28   1.349637 S    
C161  H61   1.112270 S    
C24   O35   1.348214 S    
C55   C63   1.401999 A    
C119  C152  1.412747 A    
O1    C4    1.330129 A    
C153  H42   1.114092 S    
C11   C75   1.406140 A    
N16   O59   1.300701 A    
C132  C140  1.409153 A    
C141  N13   1.429670 S    
C155  C156  1.525143 S    
C136  C144  1.409795 A    
C30   O41   1.384388 S    
C154  H43   1.110617 S    
C88   C152  1.387860 A    
N6    C62   1.444825 S    
C153  C154  1.518544 S    
C75   C83   1.394456 A    
C69   C93   1.411713 A    
N15   O57   1.300703 A    
C107  C131  1.432787 A    
C145  H33   1.079098 S    
C72   C80   1.410842 A    
C94   C141  1.417581 A    
C105  C129  1.423703 A    
N12   O51   1.300772 A    
C6    C99   1.482172 S    
C149  H37   1.079343 S    
C83   H19   1.083477 S    
O10   V2    1.993755 S    
C81   H17   1.083274 S    
O12   C4    1.331953 A    
C158  H55   1.110085 S    
C30   C62   1.408053 A    
C138  N10   1.431421 S    
C91   C140  1.411398 A    
C108  C115  1.432832 A    
O6    V2    1.973162 S    
C109  C118  1.426819 A    
C56   C64   1.401931 A    
C11   N3    1.365393 A    
C12   O24   1.349724 S    
C167  H76   1.111594 S    
C13   O25   1.349635 S    
C131  N19   1.438483 S    
C156  H49   1.110302 S    
C168  H80   1.108739 S    
C66   C90   1.412813 A    
C118  C149  1.410200 A    
O2    C3    1.327088 A    
C28   C60   1.407610 A    
C96   C143  1.413634 A    
C29   C61   1.407272 A    
O7    C6    1.326366 A    
C43   C51   1.398200 A    
C130  N18   1.438117 S    
C9    O21   1.349732 S    
C164  H69   1.110351 S    
C151  H39   1.076844 S    
C72   C127  1.427703 A    
C33   H26   1.083142 S    
C33   C97   1.407680 A    
O10   C2    1.333058 A    
N24   O75   1.301559 A    
C37   C101  1.407143 A    
N1    C57   1.447628 S    
N19   O65   1.300298 A    
C114  C122  1.420230 A    
C133  N21   1.439484 S    
C54   C62   1.402708 A    
C42   C98   1.405496 A    
C154  H45   1.108342 S    
C49   C57   1.403385 A    
C118  C126  1.419470 A    
C9    N1    1.367648 A    
O17   V3    1.759740 S    
C24   C96   1.422330 A    
O18   V4    1.759741 S    
O12   V1    1.978008 S    
O19   V1    1.765993 S    
C114  C145  1.410266 A    
C29   C37   1.407592 A    
C31   C39   1.411279 A    
C135  N23   1.438055 S    
C38   H29   1.082835 S    
O38   C155  1.415863 S    
C1    C104  1.488207 S    
C55   H15   1.082685 S    
O8    V1    1.982302 S    
C65   C73   1.410657 A    
C2    C103  1.488126 S    
C46   H6    1.083172 S    
C158  H53   1.110232 S    
C26   C34   1.406444 A    
O1    V3    1.983734 S    
N1    C17   1.371230 A    
O2    V4    1.983731 S    
O37   C153  1.412612 S    
N4    C20   1.368310 A    
N5    C21   1.370442 A    
C39   C103  1.409043 A    
C40   C104  1.409072 A    
C47   C55   1.399109 A    
N8    C24   1.369438 A    
C23   O36   1.348215 S    
C11   O23   1.349735 S    
C12   N4    1.365423 A    
C13   N5    1.367383 A    
C162  H63   1.110037 S    
N17   O62   1.301337 A    
C72   C96   1.412306 A    
N10   O48   1.300686 A    
O8    C5    1.326342 A    
N21   O70   1.301300 A    
N2    C58   1.448718 S    
C109  C133  1.423039 A    
C147  H35   1.075446 S    
N18   O63   1.301329 A    
C45   C101  1.408443 A    
C93   C142  1.417805 A    
C67   C124  1.429741 A    
N4    C60   1.443806 S    
N15   O58   1.300799 A    
C142  N14   1.431588 S    
N14   O56   1.300558 A    
C65   C122  1.423402 A    
C85   H21   1.083252 S    
C31   O44   1.387539 S    
C166  H73   1.108698 S    
C69   C126  1.421812 A    
O43   C165  1.413823 S    
C13   C77   1.405403 A    
C152  H40   1.076841 S    
C111  C135  1.429068 A    
C159  H57   1.112023 S    
N20   O68   1.300301 A    
N11   O50   1.300883 A    
O14   C6    1.330510 A    
C70   C94   1.412649 A    
C27   C35   1.412261 A    
C12   C76   1.406212 A    
C18   O29   1.347255 S    
C31   C63   1.405499 A    
C81   C145  1.389766 A    
C4    C101  1.490589 S    
C159  C160  1.518786 S    
C10   N2    1.368589 A    
C26   O37   1.381518 S    
C85   C149  1.390664 A    
C8    C97   1.490065 S    
C28   C36   1.412212 A    
C9    C73   1.405093 A    
C82   H18   1.083321 S    
C26   C58   1.409441 A    
C157  H51   1.112050 S    
C134  N22   1.438173 S    
C32   C40   1.411190 A    
C35   C99   1.404947 A    
C15   C79   1.405518 A    
C140  N12   1.430640 S    
C161  H62   1.116346 S    
C14   O26   1.349659 S    
C73   C81   1.399214 A    
N22   O71   1.301431 A    
C163  C164  1.525517 S    
C162  H65   1.110181 S    
C116  C147  1.412927 A    
N16   O60   1.300799 A    
C44   C52   1.398237 A    
C51   C59   1.402023 A    
C77   C85   1.399837 A    
C79   C87   1.395762 A    
C120  C151  1.412732 A    
C48   C56   1.399123 A    
C161  C162  1.518518 S    
C7    C98   1.483789 S    
C133  C141  1.411556 A    
C132  N20   1.438440 S    
C43   C99   1.404877 A    
C69   C77   1.410712 A    
N10   O47   1.300672 A    
C41   C97   1.407732 A    
C34   C98   1.405051 A    
O11   C3    1.330717 A    
C166  H75   1.109862 S    
C38   C102  1.404786 A    
C28   O39   1.384925 S    
C115  C123  1.425935 A    
N12   O52   1.300887 A    
C130  C138  1.411848 A    
C113  C121  1.420948 A    
C165  H71   1.116730 S    
N17   O61   1.301364 A    
N13   O54   1.300218 A    
C83   C147  1.386908 A    
C116  C124  1.425900 A    
C117  C125  1.419883 A    
C15   N7    1.365445 A    
O11   V2    1.978005 S    
N5    C61   1.446216 S    
C16   N8    1.365432 A    
C120  C128  1.423859 A    
C50   H10   1.082940 S    
C27   C59   1.407638 A    
C41   C49   1.400540 A    
C44   H4    1.083193 S    
C71   C128  1.427692 A    
C54   H14   1.082895 S    
O7    V2    1.982300 S    
C160  H58   1.110054 S    
C36   H27   1.082686 S    
C167  H77   1.116708 S    
C112  C136  1.429087 A    
C42   H2    1.083093 S    
C168  H79   1.110375 S    
C106  C113  1.428512 A    
N2    C18   1.371236 A    
N8    C64   1.443736 S    
N23   O73   1.301489 A    
C106  C130  1.424309 A    
C160  H59   1.110476 S    
C32   C64   1.405436 A    
C155  H46   1.108890 S    
C167  C168  1.521017 S    
C164  H68   1.110645 S    
C156  H50   1.110448 S    
C14   N6    1.367159 A    
C144  N16   1.432044 S    
C106  C122  1.414101 A    
C153  H41   1.115346 S    
N24   O76   1.301491 A    
C90   C137  1.417973 A    
C110  C126  1.413415 A    
O4    C1    1.328359 A    
C16   C80   1.405578 A    
C3    C102  1.481975 S    
C154  H44   1.110421 S    
C22   O33   1.348045 S    
C53   C61   1.402824 A    
C46   C102  1.404938 A    
N19   O66   1.301481 A    
C17   O30   1.347552 S    
C76   C84   1.394477 A    
C117  C150  1.410120 A    
C163  H67   1.105862 S    
O13   V3    1.984130 S    
C66   C121  1.423628 A    
O14   V4    1.984127 S    
C86   H22   1.083286 S    
C80   C88   1.395774 A    
N6    C22   1.370184 A    
C70   C125  1.422244 A    
C42   C50   1.400685 A    
C137  N9    1.430977 S    
C68   C76   1.410820 A    
C71   C95   1.412301 A    
C156  H48   1.109306 S    
C18   C90   1.423499 A    
C92   C139  1.411375 A    
O3    V4    1.977492 S    
C20   O31   1.348153 S    
C39   H32   1.082263 S    
O4    V3    1.977489 S    
C105  C121  1.413924 A    
C14   C78   1.405532 A    
N9    O45   1.300797 A    
C160  H60   1.110245 S    
C5    C100  1.482208 S    
C111  C120  1.431058 A    
C84   H20   1.083476 S    
C112  C119  1.431116 A    
N11   O49   1.300765 A    
C25   O38   1.384570 S    
C115  C148  1.412971 A    
C30   C38   1.410964 A    
O44   C167  1.413878 S    
C68   C123  1.429739 A    
C113  C146  1.410351 A    
C143  N15   1.432056 S    
N21   O69   1.301349 A    
C37   H30   1.082960 S    
C66   C74   1.410727 A    
C17   C89   1.423164 A    
C35   H28   1.082654 S    
N18   O64   1.301424 A    
O39   C157  1.415093 S    
C164  H70   1.109161 S    
C111  C127  1.417482 A    
C112  C128  1.417476 A    
N7    C63   1.443740 S    
C25   C33   1.407314 A    
O3    C2    1.328308 A    
C46   C54   1.398368 A    
C29   O42   1.384008 S    
O40   C159  1.415164 S    
O9    V1    1.993752 S    
O15   C7    1.330565 A    
O16   C8    1.332322 A    
C47   H7    1.082987 S    
C48   H8    1.082986 S    
C45   C53   1.400465 A    
C110  C117  1.426710 A    
O5    V1    1.973160 S    
C36   C100  1.404928 A    
N3    C59   1.443771 S    
C110  C134  1.423266 A    
C68   C92   1.411561 A    
O13   C5    1.330546 A    
C129  N17   1.439485 S    
C146  H34   1.079192 S    
C67   C91   1.411560 A    
C158  H54   1.110456 S    
C65   C89   1.412167 A    
N9    O46   1.300078 A    
O42   C163  1.416277 S    
C150  H38   1.079663 S    
N7    C23   1.369447 A    
C23   C95   1.422378 A    
C157  H52   1.116302 S    
C32   O43   1.387362 S    
C51   H11   1.082862 S    
N23   O74   1.301564 A    
C49   H9    1.082597 S    
C136  N24   1.438054 S    
C135  C143  1.409744 A    
O41   C161  1.414843 S    
C52   H12   1.082859 S    
C53   H13   1.082586 S    
C70   C78   1.410986 A    
C67   C75   1.410857 A    
C43   H3    1.083190 S    
C89   C138  1.417271 A    
C71   C79   1.410820 A    
O9    C1    1.333045 A    
C56   H16   1.082667 S    
N22   O72   1.301168 A    
C41   H1    1.082942 S    
C162  H64   1.110464 S    
C107  C116  1.432663 A    
C157  C158  1.518757 S    
N3    C19   1.368303 A    
C21   O34   1.346249 S    
C40   H31   1.082299 S    
C105  C114  1.427306 A    
C19   O32   1.348134 S    
C52   C60   1.401996 A    
C82   C146  1.390425 A    
C148  H36   1.075407 S    
C119  C127  1.423884 A    
C86   C150  1.390867 A    
C87   C151  1.387827 A    
C10   C74   1.405802 A    
C107  C123  1.419866 A    
N14   O55   1.300793 A    
C22   C94   1.423236 A    
O20   V2    1.765994 S    
C25   C57   1.409114 A    
C166  H74   1.110353 S    
O5    C8    1.329052 A    
C108  C124  1.419941 A    
O6    C7    1.327710 A    
C109  C125  1.413923 A    
C48   C104  1.406675 A    
C165  H72   1.111591 S    
N13   O53   1.300630 A    
C45   H5    1.082846 S    
C108  C132  1.432861 A    
C159  H56   1.116313 S    
C74   C82   1.400164 A    
C44   C100  1.404937 A    
C87   H23   1.083427 S    
N20   O67   1.301479 A    
C88   H24   1.083425 S    
C78   C86   1.400297 A    
C47   C103  1.406576 A    
C50   C58   1.405233 A    
C95   C144  1.413634 A    
