data_mof_unit_49553.cif
_audit_creation_date              2013-03-05T16:15:21-0500
_audit_creation_method            fapswitch 2.2
_symmetry_space_group_name_H-M    P1
_symmetry_Int_Tables_number       1
_space_group_crystal_system       triclinic
_cell_length_a                    27.807169
_cell_length_b                    10.613332
_cell_length_c                    9.406238
_cell_angle_alpha                 89.603621
_cell_angle_beta                  90.18283
_cell_angle_gamma                 89.970716
_cell_volume                      2775.95117803

loop_
_atom_site_label
_atom_site_type_symbol
_atom_site_description
_atom_site_fract_x
_atom_site_fract_y
_atom_site_fract_z
_atom_type_partial_charge
O1    O     O_R   0.500020 0.316850 0.620870 -0.588493
O2    O     O_R   0.499980 0.683150 0.379130 -0.588530
O3    O     O_R   0.500000 0.316860 0.379090 -0.582187
O4    O     O_R   0.500000 0.683140 0.620910 -0.582113
C1    C     C_R   0.500013 0.259372 0.500472 0.787057
C2    C     C_R   0.499988 0.740628 0.499528 0.787118
O5    O     O_R   0.430270 0.500020 0.620880 -0.584209
O6    O     O_R   0.569730 0.499980 0.379120 -0.584209
O7    O     O_R   0.430250 0.500030 0.379090 -0.586904
O8    O     O_R   0.569750 0.499970 0.620910 -0.586776
C3    C     C_R   0.407494 0.500225 0.499783 0.822510
C4    C     C_R   0.592499 0.499781 0.500213 0.821864
Cu1   Cu    Cu3+1 0.500010 0.499990 0.643150 0.933476
Cu2   Cu    Cu3+1 0.499990 0.500010 0.356850 0.933371
C5    C     C_R   0.177950 0.395218 0.465809 0.601173
C6    C     C_R   0.821763 0.608598 0.509925 0.593626
O9    O     O_2   0.202823 0.289718 0.434757 -0.529201
O10   O     O_2   0.796733 0.717252 0.518917 -0.521610
N1    N     N_R   0.201998 0.503266 0.498903 -0.457727
N2    N     N_R   0.797868 0.496661 0.500693 -0.457027
C7    C     C_R   0.178089 0.611706 0.532085 0.553656
C8    C     C_R   0.821838 0.384629 0.490603 0.562252
C9    C     C_R   0.278681 0.501928 0.368798 0.546980
C10   C     C_R   0.721391 0.507129 0.630599 0.548992
C11   C     C_R   0.329031 0.498962 0.369956 -0.303404
C12   C     C_R   0.670981 0.510176 0.629260 -0.306258
C13   C     C_R   0.328968 0.504950 0.627729 -0.220139
C14   C     C_R   0.670956 0.485770 0.372983 -0.216828
C15   C     C_R   0.278861 0.505562 0.627045 -0.179908
C16   C     C_R   0.721055 0.485035 0.373603 -0.192733
C17   C     C_R   0.253578 0.503093 0.498186 0.260886
C18   C     C_R   0.746338 0.496723 0.501670 0.271518
C19   C     C_R   0.101850 0.503551 0.498579 -0.114748
C20   C     C_R   0.897964 0.497089 0.499291 -0.114190
C21   C     C_R   0.127575 0.393245 0.464982 -0.001128
C22   C     C_R   0.872134 0.611020 0.509899 -0.009311
C23   C     C_R   0.102638 0.283467 0.430186 -0.153704
C24   C     C_R   0.896959 0.725090 0.519087 -0.147340
C25   C     C_R   0.127303 0.614741 0.532313 -0.125178
C26   C     C_R   0.872617 0.381936 0.489352 -0.125203
C27   C     C_R   0.354522 0.501320 0.499194 -0.105343
C28   C     C_R   0.645459 0.498586 0.500784 -0.101060
H1    H     H_    0.347637 0.506938 0.728916 0.167785
H2    H     H_    0.652244 0.476452 0.272448 0.164260
H3    H     H_    0.259555 0.507490 0.726819 0.165437
H4    H     H_    0.740356 0.475847 0.274382 0.153916
H5    H     H_    0.121620 0.198868 0.399543 0.167242
H6    H     H_    0.877881 0.813982 0.524236 0.195604
C29   C     C_R   0.974864 0.384772 0.482299 -0.028408
C30   C     C_R   0.024983 0.614502 0.525889 -0.029716
C31   C     C_R   0.973967 0.614570 0.516374 0.090145
C32   C     C_R   0.025801 0.387831 0.471994 0.094580
C33   C     C_R   0.949079 0.498773 0.499015 0.071068
C34   C     C_R   0.050727 0.502107 0.498563 0.071448
C35   C     C_R   0.948862 0.270678 0.478960 -0.300375
C36   C     C_R   0.051151 0.723049 0.564282 -0.299471
C37   C     C_R   0.898603 0.268193 0.479100 0.518122
C38   C     C_R   0.101401 0.725009 0.565054 0.517824
O11   O     O_2   0.796376 0.276785 0.481919 -0.494056
O12   O     O_2   0.203614 0.716029 0.563281 -0.496172
C39   C     C_R   0.052785 0.280464 0.433709 -0.206690
C40   C     C_R   0.946843 0.727115 0.522004 -0.206483
H7    H     H_    0.652000 0.522451 0.728555 0.162091
H8    H     H_    0.347950 0.494916 0.269613 0.164894
H9    H     H_    0.966659 0.180456 0.481454 0.151411
H10   H     H_    0.033576 0.807749 0.599472 0.158047
H11   H     H_    0.036319 0.193171 0.401687 0.130225
H12   H     H_    0.963166 0.819152 0.524944 0.139128
C41   C     C_3   0.500086 0.039448 0.635474 -0.139913
C42   C     C_3   0.499916 0.960552 0.364525 -0.140077
C43   C     C_3   0.539553 0.957289 0.567140 -0.161377
C44   C     C_3   0.460449 0.042709 0.432859 -0.162364
H13   H     H_    0.571896 0.919063 0.621905 0.137239
H14   H     H_    0.428106 0.080933 0.378094 0.136611
H15   H     H_    0.500161 0.074357 0.746467 0.130077
H16   H     H_    0.499841 0.925642 0.253532 0.130028
C45   C     C_3   0.499994 0.877563 0.498608 0.018109
C46   C     C_3   0.500008 0.122436 0.501391 0.018343
C47   C     C_3   0.460527 0.957425 0.566821 -0.165348
C48   C     C_3   0.539475 0.042575 0.433178 -0.164509
H17   H     H_    0.428250 0.919301 0.621329 0.134484
H18   H     H_    0.571752 0.080700 0.378670 0.134195
C49   C     C_3   0.508103 0.611836 0.049641 -0.035446
C50   C     C_3   0.491897 0.388163 0.950360 -0.035446
C51   C     C_3   0.467106 0.574370 0.948389 -0.037398
C52   C     C_3   0.532894 0.425630 0.051612 -0.037139
H19   H     H_    0.439466 0.636929 0.899845 0.112318
H20   H     H_    0.560536 0.363076 0.100157 0.110553
H21   H     H_    0.515036 0.706079 0.095799 0.113390
H22   H     H_    0.484963 0.293920 0.904201 0.113296
N3    N     N_3   0.500040 0.499970 0.858290 -0.154511
N4    N     N_3   0.499960 0.500030 0.141710 -0.154494
C53   C     C_3   0.541041 0.537423 0.949687 -0.037635
C54   C     C_3   0.458959 0.462577 0.050315 -0.038132
H23   H     H_    0.575572 0.569245 0.902761 0.114849
H24   H     H_    0.424427 0.430762 0.097252 0.116626
O13   O     O_3   0.746724 0.523097 0.755927 -0.564759
C55   C     C_3   0.743158 0.411884 0.838065 -0.312769
H25   H     H_    0.755639 0.328062 0.777756 0.189454
H26   H     H_    0.705860 0.397224 0.877148 0.148814
H27   H     H_    0.766810 0.421164 0.932598 0.195199
O14   O     O_3   0.253761 0.496133 0.241711 -0.564659
C56   C     C_3   0.252876 0.617571 0.180163 -0.315304
H28   H     H_    0.289673 0.649717 0.151194 0.154132
H29   H     H_    0.235387 0.686892 0.251837 0.178786
H30   H     H_    0.231321 0.613994 0.080839 0.203701
O15   O     O_3   0.875215 0.153031 0.481620 -0.534349
C57   C     C_3   0.878270 0.097843 0.345904 -0.239183
H31   H     H_    0.915662 0.067736 0.321956 0.128102
H32   H     H_    0.864575 0.162555 0.261227 0.160606
H33   H     H_    0.855392 0.012253 0.344862 0.204115
O16   O     O_3   0.124869 0.832817 0.609459 -0.532046
C58   C     C_3   0.122997 0.923594 0.499344 -0.226796
H34   H     H_    0.085817 0.959897 0.483717 0.121291
H35   H     H_    0.137365 0.885763 0.397751 0.158533
H36   H     H_    0.145995 0.004359 0.530030 0.209930

loop_
_geom_bond_atom_site_label_1
_geom_bond_atom_site_label_2
_geom_bond_distance
_ccdc_geom_bond_type
C13   C15   1.393356 A    
C30   C34   1.416349 A    
C12   H7    1.082901 S    
N1    C17   1.434345 S    
O13   C55   1.409949 S    
C51   N3    1.481195 S    
C5    N1    1.365103 A    
C49   N4    1.482125 S    
C19   C25   1.413804 A    
O1    C1    1.290053 A    
N1    C7    1.367297 A    
C50   C52   1.537407 S    
C44   C47   1.546384 S    
C32   C39   1.413418 A    
C52   H20   1.110462 S    
C9    O14   1.381579 S    
C49   C53   1.536748 S    
C57   H31   1.111802 S    
C14   C28   1.404951 A    
O4    Cu1   1.953616 S    
C41   C43   1.545695 S    
C13   C27   1.405082 A    
O16   C58   1.410510 S    
C4    C28   1.472719 S    
C36   C38   1.397464 A    
C44   C46   1.531524 S    
O15   C57   1.411001 S    
C36   H10   1.077587 S    
C41   H15   1.110234 S    
C50   N3    1.482132 S    
C23   H5    1.082561 S    
C24   H6    1.083579 S    
O6    C4    1.301389 A    
C58   H36   1.108997 S    
C51   H19   1.110455 S    
C53   H23   1.109912 S    
Cu1   Cu2   2.693002 S    
Cu1   N3    2.023655 S    
C42   C45   1.533314 S    
C41   C46   1.533315 S    
O2    C2    1.290053 A    
C31   C40   1.413752 A    
C50   H22   1.109868 S    
C5    C21   1.400934 A    
C43   C48   1.546388 S    
C35   H9    1.077730 S    
C32   C34   1.420507 A    
C45   C47   1.531527 S    
C49   H21   1.109868 S    
C42   C48   1.545686 S    
C10   O13   1.382845 S    
C7    O12   1.348990 S    
C44   H14   1.110227 S    
C11   C27   1.405621 A    
C8    O11   1.348999 S    
C43   H13   1.110226 S    
C2    C45   1.453311 S    
C29   C35   1.411161 A    
C25   C38   1.410248 A    
C14   H2    1.083057 S    
C30   C36   1.411401 A    
C15   H3    1.082981 S    
C31   C33   1.420918 A    
C11   H8    1.083123 S    
C9    C17   1.405083 A    
O5    C3    1.301519 A    
O7    Cu2   1.951186 S    
C10   C18   1.404027 A    
C52   C53   1.537588 S    
N3    C53   1.481853 S    
C51   C54   1.537593 S    
C39   H11   1.078012 S    
C7    C25   1.412594 A    
C6    N2    1.364659 A    
C29   C32   1.420396 A    
C8    C26   1.412389 A    
N4    C54   1.481849 S    
C30   C31   1.421148 A    
C56   H29   1.113966 S    
C50   C54   1.536757 S    
C54   H24   1.109941 S    
O7    C3    1.301482 A    
Cu2   N4    2.023655 S    
O3    Cu2   1.953615 S    
O8    C4    1.301421 A    
C48   H18   1.110228 S    
C49   C51   1.537400 S    
N2    C8    1.366835 A    
C55   H26   1.112138 S    
C35   C37   1.397830 A    
C42   H16   1.110235 S    
C38   O16   1.383897 S    
C41   C47   1.545684 S    
O4    C2    1.290818 A    
O1    Cu1   1.956433 S    
C43   C45   1.531523 S    
C12   C28   1.405666 A    
C47   H17   1.110224 S    
C58   H34   1.112119 S    
N2    C18   1.432957 S    
C19   C34   1.421656 A    
C5    O9    1.349987 S    
O6    Cu2   1.949888 S    
C26   C37   1.410648 A    
C21   C23   1.396458 A    
C16   H4    1.083051 S    
C10   C12   1.402125 A    
O3    C1    1.290818 A    
O8    Cu1   1.951186 S    
C23   C39   1.387164 A    
C55   H27   1.109274 S    
C57   H33   1.109358 S    
C40   H12   1.077832 S    
C22   C24   1.397003 A    
C15   C17   1.399676 A    
C52   N4    1.481192 S    
C6    C22   1.400925 A    
C16   C18   1.399116 A    
C29   C33   1.416062 A    
C14   C16   1.393120 A    
C19   C21   1.409925 A    
C20   C22   1.410390 A    
C57   H32   1.114160 S    
C3    C27   1.473048 S    
C56   H30   1.109270 S    
C46   C48   1.531529 S    
C9    C11   1.400432 A    
O14   C56   1.409426 S    
O2    Cu2   1.956432 S    
C13   H1    1.083043 S    
O5    Cu1   1.949888 S    
C20   C33   1.421490 A    
C6    O10   1.349949 S    
C55   H25   1.114272 S    
C56   H28   1.112898 S    
C37   O15   1.384905 S    
C20   C26   1.414641 A    
C42   C44   1.545691 S    
C24   C40   1.387492 A    
C1    C46   1.453314 S    
C58   H35   1.114274 S    
