data_mof_unit_44227.cif
_audit_creation_date              2012-12-11T14:19:29-0500
_audit_creation_method            fapswitch 2.2
_symmetry_space_group_name_H-M    P1
_symmetry_Int_Tables_number       1
_space_group_crystal_system       triclinic
_cell_length_a                    19.434931
_cell_length_b                    7.227115
_cell_length_c                    17.803293
_cell_angle_alpha                 90.493455
_cell_angle_beta                  107.491229
_cell_angle_gamma                 91.39209
_cell_volume                      2383.96604821

loop_
_atom_site_label
_atom_site_type_symbol
_atom_type_description
_atom_site_fract_x
_atom_site_fract_y
_atom_site_fract_z
_atom_type_partial_charge
O1    O     O_R   0.414820 0.494320 0.416790 -0.538191
O2    O     O_R   0.585180 0.994320 0.583210 -0.530036
O3    O     O_R   0.560270 0.819500 0.430140 -0.524377
O4    O     O_R   0.439730 0.319500 0.569860 -0.536866
C1    C     C_R   0.579878 0.656105 0.413276 0.763635
C2    C     C_R   0.419965 0.154264 0.586478 0.755613
O5    O     O_R   0.413840 0.823740 0.407440 -0.546636
O6    O     O_R   0.586160 0.323740 0.592560 -0.550541
O7    O     O_R   0.437710 0.998590 0.560350 -0.523224
O8    O     O_R   0.562290 0.498590 0.439650 -0.539529
C3    C     C_R   0.386769 0.649728 0.386053 0.724939
C4    C     C_R   0.614144 0.157696 0.612015 0.738223
O9    O     O_3   0.508000 0.662290 0.550200 -0.360407
O10   O     O_3   0.492000 0.162290 0.449800 -0.377393
V1    V     V_3+5 0.498520 0.935380 0.490690 1.518367
V2    V     V_3+5 0.501480 0.435380 0.509310 1.496755
C5    C     C_2   0.782964 0.260184 0.792146 -0.132541
C6    C     C_2   0.230770 0.730498 0.193486 -0.120131
C7    C     C_2   0.817130 0.104792 0.822237 -0.319790
C8    C     C_2   0.169305 0.634038 0.188573 -0.306533
H1    H     H_    0.805045 0.393936 0.817536 0.151770
H2    H     H_    0.235403 0.801593 0.141617 0.144586
H3    H     H_    0.791979 0.970850 0.800728 0.144555
H4    H     H_    0.158665 0.575471 0.239545 0.116049
C9    C     C_2   0.710431 0.258234 0.731828 -0.155253
C10   C     C_2   0.294123 0.748789 0.266123 -0.172672
C11   C     C_2   0.689636 0.152616 0.665026 0.011745
C12   C     C_2   0.318467 0.614495 0.319824 -0.003420
H5    H     H_    0.671952 0.352971 0.743060 0.142801
H6    H     H_    0.327098 0.874103 0.270361 0.147589
C13   C     C_R   0.317944 0.275508 0.626188 -0.223878
C14   C     C_R   0.681022 0.516679 0.376615 -0.230094
C15   C     C_R   0.371182 0.143319 0.636551 -0.158237
C16   C     C_R   0.628121 0.650797 0.362392 -0.161535
C17   C     C_R   0.377308 0.004612 0.693817 0.386602
C18   C     C_R   0.622469 0.779097 0.301115 0.390909
C19   C     C_R   0.325549 0.990678 0.736345 -0.080412
C20   C     C_R   0.675125 0.784041 0.259724 -0.077791
C21   C     C_R   0.272652 0.129974 0.725286 -0.030468
C22   C     C_R   0.727542 0.643294 0.274649 -0.027621
C23   C     C_R   0.269744 0.271630 0.670482 0.160988
C24   C     C_R   0.729534 0.509929 0.332655 0.158975
C25   C     C_R   0.323509 0.845211 0.789460 0.444280
C26   C     C_R   0.678505 0.922534 0.204205 0.446317
C27   C     C_R   0.275057 0.849704 0.833557 -0.212574
C28   C     C_R   0.727036 0.908056 0.160509 -0.211635
C29   C     C_R   0.225262 0.989922 0.824414 0.021963
C30   C     C_R   0.776180 0.765512 0.173070 0.021063
C31   C     C_R   0.222224 0.128534 0.768951 0.049572
C32   C     C_R   0.778460 0.635317 0.231745 0.051165
C33   C     C_R   0.168362 0.264313 0.756443 0.109171
C34   C     C_R   0.832144 0.498900 0.248305 0.111489
C35   C     C_R   0.168530 0.405523 0.702277 -0.192927
C36   C     C_R   0.831062 0.365584 0.305425 -0.187233
C37   C     C_R   0.218235 0.408516 0.660021 -0.138104
C38   C     C_R   0.780740 0.371562 0.346893 -0.139545
C39   C     C_R   0.178161 0.990994 0.870104 -0.206712
C40   C     C_R   0.823385 0.753651 0.127655 -0.202155
C41   C     C_R   0.124369 0.122785 0.859104 -0.109211
C42   C     C_R   0.876903 0.620298 0.142458 -0.110460
C43   C     C_R   0.115699 0.254408 0.797859 0.089916
C44   C     C_R   0.885582 0.500424 0.207864 0.092865
H7    H     H_    0.313909 0.382671 0.582869 0.131784
H8    H     H_    0.684696 0.416892 0.422737 0.134553
H9    H     H_    0.275115 0.738874 0.874286 0.168275
H10   H     H_    0.727833 0.013345 0.117694 0.168173
H11   H     H_    0.183426 0.887138 0.914999 0.136241
H12   H     H_    0.818246 0.849717 0.079906 0.140626
H13   H     H_    0.130714 0.516366 0.691808 0.133805
H14   H     H_    0.868645 0.254147 0.318753 0.132464
H15   H     H_    0.216285 0.519107 0.618733 0.115874
H16   H     H_    0.782081 0.267189 0.390663 0.119321
O11   O     O_R   0.937810 0.773680 0.060480 -0.535396
O12   O     O_R   0.062190 0.273680 0.939520 -0.541540
O13   O     O_R   0.086190 0.439740 0.092580 -0.540455
O14   O     O_R   0.913810 0.939740 0.907420 -0.543876
C45   C     C_R   0.110869 0.611972 0.114974 0.735359
C46   C     C_R   0.886757 0.105929 0.886286 0.735570
O15   O     O_R   0.939760 0.444210 0.069890 -0.547224
O16   O     O_R   0.060240 0.944210 0.930110 -0.541732
O17   O     O_R   0.914790 0.269640 0.916760 -0.536705
O18   O     O_R   0.085210 0.769640 0.083240 -0.534007
C47   C     C_R   0.922241 0.612324 0.088297 0.691266
C48   C     C_R   0.078037 0.113669 0.912061 0.695087
O19   O     O_3   0.992050 0.601530 0.949880 -0.383197
O20   O     O_3   0.007950 0.101530 0.050120 -0.377088
V3    V     V_3+5 0.001480 0.328340 0.009300 1.402239
V4    V     V_3+5 0.998520 0.828340 0.990700 1.408283
C49   C     C_3   0.047941 0.370018 0.771407 -0.355540
C50   C     C_3   0.998511 0.304429 0.690882 -0.787463
H17   H     H_    0.025498 0.317784 0.644415 0.232344
H18   H     H_    0.981642 0.157278 0.693661 0.226596
H19   H     H_    0.949410 0.389017 0.674054 0.220742
H20   H     H_    0.014183 0.361209 0.811167 0.202529
H21   H     H_    0.062608 0.519174 0.770635 0.173811
C51   C     C_3   0.954198 0.389894 0.239608 -0.352245
C52   C     C_3   0.000950 0.466368 0.319576 -0.799635
H22   H     H_    0.016215 0.613700 0.314151 0.227517
H23   H     H_    0.972651 0.456502 0.365003 0.234735
H24   H     H_    0.051085 0.386322 0.339783 0.215979
H25   H     H_    0.940599 0.240940 0.243420 0.174788
H26   H     H_    0.989777 0.395415 0.201717 0.196443
C53   C     C_3   0.741760 0.034659 0.637459 -0.348711
C54   C     C_3   0.743174 0.087079 0.554813 -0.790362
H27   H     H_    0.690014 0.057325 0.510469 0.229462
H28   H     H_    0.757599 0.236448 0.553429 0.220169
H29   H     H_    0.784186 0.005017 0.538344 0.216290
H30   H     H_    0.798101 0.050570 0.675921 0.201322
H31   H     H_    0.725191 0.886359 0.637184 0.181573
C55   C     C_3   0.276963 0.424884 0.310603 -0.357543
C56   C     C_3   0.315027 0.249277 0.346845 -0.660590
H32   H     H_    0.363577 0.226599 0.327671 0.252512
H33   H     H_    0.328315 0.252834 0.412035 0.208948
H34   H     H_    0.277458 0.128486 0.326106 0.181152
H35   H     H_    0.231533 0.440081 0.335664 0.164117
H36   H     H_    0.256298 0.387211 0.247098 0.214470
Cl1   Cl    Cl    0.456764 0.873761 0.718481 -0.535383
Cl2   Cl    Cl    0.541989 0.905276 0.269208 -0.541945
Cl3   Cl    Cl    0.373432 0.641246 0.800160 -0.534707
Cl4   Cl    Cl    0.631313 0.131189 0.191364 -0.532843

loop_
_geom_bond_atom_site_label_1
_geom_bond_atom_site_label_2
_ccdc_geom_bond_type
O15   C47   A    
C49   H21   S    
C51   H26   S    
C56   H32   S    
O1    C3    A    
O16   C48   A    
C35   H13   S    
C2    O7    A    
O15   V3    S    
C52   H22   S    
C21   C23   A    
O5    C3    A    
C8    C45   S    
C45   O18   A    
C17   C19   A    
O14   C46   A    
C28   H10   S    
C44   C51   S    
C15   C17   A    
C42   C47   S    
C22   C32   A    
C39   C41   A    
C26   Cl4   S    
C40   C42   A    
C42   C44   A    
C27   C29   A    
C11   C53   S    
C49   H20   S    
C55   C56   S    
C54   H27   S    
C24   C38   A    
C6    C10   S    
C23   C37   A    
C8    H4    S    
C26   C28   A    
C38   H16   S    
C33   C43   A    
C32   C34   A    
C13   C15   A    
C53   H30   S    
O12   V3    S    
C18   Cl2   S    
O14   V4    S    
C16   C18   A    
C34   C36   A    
C30   C32   A    
O2    C4    A    
O6    V2    S    
C51   H25   S    
C1    C16   S    
C39   H11   S    
C54   H28   S    
O4    V2    S    
C52   H23   S    
C43   C49   S    
C28   C30   A    
C35   C37   A    
C9    H5    S    
C36   C38   A    
C41   C43   A    
C4    C11   S    
C13   H7    S    
C41   C48   S    
C14   H8    S    
C29   C31   A    
O20   V3    S    
C12   C55   S    
C5    H1    S    
C31   C33   A    
C33   C35   A    
C14   C16   A    
C19   C25   A    
C7    C46   S    
C7    H3    S    
O11   V4    S    
C20   C26   A    
C29   C39   A    
C25   C27   A    
C50   H18   S    
C36   H14   S    
O6    C4    A    
C51   C52   S    
C56   H33   S    
O1    V2    S    
O2    V1    S    
O13   C45   A    
O17   V3    S    
O13   V3    S    
C21   C31   A    
C10   H6    S    
C27   H9    S    
C17   Cl1   S    
O4    C2    A    
C55   H36   S    
C52   H24   S    
O3    V1    S    
C50   H19   S    
O19   V4    S    
C40   H12   S    
C13   C23   A    
C6    H2    S    
O12   C48   A    
C22   C24   A    
O3    C1    A    
C30   C40   A    
C9    C11   D    
C10   C12   D    
C2    C15   S    
C53   H31   S    
C5    C9    S    
C18   C20   A    
O7    V1    S    
C1    O8    A    
O16   V4    S    
O8    V2    S    
C20   C22   A    
C46   O17   A    
C50   H17   S    
C3    C12   S    
O18   V4    S    
O5    V1    S    
C5    C7    D    
C56   H34   S    
C6    C8    D    
C19   C21   A    
O9    V2    S    
C53   C54   S    
C14   C24   A    
O10   V1    S    
C34   C44   A    
C49   C50   S    
C55   H35   S    
O11   C47   A    
C54   H29   S    
C37   H15   S    
C25   Cl3   S    
