data_mof_unit_24895.cif
_audit_creation_date              2013-03-05T15:49:31-0500
_audit_creation_method            fapswitch 2.2
_symmetry_space_group_name_H-M    P1
_symmetry_Int_Tables_number       1
_space_group_crystal_system       triclinic
_cell_length_a                    10.652012
_cell_length_b                    12.000784
_cell_length_c                    12.846203
_cell_angle_alpha                 93.998354
_cell_angle_beta                  91.112343
_cell_angle_gamma                 83.332021
_cell_volume                      1626.97807985

loop_
_atom_site_label
_atom_site_type_symbol
_atom_site_description
_atom_site_fract_x
_atom_site_fract_y
_atom_site_fract_z
_atom_type_partial_charge
O1    O     O_R   0.506170 0.421700 0.658830 -0.652257
O2    O     O_R   0.493830 0.578300 0.341170 -0.652223
O3    O     O_R   0.491330 0.609310 0.646410 -0.577554
O4    O     O_R   0.508670 0.390690 0.353590 -0.577629
C1    C     C_R   0.499118 0.522516 0.700578 0.887538
C2    C     C_R   0.500882 0.477484 0.299422 0.887511
O5    O     O_R   0.690650 0.406190 0.506220 -0.646315
O6    O     O_R   0.309350 0.593810 0.493780 -0.646347
O7    O     O_R   0.675800 0.593810 0.493800 -0.570236
O8    O     O_R   0.324200 0.406190 0.506200 -0.570159
C3    C     C_R   0.740665 0.494827 0.489579 0.892131
C4    C     C_R   0.259335 0.505173 0.510418 0.892162
Zn1   Zn    Zn3+2 0.509910 0.374730 0.508290 0.994916
Zn2   Zn    Zn3+2 0.490090 0.625270 0.491710 0.994902
H1    H     H_    0.843609 0.805859 0.298240 0.185674
H2    H     H_    0.156378 0.194148 0.701763 0.185677
C5    C     C_R   0.920774 0.289169 0.536312 -0.203715
C6    C     C_R   0.079226 0.710829 0.463673 -0.203695
C7    C     C_R   0.993249 0.213989 0.599039 0.366638
C8    C     C_R   0.006746 0.786012 0.400953 0.366759
C9    C     C_R   0.100354 0.248567 0.650424 -0.182468
C10   C     C_R   0.899638 0.751436 0.349571 -0.182316
C11   C     C_R   0.140520 0.351330 0.631223 -0.177657
C12   C     C_R   0.859476 0.648672 0.368771 -0.177616
C13   C     C_R   0.073091 0.422813 0.561206 0.112111
C14   C     C_R   0.926907 0.577187 0.438784 0.112122
C15   C     C_R   0.954740 0.398485 0.524105 0.036470
C16   C     C_R   0.045260 0.601514 0.475883 0.036480
C17   C     C_R   0.123511 0.516227 0.525293 -0.191671
C18   C     C_R   0.876488 0.483773 0.474697 -0.191686
H3    H     H_    0.842324 0.258555 0.493405 0.207246
H4    H     H_    0.157679 0.741442 0.506576 0.207230
C19   C     C_R   0.503587 0.463395 0.187940 -0.050604
C20   C     C_R   0.496414 0.536606 0.812060 -0.050520
C21   C     C_R   0.425546 0.642553 0.969824 -0.197530
C22   C     C_R   0.574458 0.357448 0.030177 -0.197494
C23   C     C_R   0.438681 0.635927 0.862515 -0.130478
C24   C     C_R   0.561324 0.364075 0.137486 -0.130458
C25   C     C_R   0.544231 0.445129 0.867931 -0.262070
C26   C     C_R   0.455769 0.554871 0.132069 -0.262038
C27   C     C_R   0.530142 0.450324 0.974379 0.170985
C28   C     C_R   0.469860 0.549676 0.025621 0.171001
H5    H     H_    0.599662 0.293582 0.181083 0.195028
H6    H     H_    0.400350 0.706422 0.818918 0.194941
H7    H     H_    0.379497 0.719044 0.008818 0.158373
H8    H     H_    0.620509 0.280958 0.991182 0.158375
N1    N     N_R   0.523130 0.207800 0.519340 -0.164293
N2    N     N_R   0.476870 0.792200 0.480660 -0.164295
C29   C     C_R   0.396579 0.955035 0.391229 -0.140222
C30   C     C_R   0.603398 0.044967 0.608783 -0.140272
C31   C     C_R   0.404673 0.839271 0.403228 -0.050614
C32   C     C_R   0.595277 0.160736 0.596802 -0.050645
C33   C     C_R   0.543866 0.857333 0.548480 0.425752
C34   C     C_R   0.456193 0.142658 0.451481 0.425875
C35   C     C_R   0.537344 0.975312 0.539940 -0.065762
C36   C     C_R   0.462670 0.024685 0.460049 -0.065772
H9    H     H_    0.646824 0.213331 0.649862 0.152408
H10   H     H_    0.353085 0.786681 0.350196 0.152402
H11   H     H_    0.338126 0.989169 0.328545 0.219197
H12   H     H_    0.661820 0.010837 0.671486 0.219143
N3    N     N_R   0.958563 0.103033 0.609915 0.224392
O9    O     O_R   0.014250 0.039678 0.679316 -0.360489
O10   O     O_R   0.875709 0.062104 0.546944 -0.364991
N4    N     N_R   0.041426 0.896971 0.390082 0.224358
O11   O     O_R   0.985735 0.960325 0.320681 -0.360530
O12   O     O_R   0.124266 0.937905 0.453062 -0.365140
H13   H     H_    0.225794 0.374159 0.670349 0.155878
H14   H     H_    0.774198 0.625848 0.329648 0.155871
H15   H     H_    0.409686 0.631150 0.171704 0.157249
H16   H     H_    0.590313 0.368850 0.828296 0.157235
N5    N     N_R   0.378123 0.194414 0.372534 0.213719
O13   O     O_R   0.419232 0.187827 0.277384 -0.411637
O14   O     O_R   0.257460 0.217822 0.388648 -0.355317
N6    N     N_R   0.622182 0.805539 0.627268 0.213737
O15   O     O_R   0.581158 0.811695 0.722433 -0.411456
O16   O     O_R   0.742880 0.782551 0.611061 -0.355315

loop_
_geom_bond_atom_site_label_1
_geom_bond_atom_site_label_2
_geom_bond_distance
_ccdc_geom_bond_type
C35   C36   1.407381 A    
H2    C9    1.082515 S    
C4    C17   1.452568 S    
C20   C23   1.398755 A    
C27   C28   1.412929 A    
C33   N6    1.428706 S    
C25   C27   1.374866 A    
O5    C3    1.276226 A    
N6    O16   1.300933 A    
O1    C1    1.283367 A    
C16   C17   1.420272 A    
C7    C9    1.397162 A    
C12   C14   1.414291 A    
H1    C10   1.082517 S    
C11   H13   1.083340 S    
O4    Zn1   2.009409 S    
N3    O10   1.300796 A    
C21   C28   1.398213 A    
N2    C31   1.359311 A    
C34   N5    1.428647 S    
C3    C18   1.452576 S    
C29   C31   1.400984 A    
C30   C32   1.400981 A    
C22   H8    1.083989 S    
C26   C28   1.374867 A    
C15   C18   1.420267 A    
C22   C27   1.398213 A    
O2    C2    1.283366 A    
C33   C35   1.421264 A    
C13   C17   1.406974 A    
N2    C33   1.374674 A    
C34   C36   1.421271 A    
C19   C26   1.394832 A    
C26   H15   1.085603 S    
C20   C25   1.394831 A    
C5    C15   1.420431 A    
C6    C16   1.420431 A    
O4    C2    1.286379 A    
N6    O15   1.300621 A    
N5    O14   1.300827 A    
Zn2   N2    2.006620 S    
C24   H5    1.083074 S    
N4    O12   1.300803 A    
C8    N4    1.439196 S    
O7    Zn2   1.970377 S    
O6    C4    1.276219 A    
C1    C20   1.430764 S    
C31   H10   1.081872 S    
O7    C3    1.301252 A    
O3    Zn2   2.009410 S    
O8    C4    1.301252 A    
N1    C34   1.374669 A    
C8    C10   1.397154 A    
C14   C18   1.406975 A    
C9    C11   1.390623 A    
C5    H3    1.078094 S    
C10   C12   1.390614 A    
O1    Zn1   1.976087 S    
C21   H7    1.083989 S    
Zn1   N1    2.006618 S    
O6    Zn2   2.005493 S    
C21   C23   1.384129 A    
C30   C35   1.408998 A    
O3    C1    1.286381 A    
O8    Zn1   1.970376 S    
N1    C32   1.359307 A    
C13   C15   1.394433 A    
C29   C36   1.409008 A    
C14   C16   1.394438 A    
C19   C24   1.398754 A    
C29   H11   1.082228 S    
C2    C19   1.430763 S    
C30   H12   1.082228 S    
N4    O11   1.301561 A    
C23   H6    1.083076 S    
C22   C24   1.384127 A    
N5    O13   1.300501 A    
C7    N3    1.439201 S    
C5    C7    1.405267 A    
C25   H16   1.085602 S    
C6    C8    1.405267 A    
C11   C13   1.414288 A    
N3    O9    1.301555 A    
O2    Zn2   1.976087 S    
C32   H9    1.081867 S    
C12   H14   1.083343 S    
O5    Zn1   2.005494 S    
C6    H4    1.078083 S    
