data_mof_unit_61008.cif
_audit_creation_date              2012-12-11T14:37:41-0500
_audit_creation_method            fapswitch 2.2
_symmetry_space_group_name_H-M    P1
_symmetry_Int_Tables_number       1
_space_group_crystal_system       triclinic
_cell_length_a                    14.71878
_cell_length_b                    15.677342
_cell_length_c                    6.984122
_cell_angle_alpha                 89.612478
_cell_angle_beta                  80.892012
_cell_angle_gamma                 89.898118
_cell_volume                      1591.23935585

loop_
_atom_site_label
_atom_site_type_symbol
_atom_type_description
_atom_site_fract_x
_atom_site_fract_y
_atom_site_fract_z
_atom_type_partial_charge
O1    O     O_R   0.337080 0.165770 0.524980 -0.539387
O2    O     O_R   0.662920 0.834230 0.475020 -0.533835
O3    O     O_R   0.662920 0.665770 0.475020 -0.538612
O4    O     O_R   0.337080 0.334230 0.524980 -0.566617
O5    O     O_R   0.348340 0.341430 0.191390 -0.532096
O6    O     O_R   0.651660 0.658570 0.808610 -0.555389
O7    O     O_R   0.651660 0.841430 0.808610 -0.557615
O8    O     O_R   0.348340 0.158570 0.191390 -0.554399
O9    O     O_R   0.165780 0.339950 0.082750 -0.532612
O10   O     O_R   0.834220 0.660050 0.917250 -0.538432
O11   O     O_R   0.834220 0.839950 0.917250 -0.536405
O12   O     O_R   0.165780 0.160050 0.082750 -0.532840
C1    C     C_R   0.370556 0.363663 0.355253 0.681235
C2    C     C_R   0.630522 0.635304 0.644171 0.640341
C3    C     C_R   0.629864 0.864431 0.643698 0.661372
C4    C     C_R   0.370082 0.135416 0.356425 0.670303
O13   O     O_3   0.191540 0.250000 0.407620 -0.339884
O14   O     O_3   0.808460 0.750000 0.592380 -0.340667
V1    V     V_3+5 0.262540 0.250000 0.108780 1.546121
V2    V     V_3+5 0.737460 0.750000 0.891220 1.518429
O15   O     O_R   0.154530 0.164290 0.756910 -0.506801
O16   O     O_R   0.845470 0.835710 0.243090 -0.508006
O17   O     O_R   0.845470 0.664290 0.243090 -0.518882
O18   O     O_R   0.154530 0.335710 0.756910 -0.521651
C5    C     C_R   0.133566 0.132457 0.932058 0.848905
C6    C     C_R   0.867641 0.866623 0.067280 0.826349
C7    C     C_R   0.865484 0.631989 0.069688 0.850971
C8    C     C_R   0.133625 0.367910 0.931420 0.833784
V3    V     V_3+5 0.240320 0.250000 0.616280 1.590837
V4    V     V_3+5 0.759680 0.750000 0.383720 1.594688
O19   O     O_3   0.311330 0.250000 0.867310 -0.409854
O20   O     O_3   0.688670 0.750000 0.132690 -0.402505
C9    C     C_3   0.004003 0.456235 0.168191 -0.262068
C10   C     C_3   0.993261 0.543646 0.838595 -0.273018
C11   C     C_3   0.935996 0.011895 0.885970 -0.271196
C12   C     C_3   0.066948 0.985987 0.111885 -0.233702
C13   C     C_3   0.020685 0.553146 0.136000 0.405046
C14   C     C_3   0.975991 0.446701 0.870959 0.374310
C15   C     C_3   0.961004 0.073926 0.040886 0.336232
C16   C     C_3   0.041701 0.923892 0.957774 0.357205
H1    H     H_    0.008778 0.420672 0.303741 0.241544
H2    H     H_    0.988752 0.579222 0.702905 0.241981
H3    H     H_    0.878736 0.024780 0.804724 0.217974
H4    H     H_    0.124063 0.973511 0.193751 0.241164
C17   C     C_3   0.934823 0.560989 0.038536 -0.321786
C18   C     C_3   0.062967 0.438879 0.966912 -0.306162
C19   C     C_3   0.064249 0.060825 0.966542 -0.303556
C20   C     C_3   0.938454 0.937101 0.031806 -0.301851
C21   C     C_3   0.917319 0.464684 0.069387 0.391750
C22   C     C_3   0.079525 0.535808 0.938093 0.396466
C23   C     C_3   0.040408 0.998368 0.813534 0.443159
C24   C     C_3   0.962781 0.999347 0.184532 0.417853
C25   C     C_2   0.320001 0.530567 0.530249 0.413558
C26   C     C_2   0.391095 0.732411 0.583776 0.481016
C27   C     C_2   0.749196 0.136053 0.535107 0.497002
C28   C     C_2   0.644734 0.246606 0.215233 0.532294
C29   C     C_2   0.384352 0.578442 0.593513 0.060176
C30   C     C_2   0.416225 0.659056 0.492281 0.015971
C31   C     C_2   0.681404 0.133626 0.427620 0.010173
C32   C     C_2   0.629247 0.211918 0.393538 0.029191
Cl1   Cl    Cl    0.417061 0.834297 0.481950 -0.656840
Cl2   Cl    Cl    0.267858 0.555707 0.326678 -0.562125
Cl3   Cl    Cl    0.590956 0.340083 0.148181 -0.697172
Cl4   Cl    Cl    0.786404 0.229520 0.636683 -0.434534
C33   C     C_3   0.469423 0.658958 0.287235 -0.314601
C34   C     C_3   0.514628 0.573158 0.227125 -0.678041
H5    H     H_    0.558485 0.551369 0.332902 0.233160
H6    H     H_    0.462134 0.523910 0.214235 0.234975
H7    H     H_    0.558890 0.579707 0.084445 0.236262
H8    H     H_    0.422729 0.677480 0.183623 0.238887
H9    H     H_    0.524841 0.707317 0.276046 0.217790
C35   C     C_3   0.418188 0.553103 0.779257 -0.418038
C36   C     C_3   0.474757 0.470990 0.756240 -0.748101
H10   H     H_    0.530280 0.475120 0.629202 0.223474
H11   H     H_    0.429961 0.415795 0.739229 0.235226
H12   H     H_    0.506677 0.459643 0.887547 0.273923
H13   H     H_    0.460551 0.605003 0.826067 0.170053
H14   H     H_    0.359149 0.543850 0.897534 0.269909
C37   C     C_3   0.563814 0.254042 0.555606 -0.313403
C38   C     C_3   0.540901 0.199961 0.740026 -0.687545
H15   H     H_    0.602884 0.188858 0.808239 0.239425
H16   H     H_    0.490127 0.234319 0.846546 0.245847
H17   H     H_    0.510914 0.137824 0.707045 0.199486
H18   H     H_    0.593486 0.315823 0.592210 0.252177
H19   H     H_    0.498190 0.267184 0.502910 0.171769
C39   C     C_3   0.656095 0.048827 0.348977 -0.415027
C40   C     C_3   0.670905 0.047055 0.127735 -0.701762
H20   H     H_    0.618855 0.087287 0.071408 0.201711
H21   H     H_    0.663166 0.980684 0.078255 0.218932
H22   H     H_    0.741010 0.069766 0.067344 0.255892
H23   H     H_    0.698841 0.997334 0.398874 0.198021
H24   H     H_    0.582891 0.034349 0.405926 0.188183
Cl5   Cl    Cl    0.049699 0.625584 0.312255 -0.440028
Cl6   Cl    Cl    0.944714 0.376643 0.693744 -0.447291
Cl7   Cl    Cl    0.908309 0.175150 0.095995 -0.491788
Cl8   Cl    Cl    0.094940 0.822889 0.903237 -0.415614
Cl9   Cl    Cl    0.809490 0.417313 0.161162 -0.452328
Cl10  Cl    Cl    0.180641 0.595841 0.865913 -0.506828
Cl11  Cl    Cl    0.103334 0.994882 0.575478 -0.525834
Cl12  Cl    Cl    0.905245 0.998186 0.426216 -0.625775

loop_
_geom_bond_atom_site_label_1
_geom_bond_atom_site_label_2
_ccdc_geom_bond_type
O10   C7    A    
C34   H6    S    
C40   H20   S    
C32   C37   S    
C27   C31   D    
O13   V3    S    
C36   H10   S    
C10   H2    S    
V1    O19   S    
C14   C21   S    
C8    C18   S    
C39   H23   S    
C26   C30   D    
C37   H18   S    
C34   H7    S    
C9    C21   S    
C33   H8    S    
C12   C19   S    
O4    C1    A    
O18   V3    S    
C35   H14   S    
O9    V1    S    
O10   V2    S    
O14   V4    S    
O17   C7    A    
C11   H3    S    
C5    C19   S    
O5    C1    A    
O4    V3    S    
C12   C24   S    
C6    C20   S    
C7    C17   S    
O7    C3    A    
C15   C24   S    
C31   C32   S    
O8    C4    A    
C9    C18   S    
C36   H11   S    
C16   Cl8   S    
C38   H17   S    
C11   C20   S    
C23   Cl11  S    
O11   V2    S    
C10   C22   S    
O8    V1    S    
C22   Cl10  S    
O17   V4    S    
C12   C16   S    
C38   H16   S    
O1    C4    A    
C25   C29   D    
C39   C40   S    
C38   H15   S    
C19   C23   S    
O11   C6    A    
C33   H9    S    
O15   V3    S    
C24   Cl12  S    
C9    C13   S    
C28   C32   D    
O3    V4    S    
C11   C15   S    
C35   H13   S    
O6    C2    A    
C25   Cl2   S    
C30   C33   S    
C17   C21   S    
C27   Cl4   S    
C14   Cl6   S    
O1    V3    S    
C28   Cl3   S    
C13   Cl5   S    
C10   C17   S    
O2    C3    A    
C15   Cl7   S    
O3    C2    A    
O7    V2    S    
C40   H21   S    
C11   C23   S    
C36   H12   S    
C12   H4    S    
C13   C17   S    
C37   H19   S    
C15   C19   S    
V2    O20   S    
C16   C20   S    
O15   C5    A    
O16   V4    S    
C10   C14   S    
O18   C8    A    
C35   C36   S    
O5    V1    S    
C26   Cl1   S    
C16   C23   S    
O6    V2    S    
C18   C22   S    
O12   C5    A    
O2    V4    S    
C9    H1    S    
C31   C39   S    
V3    O19   S    
C39   H24   S    
V4    O20   S    
C13   C22   S    
C29   C30   S    
O12   V1    S    
O13   V1    S    
C34   H5    S    
O14   V2    S    
C29   C35   S    
C14   C18   S    
C21   Cl9   S    
C37   C38   S    
C20   C24   S    
C33   C34   S    
O16   C6    A    
C40   H22   S    
O9    C8    A    
