data_mof_unit_11771.cif
_audit_creation_date              2012-12-10T18:50:02-0500
_audit_creation_method            fapswitch 2.2
_symmetry_space_group_name_H-M    P1
_symmetry_Int_Tables_number       1
_space_group_crystal_system       triclinic
_cell_length_a                    10.704041
_cell_length_b                    9.902334
_cell_length_c                    10.636186
_cell_angle_alpha                 90.163419
_cell_angle_beta                  91.410552
_cell_angle_gamma                 90.036985
_cell_volume                      1127.03591931

loop_
_atom_site_label
_atom_site_type_symbol
_atom_type_description
_atom_site_fract_x
_atom_site_fract_y
_atom_site_fract_z
_atom_type_partial_charge
C1    C     C_R   0.260067 0.499965 0.499859 0.867660
C2    C     C_3   0.617549 0.427482 0.930889 -0.404894
C3    C     C_R   0.063114 0.381263 0.468839 -0.185505
C4    C     C_R   0.064838 0.618662 0.530964 -0.187054
C5    C     C_R   0.935110 0.381337 0.468832 -0.156851
C6    C     C_R   0.936856 0.618734 0.530942 -0.189481
C7    C     C_R   0.872416 0.500036 0.500008 -0.029282
C8    C     C_R   0.127529 0.499931 0.499930 -0.032647
C9    C     C_R   0.584103 0.072634 0.573925 0.030462
C10   C     C_R   0.578080 0.928558 0.580751 0.048152
C11   C     C_R   0.420765 0.928027 0.421964 -0.093478
C12   C     C_R   0.418710 0.071330 0.424149 -0.091440
C13   C     C_R   0.499364 0.500111 0.257766 0.834668
C14   C     C_R   0.739877 0.500025 0.500115 0.853347
C15   C     C_R   0.499909 0.500311 0.742286 0.822924
C16   C     C_3   0.496940 0.648317 0.071827 -0.384890
C17   C     C_3   0.381890 0.425708 0.069030 -0.406744
C18   C     C_3   0.499769 0.648227 0.929268 -0.374708
C19   C     C_3   0.381001 0.427782 0.924587 -0.381271
C20   C     C_3   0.618588 0.429763 0.075224 -0.385506
C21   C     C_3   0.499178 0.500838 0.121354 0.164552
C22   C     C_3   0.499490 0.500956 0.878829 0.158003
H1    H     H_    0.579133 0.705828 0.109772 0.192409
H2    H     H_    0.381689 0.319114 0.102060 0.181601
H3    H     H_    0.357260 0.873875 0.359204 0.136904
H4    H     H_    0.353342 0.124998 0.363344 0.133098
H5    H     H_    0.410986 0.701112 0.102618 0.175440
H6    H     H_    0.295529 0.474704 0.103392 0.157350
H7    H     H_    0.417449 0.705005 0.891157 0.186210
H8    H     H_    0.295583 0.480450 0.888504 0.161918
H9    H     H_    0.585752 0.701038 0.899724 0.214676
H10   H     H_    0.377528 0.322196 0.888416 0.186953
H11   H     H_    0.703312 0.484019 0.111358 0.161601
H12   H     H_    0.623642 0.324319 0.111055 0.187678
H13   H     H_    0.703484 0.477236 0.896475 0.159777
H14   H     H_    0.618451 0.320738 0.898005 0.183651
H15   H     H_    0.111250 0.289208 0.443601 0.158091
H16   H     H_    0.114344 0.710744 0.556038 0.165847
H17   H     H_    0.885596 0.289362 0.443472 0.180337
H18   H     H_    0.888850 0.710925 0.555844 0.161013
N1    N     N_R   0.499970 0.857200 0.499970 -0.134091
N2    N     N_R   0.499970 0.142800 0.499970 -0.136273
O1    O     O_R   0.316750 0.614620 0.499990 -0.623387
O2    O     O_R   0.316750 0.385380 0.499990 -0.620586
O3    O     O_R   0.499970 0.614670 0.314790 -0.624042
O4    O     O_R   0.499970 0.385330 0.314790 -0.624243
O5    O     O_R   0.683220 0.614710 0.500010 -0.650660
O6    O     O_R   0.683220 0.385290 0.500010 -0.639963
O7    O     O_R   0.500010 0.614660 0.685200 -0.646834
O8    O     O_R   0.500010 0.385340 0.685200 -0.649373
Zn1   Zn    Zn3+2 0.499980 0.653120 0.500000 0.927962
Zn2   Zn    Zn3+2 0.499980 0.346880 0.500000 0.930784
C23   C     C_2   0.686980 0.146043 0.639913 0.497900
H19   H     H_    0.670552 0.238864 0.689416 0.094318
O9    O     O_2   0.793840 0.103085 0.637759 -0.590885
C24   C     C_2   0.649596 0.857432 0.681899 0.424437
H20   H     H_    0.685283 0.757351 0.669382 0.111947
O10   O     O_2   0.667536 0.910685 0.784490 -0.607582

loop_
_geom_bond_atom_site_label_1
_geom_bond_atom_site_label_2
_ccdc_geom_bond_type
C2    H13   S    
C2    C22   S    
O8    Zn2   S    
C11   C12   A    
C14   O5    A    
N1    Zn1   S    
C16   H1    S    
C1    C8    S    
C10   C24   S    
C9    C10   A    
C1    O2    A    
C4    C8    A    
C20   H12   S    
O2    Zn2   S    
C16   H5    S    
C23   O9    D    
C13   C21   S    
C15   C22   S    
C18   H7    S    
C23   H19   S    
C24   H20   S    
C10   N1    A    
C13   O3    A    
C17   H6    S    
O1    Zn1   S    
C9    N2    A    
C16   C21   S    
C14   O6    A    
C20   H11   S    
C4    C6    A    
C17   C19   S    
C24   O10   D    
C11   N1    A    
C6    C7    A    
C15   O7    A    
C13   O4    A    
C6    H18   S    
C17   H2    S    
C9    C23   S    
O3    Zn1   S    
C12   N2    A    
O4    Zn2   S    
O6    Zn2   S    
C19   C22   S    
C20   C21   S    
C3    H15   S    
C16   C18   S    
C3    C8    A    
C15   O8    A    
C2    H14   S    
C5    C7    A    
C5    H17   S    
C11   H3    S    
C4    H16   S    
O5    Zn1   S    
C18   H9    S    
C3    C5    A    
C18   C22   S    
C19   H8    S    
C2    C20   S    
C19   H10   S    
C1    O1    A    
C7    C14   S    
C17   C21   S    
C12   H4    S    
O7    Zn1   S    
N2    Zn2   S    
