data_mof_unit_34682.cif
_audit_creation_date              2012-12-10T20:42:36-0500
_audit_creation_method            fapswitch 2.2
_symmetry_space_group_name_H-M    P1
_symmetry_Int_Tables_number       1
_space_group_crystal_system       triclinic
_cell_length_a                    8.885119
_cell_length_b                    10.691422
_cell_length_c                    9.901923
_cell_angle_alpha                 90.008819
_cell_angle_beta                  90.071654
_cell_angle_gamma                 90.105375
_cell_volume                      940.626448494

loop_
_atom_site_label
_atom_site_type_symbol
_atom_type_description
_atom_site_fract_x
_atom_site_fract_y
_atom_site_fract_z
_atom_type_partial_charge
C1    C     C_R   0.506348 0.260215 0.500181 0.872303
C2    C     C_R   0.600324 0.936994 0.388409 -0.047636
C3    C     C_R   0.538428 0.871152 0.500095 -0.136114
C4    C     C_R   0.502362 0.936719 0.616643 0.022241
C5    C     C_3   0.373939 0.929992 0.715016 -0.310666
C6    C     C_3   0.385814 0.072170 0.722816 -0.281816
C7    C     C_R   0.386591 0.442643 0.071801 0.183333
C8    C     C_R   0.619590 0.544306 0.071782 -0.045110
C9    C     C_R   0.619879 0.543830 0.928226 -0.027696
C10   C     C_R   0.383029 0.447063 0.929476 0.167974
C11   C     C_3   0.218810 0.486140 0.933491 -0.208750
C12   C     C_R   0.218882 0.500191 0.499922 0.983523
C13   C     C_3   0.223936 0.470494 0.086747 -0.553947
C14   C     C_R   0.511573 0.739426 0.499592 0.961214
C15   C     C_R   0.781162 0.500142 0.500081 0.932183
C16   C     C_1   0.065506 0.500306 0.499891 -0.123647
C17   C     C_1   0.934563 0.500290 0.500110 -0.124828
C18   C     C_R   0.510266 0.063480 0.621308 0.087705
C19   C     C_R   0.533367 0.129249 0.502397 -0.116679
C20   C     C_R   0.591003 0.067454 0.388784 -0.237451
H1    H     H_    0.202485 0.557219 0.145582 0.257461
H2    H     H_    0.162168 0.387498 0.126000 0.210259
H3    H     H_    0.407108 0.880525 0.808929 0.180929
H4    H     H_    0.287200 0.122891 0.681591 0.174465
N1    N     N_R   0.499010 0.499140 0.142800 -0.100584
N2    N     N_R   0.499010 0.499180 0.857150 -0.121174
O1    O     O_R   0.500020 0.316790 0.614690 -0.585645
O2    O     O_R   0.500000 0.316760 0.385350 -0.627632
O3    O     O_R   0.285350 0.500020 0.614650 -0.591865
O4    O     O_R   0.285340 0.499980 0.385310 -0.631242
O5    O     O_R   0.500000 0.683240 0.614650 -0.629082
O6    O     O_R   0.499980 0.683210 0.385310 -0.588830
O7    O     O_R   0.714660 0.500020 0.614690 -0.608272
O8    O     O_R   0.714650 0.499980 0.385350 -0.612467
Zn1   Zn    Zn3+2 0.500010 0.500020 0.653130 1.022351
Zn2   Zn    Zn3+2 0.499990 0.499980 0.346870 1.000429
H5    H     H_    0.626449 0.120199 0.300839 0.204546
C21   C     C_2   0.110108 0.395042 0.868641 0.987432
O9    O     O_2   0.976376 0.399682 0.897493 -0.605155
O10   O     O_R   0.160712 0.307613 0.774812 -0.811642
H6    H     H_    0.075773 0.254580 0.737069 0.345116
C22   C     C_2   0.672995 0.875239 0.271410 0.955514
O11   O     O_2   0.754973 0.784937 0.288945 -0.636508
O12   O     O_R   0.652787 0.923765 0.141500 -0.776105
H7    H     H_    0.708572 0.874101 0.070170 0.351333
C23   C     C_2   0.222331 0.890460 0.659052 0.989753
O13   O     O_2   0.211517 0.837534 0.550026 -0.622769
O14   O     O_R   0.092776 0.917435 0.733417 -0.766474
H8    H     H_    0.997409 0.888082 0.686723 0.359621
C24   C     C_2   0.435145 0.118606 0.859903 1.034111
O15   O     O_2   0.560235 0.164264 0.876273 -0.589163
O16   O     O_R   0.335233 0.109962 0.968365 -0.763742
H9    H     H_    0.379472 0.144257 0.055285 0.343168
H10   H     H_    0.714980 0.582851 0.125420 0.182314
H11   H     H_    0.715411 0.582069 0.874591 0.176692
C25   C     C_2   0.191301 0.621258 0.894135 0.937503
O17   O     O_2   0.100036 0.647216 0.805966 -0.609549
O18   O     O_R   0.265204 0.716846 0.964435 -0.804893
H12   H     H_    0.221252 0.802249 0.944949 0.373657

loop_
_geom_bond_atom_site_label_1
_geom_bond_atom_site_label_2
_ccdc_geom_bond_type
C9    N2    A    
C7    C10   A    
C24   O16   S    
C9    H11   S    
C12   O3    A    
C1    O2    A    
C5    C23   S    
O3    Zn1   S    
C15   O8    A    
C19   C20   A    
C5    H3    S    
O4    Zn2   S    
C14   O5    A    
C6    H4    S    
C10   N2    A    
C24   O15   D    
C4    C18   A    
O16   H9    S    
O12   H7    S    
C21   O10   S    
C20   H5    S    
C11   C13   S    
C5    C6    S    
C3    C14   S    
C22   O12   S    
C2    C22   S    
O14   H8    S    
O6    Zn2   S    
O5    Zn1   S    
O10   H6    S    
O7    Zn1   S    
C25   O18   S    
C13   H2    S    
C2    C3    A    
O8    Zn2   S    
C21   O9    D    
C6    C18   S    
C23   O14   S    
C1    C19   S    
C16   C17   T    
C10   C11   S    
N1    Zn2   S    
C2    C20   A    
C3    C4    A    
N2    Zn1   S    
C7    C13   S    
C13   H1    S    
C25   O17   D    
O2    Zn2   S    
C15   C17   S    
C18   C19   A    
C22   O11   D    
C8    H10   S    
C1    O1    A    
C23   O13   D    
C4    C5    S    
C11   C21   S    
O1    Zn1   S    
O18   H12   S    
C12   O4    A    
C15   O7    A    
C8    N1    A    
C6    C24   S    
C11   C25   S    
C12   C16   S    
C14   O6    A    
C8    C9    A    
C7    N1    A    
