data_mof_unit_54609.cif
_audit_creation_date              2012-12-11T16:44:20-0500
_audit_creation_method            fapswitch 2.2
_symmetry_space_group_name_H-M    P1
_symmetry_Int_Tables_number       1
_space_group_crystal_system       triclinic
_cell_length_a                    27.021377
_cell_length_b                    7.201439
_cell_length_c                    22.933562
_cell_angle_alpha                 89.977775
_cell_angle_beta                  101.764859
_cell_angle_gamma                 90.139976
_cell_volume                      4368.94320806

loop_
_atom_site_label
_atom_site_type_symbol
_atom_type_description
_atom_site_fract_x
_atom_site_fract_y
_atom_site_fract_z
_atom_type_partial_charge
O1    O     O_R   0.707300 0.594030 0.176840 -0.534792
O2    O     O_R   0.292700 0.405970 0.823160 -0.533676
O3    O     O_R   0.792700 0.094030 0.323160 -0.532939
O4    O     O_R   0.207300 0.905970 0.676840 -0.533081
O5    O     O_R   0.697330 0.262360 0.295660 -0.520302
O6    O     O_R   0.302670 0.737640 0.704340 -0.528288
O7    O     O_R   0.802670 0.762360 0.204340 -0.517996
O8    O     O_R   0.197330 0.237640 0.795660 -0.533549
C1    C     C_R   0.684368 0.431508 0.311319 0.675844
C2    C     C_R   0.315754 0.568003 0.688932 0.709013
C3    C     C_R   0.815584 0.931739 0.188552 0.683385
C4    C     C_R   0.184066 0.067515 0.810646 0.716335
O9    O     O_R   0.701410 0.264250 0.175600 -0.533602
O10   O     O_R   0.298590 0.735750 0.824400 -0.522735
O11   O     O_R   0.798590 0.764250 0.324400 -0.532943
O12   O     O_R   0.201410 0.235750 0.675600 -0.528334
O13   O     O_R   0.796800 0.094950 0.202240 -0.530918
O14   O     O_R   0.203200 0.905050 0.797760 -0.539573
O15   O     O_R   0.703200 0.594950 0.297760 -0.543719
O16   O     O_R   0.296800 0.405050 0.702240 -0.543930
C5    C     C_R   0.689658 0.432132 0.153387 0.727309
C6    C     C_R   0.310502 0.567657 0.846541 0.731520
C7    C     C_R   0.810276 0.932448 0.346632 0.725721
C8    C     C_R   0.189598 0.067313 0.653489 0.736477
O17   O     O_3   0.781290 0.427390 0.258880 -0.358194
O18   O     O_3   0.218710 0.572610 0.741120 -0.372992
O19   O     O_3   0.718710 0.927390 0.241120 -0.372904
O20   O     O_3   0.281290 0.072610 0.758880 -0.368718
V1    V     V_3+5 0.744190 0.152150 0.248350 1.516942
V2    V     V_3+5 0.255810 0.847850 0.751650 1.521280
V3    V     V_3+5 0.755810 0.652150 0.251650 1.514052
V4    V     V_3+5 0.244190 0.347850 0.748350 1.494408
C9    C     C_R   0.155150 0.058771 0.594649 -0.133176
C10   C     C_R   0.845143 0.934143 0.405309 -0.137900
C11   C     C_R   0.344932 0.561905 0.905584 -0.129619
C12   C     C_R   0.654402 0.431651 0.094940 -0.139389
C13   C     C_R   0.143247 0.072133 0.487391 0.744633
C14   C     C_R   0.861386 0.836484 0.508297 0.737960
C15   C     C_R   0.358652 0.616439 0.011773 0.745543
C16   C     C_R   0.635570 0.308357 0.994799 0.736148
C17   C     C_R   0.174547 0.086121 0.543544 -0.269582
C18   C     C_R   0.827946 0.865385 0.454363 -0.257010
C19   C     C_R   0.327126 0.618933 0.955558 -0.259088
C20   C     C_R   0.670058 0.347494 0.047135 -0.252526
C21   C     C_R   0.103521 0.019008 0.589180 -0.104218
C22   C     C_R   0.896759 0.975183 0.410831 -0.125875
C23   C     C_R   0.395445 0.504582 0.912242 -0.090377
C24   C     C_R   0.603308 0.480645 0.089346 -0.125231
C25   C     C_R   0.071439 0.986926 0.532523 -0.016199
C26   C     C_R   0.932840 0.926350 0.463144 -0.012524
C27   C     C_R   0.427734 0.488239 0.969573 -0.013278
C28   C     C_R   0.566030 0.423457 0.039012 -0.009631
C29   C     C_R   0.091726 0.022652 0.481171 -0.166080
C30   C     C_R   0.913899 0.864092 0.513207 -0.165552
C31   C     C_R   0.408975 0.552066 0.019460 -0.164101
C32   C     C_R   0.583435 0.341714 0.990493 -0.162016
C33   C     C_R   0.019607 0.927156 0.525309 -0.044863
C34   C     C_R   0.986771 0.940272 0.467739 -0.050177
C35   C     C_R   0.478649 0.418653 0.978506 -0.040876
C36   C     C_R   0.512377 0.446912 0.034799 -0.047536
C37   C     C_R   0.009695 0.956150 0.417074 -0.169823
C38   C     C_R   0.999732 0.845701 0.572457 -0.148436
C39   C     C_R   0.490412 0.486775 0.084935 -0.173852
C40   C     C_R   0.496682 0.313618 0.934557 -0.161023
C41   C     C_R   0.061035 0.002055 0.424386 0.653473
C42   C     C_R   0.947529 0.821073 0.566499 0.645279
C43   C     C_R   0.439935 0.544737 0.076507 0.660372
C44   C     C_R   0.548585 0.283906 0.939814 0.646737
H1    H     H_    0.907772 0.042657 0.373458 0.118128
H2    H     H_    0.089118 0.018289 0.629713 0.139000
H3    H     H_    0.593590 0.559277 0.125374 0.119503
H4    H     H_    0.409182 0.480122 0.871922 0.125534
H5    H     H_    0.788276 0.832185 0.450662 0.146869
H6    H     H_    0.214212 0.119206 0.547184 0.143168
H7    H     H_    0.709286 0.308240 0.050872 0.146647
H8    H     H_    0.288518 0.666750 0.950936 0.141532
C45   C     C_R   0.854966 0.096897 0.113492 -0.135077
C46   C     C_R   0.147531 0.913969 0.889847 -0.145261
C47   C     C_R   0.645934 0.592242 0.387812 -0.163394
C48   C     C_R   0.353148 0.407504 0.611608 -0.167206
H9    H     H_    0.826594 0.204046 0.111209 0.164359
H10   H     H_    0.177443 0.811738 0.894734 0.130966
H11   H     H_    0.675089 0.697500 0.391352 0.157915
H12   H     H_    0.324829 0.299637 0.609530 0.141329
C49   C     C_R   0.890874 0.116166 0.077719 -0.031143
C50   C     C_R   0.112907 0.902129 0.927422 -0.003668
C51   C     C_R   0.609785 0.610580 0.423272 -0.021071
C52   C     C_R   0.387322 0.393968 0.573507 0.008675
H13   H     H_    0.888768 0.235939 0.048778 0.164066
H14   H     H_    0.116824 0.791099 0.959894 0.156700
H15   H     H_    0.612245 0.728145 0.453157 0.160884
H16   H     H_    0.384422 0.276665 0.543467 0.165312
C53   C     C_R   0.928135 0.980661 0.078108 0.136660
C54   C     C_R   0.074319 0.033914 0.924103 0.127943
C55   C     C_R   0.571659 0.476883 0.421253 0.138295
C56   C     C_R   0.424153 0.531389 0.573333 0.125077
C57   C     C_R   0.928416 0.824864 0.114953 -0.151385
C58   C     C_R   0.070926 0.177648 0.882132 -0.132443
C59   C     C_R   0.570579 0.324193 0.383084 -0.147203
C60   C     C_R   0.425706 0.683722 0.611783 -0.145792
H17   H     H_    0.957123 0.719306 0.115889 0.182500
H18   H     H_    0.040352 0.277020 0.878289 0.186945
H19   H     H_    0.541130 0.220324 0.380955 0.181255
H20   H     H_    0.454633 0.788938 0.612747 0.188954
C61   C     C_R   0.891892 0.800931 0.150102 -0.048280
C62   C     C_R   0.104708 0.188804 0.842827 -0.035754
C63   C     C_R   0.606916 0.302533 0.347606 -0.056737
C64   C     C_R   0.392163 0.698074 0.651137 -0.027023
C65   C     C_R   0.854557 0.940652 0.150453 -0.130234
C66   C     C_R   0.144487 0.057132 0.847434 -0.121710
C67   C     C_R   0.645331 0.439643 0.349201 -0.131390
C68   C     C_R   0.354684 0.558490 0.651018 -0.132079
C69   C     C_R   0.977385 0.839953 0.007451 -0.269340
C70   C     C_R   0.025073 0.177371 0.994352 -0.263282
C71   C     C_R   0.521985 0.336411 0.491533 -0.267236
C72   C     C_R   0.473136 0.672212 0.502099 -0.263139
H21   H     H_    0.958634 0.708530 0.010953 0.205379
H22   H     H_    0.043637 0.308802 0.990211 0.210216
H23   H     H_    0.541111 0.205682 0.488729 0.204754
H24   H     H_    0.454127 0.803077 0.505078 0.207086
C73   C     C_R   0.012601 0.850953 0.970483 0.674907
C74   C     C_R   0.990055 0.166146 0.031715 0.668136
C75   C     C_R   0.486459 0.347624 0.528100 0.670283
C76   C     C_R   0.508766 0.661014 0.465586 0.669719
C77   C     C_R   0.036972 0.020135 0.963594 -0.139595
C78   C     C_R   0.965638 0.996695 0.038651 -0.129539
C79   C     C_R   0.461450 0.516091 0.533737 -0.136685
C80   C     C_R   0.533710 0.492473 0.459955 -0.133434
F1    F     F_    0.081674 0.017900 0.375215 -0.552128
F2    F     F_    0.929776 0.744450 0.612497 -0.557877
F3    F     F_    0.420237 0.585291 0.125058 -0.548466
F4    F     F_    0.564800 0.186370 0.896500 -0.559964
F5    F     F_    0.021617 0.697230 0.940047 -0.664974
F6    F     F_    0.981363 0.319711 0.062399 -0.678195
F7    F     F_    0.477968 0.195139 0.559516 -0.666950
F8    F     F_    0.517698 0.813704 0.434526 -0.674891
F9    F     F_    0.164045 0.104929 0.439228 -0.575777
F10   F     F_    0.842043 0.774143 0.554916 -0.579499
F11   F     F_    0.339382 0.677223 0.058570 -0.576749
F12   F     F_    0.653464 0.229448 0.949467 -0.581214
C81   C     C_2   0.984407 0.892663 0.356748 0.873123
O21   O     O_2   0.960759 0.746498 0.350820 -0.544698
O22   O     O_R   0.988208 0.998698 0.306729 -0.603820
H25   H     H_    0.969022 0.942004 0.268239 0.321459
C82   C     C_2   0.032122 0.753057 0.624291 0.832440
O23   O     O_2   0.066603 0.651835 0.616863 -0.568086
O24   O     O_R   0.022891 0.780459 0.681475 -0.592888
H26   H     H_    0.048094 0.713230 0.713165 0.329646
C83   C     C_2   0.515134 0.434306 0.146575 0.882241
O25   O     O_2   0.537206 0.285791 0.155707 -0.526846
O26   O     O_R   0.512570 0.552708 0.194194 -0.593424
H27   H     H_    0.531015 0.501319 0.233850 0.319025
C84   C     C_2   0.462574 0.201899 0.888794 0.846333
O27   O     O_2   0.427010 0.117394 0.901834 -0.549786
O28   O     O_R   0.471773 0.190104 0.831157 -0.600671
H28   H     H_    0.446486 0.107099 0.804698 0.324294
C85   C     C_2   0.895253 0.627752 0.185296 0.790038
O29   O     O_2   0.861336 0.512545 0.174714 -0.552091
O30   O     O_R   0.939351 0.589259 0.227102 -0.628391
H29   H     H_    0.937902 0.464502 0.247210 0.335195
C86   C     C_2   0.095095 0.331840 0.795397 0.800608
O31   O     O_2   0.080884 0.486649 0.806396 -0.540891
O32   O     O_R   0.100422 0.287802 0.737605 -0.660690
H30   H     H_    0.092689 0.396627 0.709225 0.315060
C87   C     C_2   0.602036 0.136001 0.309276 0.820849
O33   O     O_2   0.564177 0.114911 0.270363 -0.504107
O34   O     O_R   0.638537 0.996447 0.320532 -0.652338
H31   H     H_    0.630137 0.887860 0.292078 0.302100
C88   C     C_2   0.399237 0.857861 0.692540 0.788030
O35   O     O_2   0.397773 0.835857 0.745027 -0.557296
O36   O     O_R   0.409480 0.033232 0.671564 -0.642780
H32   H     H_    0.412376 0.133409 0.703063 0.306157

loop_
_geom_bond_atom_site_label_1
_geom_bond_atom_site_label_2
_ccdc_geom_bond_type
O17   V3    S    
C59   H19   S    
O36   H32   S    
C63   C87   S    
O1    C5    A    
C85   O29   D    
C51   H15   S    
C3    C65   S    
C9    C21   A    
C88   O35   D    
O3    C7    A    
C1    C67   S    
C10   C18   A    
C60   H20   S    
C48   H12   S    
C11   C23   A    
C52   C56   A    
C82   O23   D    
C25   C33   A    
C33   C38   A    
C5    C12   S    
O7    C3    A    
C6    C11   S    
C35   C40   A    
C87   O33   D    
C36   C39   A    
C40   C44   A    
O9    V1    S    
C14   C18   A    
C83   O26   S    
O16   V4    S    
O4    C8    A    
C55   C59   A    
O19   V1    S    
C54   C58   A    
O22   H25   S    
C16   F12   S    
O1    V3    S    
O13   V1    S    
O2    V4    S    
C62   C86   S    
O3    V1    S    
C53   C78   S    
C74   F6    S    
C22   H1    S    
C50   C54   A    
C86   O32   S    
C17   H6    S    
C49   C53   A    
C55   C80   S    
C1    O15   A    
C15   C31   A    
O24   H26   S    
C2    O16   A    
C16   C32   A    
C72   C79   A    
C51   C55   A    
O2    C6    A    
O26   H27   S    
C2    C68   S    
C10   C22   A    
C21   C25   A    
C84   O28   S    
C11   C19   A    
C16   C20   A    
C76   C80   A    
C13   C29   A    
C46   C50   A    
C34   C37   A    
O11   C7    A    
O15   V3    S    
C35   C36   A    
O12   C8    A    
C13   F9    S    
C47   C51   A    
C88   O36   S    
C87   O34   S    
O10   V2    S    
C4    C66   S    
C82   O24   S    
C86   O31   D    
O5    V1    S    
C73   F5    S    
C15   F11   S    
C60   C64   A    
C71   C75   A    
C38   C42   A    
O8    V4    S    
C52   H16   S    
O7    V3    S    
C50   H14   S    
O34   H31   S    
C70   C77   A    
C49   H13   S    
O18   V4    S    
C76   F8    S    
C15   C19   A    
C69   C78   A    
C32   C44   A    
C40   C84   S    
C38   C82   S    
C71   C80   A    
C72   H24   S    
C56   C79   S    
C75   F7    S    
C44   F4    S    
C74   C78   A    
C20   H7    S    
C39   C43   A    
C73   C77   A    
C23   C27   A    
C41   F1    S    
C46   H10   S    
C75   C79   A    
O30   H29   S    
C14   C30   A    
C45   H9    S    
O8    C4    A    
C7    C10   S    
C61   C85   S    
C48   C68   A    
C14   F10   S    
C26   C34   A    
O9    C5    A    
C46   C66   A    
C26   C30   A    
C45   C65   A    
C70   H22   S    
C69   H21   S    
C37   C81   S    
O6    V2    S    
C71   H23   S    
C81   O21   D    
O14   V2    S    
C12   C20   A    
C27   C35   A    
C24   H3    S    
C85   O30   S    
C53   C57   A    
C29   C41   A    
C62   C66   A    
C54   C77   S    
C64   C68   A    
C19   H8    S    
C61   C65   A    
C3    O13   A    
C18   H5    S    
C72   C76   A    
C21   H2    S    
C63   C67   A    
C43   F3    S    
O5    C1    A    
O6    C2    A    
C31   C43   A    
O11   V3    S    
C30   C42   A    
O12   V4    S    
C59   C63   A    
C22   C26   A    
C8    C9    S    
C58   C62   A    
C47   C67   A    
C9    C17   A    
O10   C6    A    
C81   O22   S    
C57   C61   A    
C48   C52   A    
C58   H18   S    
C83   O25   D    
C47   H11   S    
C33   C34   A    
C25   C29   A    
C56   C60   A    
O20   V2    S    
C12   C24   A    
C27   C31   A    
C13   C17   A    
O4    V2    S    
C23   H4    S    
O32   H30   S    
C45   C49   A    
C70   C74   A    
C37   C41   A    
C24   C28   A    
C69   C73   A    
C28   C36   A    
C4    O14   A    
O28   H28   S    
C39   C83   S    
C84   O27   D    
C64   C88   S    
C57   H17   S    
C28   C32   A    
C42   F2    S    
