data_mof_unit_60088.cif
_audit_creation_date              2012-12-11T14:15:48-0500
_audit_creation_method            fapswitch 2.2
_symmetry_space_group_name_H-M    P1
_symmetry_Int_Tables_number       1
_space_group_crystal_system       triclinic
_cell_length_a                    8.195603
_cell_length_b                    15.07423
_cell_length_c                    16.413961
_cell_angle_alpha                 95.95837
_cell_angle_beta                  92.472224
_cell_angle_gamma                 98.98918
_cell_volume                      1988.4543205

loop_
_atom_site_label
_atom_site_type_symbol
_atom_type_description
_atom_site_fract_x
_atom_site_fract_y
_atom_site_fract_z
_atom_type_partial_charge
Ba1   Ba    Ba6+2 0.854080 0.543710 0.461380 1.649717
Ba2   Ba    Ba6+2 0.335760 0.456360 0.538630 1.651200
C1    C     C_3   0.695326 0.882860 0.259814 -0.354235
C2    C     C_R   0.162825 0.486407 0.238779 0.031168
C3    C     C_R   0.108566 0.480002 0.154882 -0.126030
C4    C     C_3   0.136071 0.742145 0.243934 0.337957
C5    C     C_R   0.214898 0.518903 0.096957 0.245658
C6    C     C_R   0.376360 0.560830 0.125206 -0.168354
C7    C     C_R   0.429206 0.566158 0.208400 -0.001792
C8    C     C_R   0.082304 0.518546 0.844736 -0.127167
C9    C     C_R   0.028612 0.511392 0.760690 0.036078
C10   C     C_R   0.976532 0.479026 0.902570 0.243991
C11   C     C_R   0.872078 0.464434 0.734684 -0.295712
C12   C     C_3   0.662294 0.787794 0.285081 0.343471
C13   C     C_R   0.763192 0.430303 0.790913 -0.008272
C14   C     C_R   0.815526 0.436441 0.874238 -0.167845
C15   C     C_R   0.759075 0.233635 0.532210 -0.379811
C16   C     C_3   0.138650 0.772921 0.158659 -0.359574
C17   C     C_R   0.848960 0.174147 0.566048 -0.022907
C18   C     C_R   0.782076 0.082062 0.561915 0.521382
C19   C     C_R   0.634845 0.046092 0.511605 -0.037059
C20   C     C_R   0.560647 0.108031 0.468854 -0.145508
C21   C     C_R   0.615770 0.200827 0.483333 0.015044
C22   C     C_R   0.395497 0.915720 0.466514 0.508255
C23   C     C_3   0.454749 0.330961 0.288228 0.307758
C24   C     C_R   0.335567 0.823208 0.448441 -0.020501
C25   C     C_R   0.583068 0.787499 0.512333 0.039675
C26   C     C_R   0.652902 0.879075 0.521572 -0.161959
C27   C     C_R   0.561109 0.946292 0.499575 -0.058319
C28   C     C_3   0.253300 0.731186 0.643999 0.295772
C29   C     C_R   0.429867 0.759625 0.470866 -0.390067
C30   C     C_3   0.293632 0.832205 0.671179 -0.353984
C31   C     C_3   0.949665 0.270446 0.362112 0.300912
C32   C     C_3   0.919893 0.168325 0.340454 -0.367281
C33   C     C_3   0.733786 0.654788 0.708474 0.310389
C34   C     C_3   0.430842 0.308423 0.195583 -0.381537
C35   C     C_3   0.755136 0.679118 0.801027 -0.379388
C36   C     C_3   0.059323 0.262126 0.763064 0.360667
C37   C     C_3   0.073938 0.235267 0.849498 -0.348001
C38   C     C_3   0.526414 0.211229 0.716204 0.346091
C39   C     C_3   0.489812 0.116558 0.742192 -0.334931
C40   C     C_R   0.320920 0.531220 0.264483 -0.291667
F1    F     F_    0.285791 0.973275 0.457928 -0.697445
F2    F     F_    0.861083 0.031147 0.608666 -0.713781
H1    H     H_    0.740329 0.786451 0.341758 0.089571
H2    H     H_    0.849733 0.635525 0.685937 0.008912
H3    H     H_    0.631151 0.596995 0.694675 0.062881
H4    H     H_    0.827700 0.900855 0.247110 0.151637
H5    H     H_    0.861122 0.734823 0.816673 0.131431
H6    H     H_    0.779045 0.619902 0.831594 0.059572
H7    H     H_    0.640835 0.700982 0.824349 0.126326
H8    H     H_    0.529735 0.772449 0.298191 -0.060120
H9    H     H_    0.665556 0.931906 0.310089 0.066769
H10   H     H_    0.337844 0.348620 0.311759 0.013799
H11   H     H_    0.555497 0.389845 0.301915 0.058507
H12   H     H_    0.385320 0.845343 0.724617 0.126169
H13   H     H_    0.327778 0.251093 0.179890 0.128565
H14   H     H_    0.400829 0.367765 0.166861 0.058888
H15   H     H_    0.546145 0.289718 0.170567 0.127512
H16   H     H_    0.616993 0.887002 0.203859 0.112586
H17   H     H_    0.238539 0.831680 0.157344 0.114804
H18   H     H_    0.142578 0.327304 0.760780 0.077249
H19   H     H_    0.929342 0.271017 0.749787 -0.070074
H20   H     H_    0.203195 0.226630 0.865289 0.149024
H21   H     H_    0.039073 0.288581 0.894133 0.078507
H22   H     H_    0.989999 0.170765 0.853851 0.121899
H23   H     H_    0.346451 0.868776 0.621035 0.067933
H24   H     H_    0.660154 0.225972 0.705474 -0.061176
H25   H     H_    0.452764 0.212345 0.658041 0.093082
H26   H     H_    0.521102 0.066709 0.693039 0.096211
H27   H     H_    0.356484 0.099325 0.753303 0.156375
H28   H     H_    0.037214 0.682557 0.242952 0.094119
H29   H     H_    0.564906 0.112642 0.799281 0.112080
H30   H     H_    0.203992 0.555478 0.864512 0.112007
H31   H     H_    0.461083 0.589100 0.082260 0.093283
H32   H     H_    0.985911 0.444250 0.135315 0.111385
H33   H     H_    0.730508 0.408652 0.917278 0.092664
H34   H     H_    0.179376 0.858578 0.688752 0.147221
H35   H     H_    0.362829 0.535257 0.328380 0.076791
H36   H     H_    0.830705 0.459514 0.670641 0.074469
H37   H     H_    0.778156 0.894953 0.546854 0.210708
H38   H     H_    0.257751 0.722229 0.258837 -0.060557
H39   H     H_    0.463260 0.086122 0.421620 0.169090
H40   H     H_    0.379115 0.688394 0.461191 0.097150
H41   H     H_    0.807161 0.305229 0.538766 0.090537
H42   H     H_    0.161825 0.717024 0.113258 0.083943
H43   H     H_    0.017742 0.792628 0.141571 0.144319
H44   H     H_    0.367875 0.706039 0.626727 0.015126
H45   H     H_    0.834764 0.292670 0.382464 0.003167
H46   H     H_    0.161736 0.719346 0.590587 0.057337
H47   H     H_    0.047149 0.288005 0.412588 0.076493
H48   H     H_    0.813572 0.147969 0.294521 0.119092
H49   H     H_    0.892760 0.133920 0.395911 0.062563
H50   H     H_    0.032038 0.146275 0.314677 0.142322
N1    N     N_2   0.168852 0.516351 0.010780 -0.230123
N2    N     N_2   0.022465 0.481827 0.988782 -0.230492
O1    O     O_2   0.870790 0.455700 0.303190 -0.458279
O2    O     O_2   0.187712 0.176626 0.555090 -0.425959
O3    O     O_3   0.105599 0.194566 0.707386 -0.560712
O4    O     O_3   0.120480 0.453880 0.403310 -0.495588
O5    O     O_3   0.582150 0.607760 0.542240 -0.494302
O6    O     O_2   0.333990 0.280210 0.458400 -0.458361
O7    O     O_3   0.495785 0.255460 0.322747 -0.639138
O8    O     O_2   0.425937 0.440160 0.790843 -0.485751
O9    O     O_3   0.482995 0.273661 0.777945 -0.599685
O10   O     O_3   0.662860 0.618850 0.354340 -0.492070
O11   O     O_2   0.768716 0.561407 0.209661 -0.485965
O12   O     O_3   0.698718 0.730384 0.672607 -0.622233
O13   O     O_3   0.997257 0.310983 0.292200 -0.634972
O14   O     O_3   0.702325 0.726113 0.221718 -0.600496
O15   O     O_2   0.855710 0.719820 0.541650 -0.464072
O16   O     O_3   0.086210 0.664250 0.395340 -0.511099
O17   O     O_2   0.994662 0.822221 0.447840 -0.439512
O18   O     O_3   0.103890 0.812854 0.300652 -0.582879
O19   O     O_2   0.318910 0.544330 0.696860 -0.463197
O20   O     O_3   0.069240 0.546190 0.596700 -0.494730
O21   O     O_3   0.526850 0.381230 0.645670 -0.484791
O22   O     O_3   0.188996 0.688693 0.709920 -0.634539
O23   O     O_3   0.607560 0.392310 0.457770 -0.481966
O24   O     O_3   0.103510 0.335820 0.604670 -0.510409
P1    P     P_3+3 0.037890 0.428670 0.315390 0.984878
P2    P     P_3+3 0.680030 0.705880 0.565670 1.001375
P3    P     P_3+3 0.128760 0.781794 0.399734 1.033510
P4    P     P_3+3 0.151830 0.571400 0.684620 0.985757
P5    P     P_3+3 0.061346 0.218989 0.607693 1.046301
P6    P     P_3+3 0.640830 0.616447 0.247436 0.950043
P7    P     P_3+3 0.514456 0.279895 0.429623 0.964475
P8    P     P_3+3 0.549870 0.382831 0.752433 0.950772

loop_
_geom_bond_atom_site_label_1
_geom_bond_atom_site_label_2
_ccdc_geom_bond_type
C4    H38   S    
N1    N2    D    
C9    C11   A    
C17   C18   A    
C32   H49   S    
C28   H46   S    
C34   H15   S    
C33   H3    S    
C14   H33   S    
C5    C6    A    
O3    P5    S    
C4    H28   S    
C37   H20   S    
C7    C40   A    
C15   C21   A    
C15   H41   S    
C36   O3    S    
C21   P7    S    
C26   C27   A    
C33   C35   S    
C22   C24   A    
O4    P1    S    
C34   H14   S    
C31   H47   S    
Ba1   O16   S    
C36   C37   S    
C35   H7    S    
Ba2   O6    S    
C13   C14   A    
C1    H4    S    
C16   H43   S    
Ba1   Ba2   S    
Ba1   O23   S    
Ba1   P2    S    
C4    O18   S    
O1    P1    D    
C33   O12   S    
C22   C27   A    
Ba2   O20   S    
C25   P2    S    
O2    P5    D    
C12   H8    S    
C10   C14   A    
C6    C7    A    
C39   H26   S    
O17   P3    D    
Ba1   O20   S    
O7    P7    S    
Ba1   O10   S    
C39   H27   S    
C1    H16   S    
C11   H36   S    
Ba2   O4    S    
C40   H35   S    
C19   C20   A    
C1    H9    S    
O15   P2    D    
C37   H21   S    
Ba1   O4    S    
C18   F2    S    
Ba2   O21   S    
C12   H1    S    
Ba1   P1    S    
C4    C16   S    
C38   H25   S    
C25   C29   A    
C23   H11   S    
C7    P6    S    
C23   H10   S    
O16   P3    S    
O6    P7    D    
Ba1   O1    S    
C16   H42   S    
Ba2   O24   S    
O24   P5    S    
C23   O7    S    
C28   O22   S    
Ba2   O5    S    
C19   C27   S    
C17   P5    S    
C6    H31   S    
C29   H40   S    
C31   H45   S    
C35   H5    S    
Ba2   O19   S    
O8    P8    D    
C31   C32   S    
O22   P4    S    
C1    C12   S    
C8    C10   A    
O14   P6    S    
C30   H23   S    
O18   P3    S    
C38   C39   S    
C30   H34   S    
C34   H13   S    
C13   P8    S    
C11   C13   A    
C37   H22   S    
C31   O13   S    
C24   P3    S    
C28   H44   S    
Ba1   O5    S    
C3    C5    A    
C36   H19   S    
C12   O14   S    
O19   P4    D    
O20   P4    S    
O9    P8    S    
C26   H37   S    
C32   H50   S    
O11   P6    D    
O12   P2    S    
C2    C3    A    
Ba2   O23   S    
C16   H17   S    
Ba2   P4    S    
C5    N1    S    
O10   P6    S    
O5    P2    S    
C20   H39   S    
C3    H32   S    
Ba1   O15   S    
C28   C30   S    
C35   H6    S    
C8    H30   S    
O13   P1    S    
C2    C40   A    
C15   C17   A    
C2    P1    S    
O21   P8    S    
C32   H48   S    
C8    C9    A    
C23   C34   S    
C39   H29   S    
C24   C29   A    
C18   C19   A    
C38   H24   S    
C25   C26   A    
C22   F1    S    
C20   C21   A    
C10   N2    S    
C9    P4    S    
C33   H2    S    
C30   H12   S    
C38   O9    S    
C36   H18   S    
O23   P7    S    
