data_mof_unit_17112.cif
_audit_creation_date              2012-12-10T17:35:35-0500
_audit_creation_method            fapswitch 2.2
_symmetry_space_group_name_H-M    P1
_symmetry_Int_Tables_number       1
_space_group_crystal_system       triclinic
_cell_length_a                    10.80424
_cell_length_b                    12.526985
_cell_length_c                    13.335277
_cell_angle_alpha                 117.245991
_cell_angle_beta                  72.914933
_cell_angle_gamma                 101.964106
_cell_volume                      1528.15682268

loop_
_atom_site_label
_atom_site_type_symbol
_atom_type_description
_atom_site_fract_x
_atom_site_fract_y
_atom_site_fract_z
_atom_type_partial_charge
C1    C     C_R   0.509769 0.855114 0.286390 0.792063
C2    C     C_3   0.118960 0.998938 0.508044 -0.025166
C3    C     C_3   0.050443 0.096409 0.627280 0.340819
C4    C     C_3   0.040793 0.872574 0.491004 0.269458
C5    C     C_R   0.365562 0.274000 0.037537 -0.188762
C6    C     C_R   0.466002 0.227836 0.836972 -0.039282
C7    C     C_R   0.580303 0.812023 0.075185 0.460364
C8    C     C_R   0.606159 0.728972 0.958968 -0.234484
C9    C     C_R   0.567890 0.607633 0.927030 -0.275496
C10   C     C_R   0.499075 0.563576 0.010287 0.060924
C11   C     C_R   0.462134 0.648172 0.127405 -0.024579
C12   C     C_R   0.738498 0.004410 0.505809 0.777187
C13   C     C_R   0.467493 0.437949 0.980884 0.051630
C14   C     C_R   0.394994 0.398510 0.067540 0.200631
C15   C     C_R   0.349759 0.483895 0.181128 0.173986
C16   C     C_R   0.376438 0.606425 0.207160 -0.179309
C17   C     C_R   0.507570 0.349659 0.867535 -0.257491
C18   C     C_R   0.397908 0.190251 0.923064 -0.238983
C19   C     C_R   0.513389 0.771828 0.161841 -0.206937
C20   C     C_R   0.648062 0.301029 0.282153 -0.296759
C21   C     C_R   0.355744 0.771832 0.670754 0.377582
C22   C     C_R   0.380735 0.708583 0.724167 -0.248340
C23   C     C_R   0.483871 0.144645 0.713585 0.761474
C24   C     C_R   0.460162 0.615346 0.661087 -0.216196
C25   C     C_R   0.496637 0.568390 0.539833 -0.056039
C26   C     C_R   0.498812 0.650245 0.491204 0.166677
C27   C     C_R   0.540619 0.448285 0.469338 -0.073770
C28   C     C_R   0.596480 0.413461 0.350187 -0.018677
C29   C     C_R   0.602990 0.491199 0.299902 0.386271
C30   C     C_R   0.575162 0.613022 0.370880 0.115687
C31   C     C_R   0.517402 0.354147 0.507953 0.335439
C32   C     C_R   0.644858 0.223502 0.330035 0.021743
C33   C     C_R   0.259412 0.999821 0.502548 0.799019
C34   C     C_3   0.968341 0.007964 0.397773 -0.475181
C35   C     C_3   0.110367 0.025251 0.406982 -0.472392
C36   C     C_3   0.916912 0.118170 0.618209 -0.023634
C37   C     C_3   0.893321 0.888228 0.518847 -0.076261
C38   C     C_3   0.875676 0.006609 0.511059 0.021084
Cu1   Cu    Cu3+1 0.529690 0.098270 0.475420 0.929795
Cu2   Cu    Cu3+1 0.470310 0.901730 0.524580 0.919455
H1    H     H_    0.949813 0.080765 0.379637 0.211764
H2    H     H_    0.844069 0.122591 0.698089 0.100560
H3    H     H_    0.026087 0.054208 0.689140 0.074987
H4    H     H_    0.367830 0.096505 0.902152 0.152670
H5    H     H_    0.311567 0.239961 0.100706 0.146771
H6    H     H_    0.570060 0.372781 0.799955 0.147972
H7    H     H_    0.594361 0.551309 0.835691 0.142059
H8    H     H_    0.661186 0.758057 0.892349 0.147271
H9    H     H_    0.951790 0.921267 0.322878 0.160342
H10   H     H_    0.327555 0.668571 0.290968 0.166641
H11   H     H_    0.687803 0.138812 0.276823 0.179277
H12   H     H_    0.691331 0.270367 0.191636 0.160224
H13   H     H_    0.488594 0.578480 0.708679 0.162760
H14   H     H_    0.339255 0.732078 0.815442 0.146454
H15   H     H_    0.169086 0.963998 0.323175 0.159840
H16   H     H_    0.151042 0.118946 0.421355 0.231148
H17   H     H_    0.855429 0.809615 0.449290 0.138222
H18   H     H_    0.071174 0.812631 0.396714 0.050964
N1    N     N_R   0.574690 0.246280 0.438200 -0.186728
N2    N     N_R   0.426100 0.754320 0.561190 -0.193369
O1    O     O_R   0.537340 0.972510 0.318130 -0.538768
O2    O     O_R   0.487200 0.806530 0.359650 -0.589597
O3    O     O_R   0.707380 0.082980 0.479220 -0.579643
O4    O     O_R   0.657240 0.917000 0.520740 -0.588056
O5    O     O_R   0.512800 0.193470 0.640350 -0.595417
O6    O     O_R   0.462660 0.027490 0.681870 -0.586689
O7    O     O_R   0.342760 0.083000 0.479260 -0.579238
O8    O     O_R   0.292620 0.917020 0.520780 -0.573982
O9    O     O_3   0.064815 0.824787 0.561579 -0.604867
C39   C     C_3   0.074523 0.698150 0.504025 0.108793
H19   H     H_    0.146701 0.678950 0.536759 0.170781
H20   H     H_    0.111729 0.663175 0.408637 0.106803
C40   C     C_3   0.944535 0.628764 0.532017 -0.374237
H21   H     H_    0.903938 0.669040 0.627160 0.229705
H22   H     H_    0.875755 0.634211 0.487277 0.210945
C41   C     C_3   0.958771 0.495705 0.491643 -0.931775
H23   H     H_    0.986564 0.450522 0.395710 0.256620
H24   H     H_    0.864231 0.451304 0.520933 0.261858
H25   H     H_    0.032867 0.484908 0.528335 0.261064
C42   C     C_3   0.275086 0.446292 0.276459 -0.917051
H26   H     H_    0.256902 0.524291 0.362101 0.224375
H27   H     H_    0.180983 0.397188 0.256950 0.225803
H28   H     H_    0.332168 0.387040 0.283782 0.247183
O10   O     O_3   0.633865 0.930008 0.105438 -0.615780
C43   C     C_3   0.588273 0.986934 0.054192 0.046578
H29   H     H_    0.536371 0.064932 0.125157 0.169646
H30   H     H_    0.517234 0.929510 0.000028 0.122260
C44   C     C_3   0.704271 0.032603 0.981361 -0.365236
H31   H     H_    0.774802 0.090320 0.035051 0.217841
H32   H     H_    0.754551 0.955089 0.907944 0.214107
C45   C     C_3   0.660619 0.104824 0.933963 -0.938504
H33   H     H_    0.595899 0.046145 0.874806 0.266985
H34   H     H_    0.746168 0.140718 0.885143 0.236250
H35   H     H_    0.608526 0.181941 0.006020 0.289340
O11   O     O_3   0.629154 0.447653 0.178859 -0.601794
C46   C     C_3   0.764264 0.441613 0.125146 0.056593
H36   H     H_    0.784044 0.345763 0.073222 0.135108
H37   H     H_    0.828513 0.480184 0.187610 0.131484
C47   C     C_3   0.801714 0.497140 0.037019 -0.310506
H38   H     H_    0.816613 0.424102 0.947539 0.183016
H39   H     H_    0.722127 0.545620 0.045429 0.245705
C48   C     C_3   0.924360 0.584325 0.049427 -0.940336
H40   H     H_    0.905028 0.668047 0.130335 0.252103
H41   H     H_    0.955823 0.609073 0.975105 0.257731
H42   H     H_    0.004640 0.542807 0.050952 0.262357
C49   C     C_3   0.410226 0.361855 0.612150 -0.788033
H43   H     H_    0.360679 0.274458 0.600698 0.300153
H44   H     H_    0.448645 0.397517 0.690815 0.192785
H45   H     H_    0.331139 0.413849 0.624614 0.220338
C50   C     C_3   0.253126 0.859197 0.739439 -0.813841
H46   H     H_    0.268730 0.915842 0.827861 0.182754
H47   H     H_    0.248958 0.918327 0.700562 0.283518
H48   H     H_    0.156667 0.807849 0.748086 0.209820
C51   C     C_3   0.677698 0.686031 0.316281 -0.702357
H49   H     H_    0.688116 0.781212 0.351759 0.239633
H50   H     H_    0.775548 0.663738 0.306932 0.151224
H51   H     H_    0.663475 0.663947 0.230237 0.240465
C52   C     C_3   0.917690 0.241768 0.618141 -0.762091
H52   H     H_    0.992191 0.252866 0.545378 0.248532
H53   H     H_    0.821155 0.254924 0.614403 0.226687
H54   H     H_    0.938337 0.315418 0.700250 0.234997
O12   O     O_3   0.130848 0.205958 0.666322 -0.620214
C53   C     C_3   0.164091 0.228711 0.770250 0.039919
H55   H     H_    0.247119 0.298530 0.783163 0.177474
H56   H     H_    0.197538 0.147504 0.764977 0.122827
C54   C     C_3   0.051652 0.277863 0.875496 -0.382172
H57   H     H_    0.025314 0.360342 0.878724 0.237021
H58   H     H_    0.965722 0.211202 0.867824 0.199940
C55   C     C_3   0.089653 0.307670 0.987379 -0.916831
H59   H     H_    0.119148 0.226043 0.983844 0.263807
H60   H     H_    0.006192 0.339693 0.062266 0.237588
H61   H     H_    0.170273 0.380087 0.000843 0.263622
C56   C     C_3   0.813289 0.882480 0.635601 -0.778054
H62   H     H_    0.872803 0.905687 0.698812 0.242688
H63   H     H_    0.735284 0.944553 0.681409 0.230817
H64   H     H_    0.762441 0.791768 0.619355 0.224046

loop_
_geom_bond_atom_site_label_1
_geom_bond_atom_site_label_2
_ccdc_geom_bond_type
C2    C35   S    
C24   C25   A    
C54   H57   S    
Cu2   N2    S    
C40   H22   S    
C40   H21   S    
C36   H2    S    
O11   C46   S    
C41   H25   S    
C1    O2    A    
C21   C50   S    
C7    C8    A    
C22   H14   S    
C43   H29   S    
C3    H3    S    
C29   C30   A    
C23   O6    A    
C28   C29   A    
C41   H24   S    
C20   C32   A    
C12   O4    A    
C53   H56   S    
C49   H43   S    
C15   C16   A    
C46   C47   S    
Cu2   O2    S    
C48   H42   S    
C34   C35   S    
C31   N1    A    
C50   H46   S    
C11   C19   A    
C52   H52   S    
C47   H38   S    
C8    C9    A    
C46   H37   S    
C56   H64   S    
C39   H19   S    
C36   C52   S    
C9    C10   A    
C3    O12   S    
C55   H61   S    
C44   H31   S    
C7    O10   S    
Cu2   O6    S    
C21   C22   A    
Cu1   O5    S    
C48   H40   S    
C34   H1    S    
C42   H28   S    
C6    C18   A    
C4    O9    S    
C51   H49   S    
C52   H53   S    
C43   H30   S    
Cu1   O1    S    
C1    C19   S    
C27   C31   A    
C53   H55   S    
O10   C43   S    
C21   N2    A    
C42   H27   S    
Cu1   Cu2   S    
C29   O11   S    
C12   O3    A    
C53   C54   S    
C5    C18   A    
C20   C28   A    
C54   C55   S    
C24   H13   S    
C5    H5    S    
C35   H15   S    
C52   H54   S    
C2    C4    S    
C8    H8    S    
C32   H11   S    
C37   C38   S    
C18   H4    S    
C45   H34   S    
C11   C16   A    
C15   C42   S    
C44   C45   S    
Cu1   N1    S    
C46   H36   S    
C39   C40   S    
C41   H23   S    
C48   H41   S    
C50   H48   S    
C5    C14   A    
C2    C33   S    
C47   H39   S    
C44   H32   S    
C9    H7    S    
C7    C19   A    
C56   H62   S    
C40   C41   S    
C22   C24   A    
C45   H33   S    
C33   O7    A    
C55   H59   S    
C30   C51   S    
C43   C44   S    
C6    C17   A    
C34   H9    S    
C54   H58   S    
C35   H16   S    
C34   C38   S    
Cu1   O7    S    
C16   H10   S    
C42   H26   S    
C10   C13   A    
C1    O1    A    
C51   H50   S    
C17   H6    S    
C26   C30   A    
C25   C27   A    
Cu1   O3    S    
Cu2   O4    S    
C13   C17   A    
C23   O5    A    
C36   C38   S    
C2    C3    S    
C25   C26   A    
C20   H12   S    
C45   H35   S    
C49   H44   S    
C3    C36   S    
C6    C23   S    
C31   C49   S    
C37   C56   S    
C12   C38   S    
O9    C39   S    
C50   H47   S    
C51   H51   S    
C10   C11   A    
C47   C48   S    
C4    C37   S    
Cu2   O8    S    
C4    H18   S    
C27   C28   A    
C56   H63   S    
C14   C15   A    
C39   H20   S    
C32   N1    A    
O12   C53   S    
C13   C14   A    
C26   N2    A    
C37   H17   S    
C33   O8    A    
C55   H60   S    
C49   H45   S    
