data_mof_unit_28005.cif
_audit_creation_date              2013-03-05T15:39:55-0500
_audit_creation_method            fapswitch 2.2
_symmetry_space_group_name_H-M    P1
_symmetry_Int_Tables_number       1
_space_group_crystal_system       triclinic
_cell_length_a                    27.994956
_cell_length_b                    18.870905
_cell_length_c                    16.865902
_cell_angle_alpha                 89.998383
_cell_angle_beta                  62.930234
_cell_angle_gamma                 89.997072
_cell_volume                      7934.0169157

loop_
_atom_site_label
_atom_site_type_symbol
_atom_site_description
_atom_site_fract_x
_atom_site_fract_y
_atom_site_fract_z
_atom_type_partial_charge
O1    O     O_R   0.255040 0.869590 0.478480 -0.505688
O2    O     O_R   0.744960 0.130410 0.521520 -0.512934
O3    O     O_R   0.744960 0.869590 0.521520 -0.506068
O4    O     O_R   0.255040 0.130410 0.478480 -0.512563
O5    O     O_R   0.755040 0.369590 0.478480 -0.506740
O6    O     O_R   0.244960 0.630410 0.521520 -0.506200
O7    O     O_R   0.244960 0.369590 0.521520 -0.506129
O8    O     O_R   0.755040 0.630410 0.478480 -0.506859
O9    O     O_R   0.182050 0.796550 0.624440 -0.521656
O10   O     O_R   0.817950 0.203450 0.375560 -0.522523
O11   O     O_R   0.817950 0.796550 0.375560 -0.521545
O12   O     O_R   0.182050 0.203450 0.624440 -0.522799
O13   O     O_R   0.682050 0.296550 0.624440 -0.513494
O14   O     O_R   0.317950 0.703450 0.375560 -0.520705
O15   O     O_R   0.317950 0.296550 0.375560 -0.513648
O16   O     O_R   0.682050 0.703450 0.624440 -0.520680
Cu1   Cu    Cu3+1 0.209920 0.785290 0.495070 1.089754
Cu2   Cu    Cu3+1 0.790080 0.214710 0.504930 1.086109
Cu3   Cu    Cu3+1 0.790080 0.785290 0.504930 1.089964
Cu4   Cu    Cu3+1 0.209920 0.214710 0.495070 1.085934
Cu5   Cu    Cu3+1 0.709920 0.285290 0.495070 1.090816
Cu6   Cu    Cu3+1 0.290080 0.714710 0.504930 1.090472
Cu7   Cu    Cu3+1 0.290080 0.285290 0.504930 1.091900
Cu8   Cu    Cu3+1 0.709920 0.714710 0.495070 1.090516
C1    C     C_R   0.295516 0.729348 0.329472 0.812474
C2    C     C_R   0.704513 0.270712 0.670532 0.822609
C3    C     C_R   0.704494 0.729332 0.670544 0.812550
C4    C     C_R   0.295497 0.270700 0.329485 0.822245
C5    C     C_R   0.795493 0.229308 0.329463 0.798041
C6    C     C_R   0.204489 0.770662 0.670526 0.809333
C7    C     C_R   0.204502 0.229313 0.670519 0.797536
C8    C     C_R   0.795501 0.770677 0.329459 0.809491
O17   O     O_R   0.250530 0.763330 0.367210 -0.595862
O18   O     O_R   0.749470 0.236670 0.632790 -0.595918
O19   O     O_R   0.749470 0.763330 0.632790 -0.595616
O20   O     O_R   0.250530 0.236670 0.367210 -0.596101
O21   O     O_R   0.750530 0.263330 0.367210 -0.607668
O22   O     O_R   0.249470 0.736670 0.632790 -0.597204
O23   O     O_R   0.249470 0.263330 0.632790 -0.607818
O24   O     O_R   0.750530 0.736670 0.367210 -0.596964
O25   O     O_R   0.177260 0.690030 0.513710 -0.615396
O26   O     O_R   0.822740 0.309970 0.486290 -0.613867
O27   O     O_R   0.822740 0.690030 0.486290 -0.614101
O28   O     O_R   0.177260 0.309970 0.513710 -0.615167
O29   O     O_R   0.677260 0.190030 0.513710 -0.607997
O30   O     O_R   0.322740 0.809970 0.486290 -0.615389
O31   O     O_R   0.322740 0.190030 0.486290 -0.607383
O32   O     O_R   0.677260 0.809970 0.513710 -0.614146
C9    C     C_R   0.196561 0.631831 0.527770 0.811603
C10   C     C_R   0.803447 0.368165 0.472186 0.812898
C11   C     C_R   0.803447 0.631836 0.472184 0.811777
C12   C     C_R   0.196560 0.368168 0.527775 0.812494
C13   C     C_R   0.699205 0.130959 0.518277 0.817183
C14   C     C_R   0.303443 0.867941 0.472021 0.815103
C15   C     C_R   0.300738 0.130951 0.481882 0.817288
C16   C     C_R   0.696542 0.867937 0.528045 0.815083
C17   C     C_R   0.044465 0.500001 0.518791 0.042048
C18   C     C_R   0.955702 0.499998 0.480574 0.042203
C19   C     C_R   0.547625 0.996887 0.509035 0.044704
C20   C     C_R   0.451666 0.996831 0.493117 0.044615
C21   C     C_R   0.021383 0.564720 0.511494 0.038013
C22   C     C_R   0.978801 0.435281 0.487821 0.038804
C23   C     C_R   0.978804 0.564717 0.487796 0.038767
C24   C     C_R   0.021379 0.435282 0.511519 0.038038
C25   C     C_R   0.525465 0.060846 0.498204 0.039655
C26   C     C_R   0.477883 0.932404 0.490566 0.034710
C27   C     C_R   0.473599 0.060788 0.504481 0.041264
C28   C     C_R   0.521512 0.932419 0.511413 0.035856
C29   C     C_R   0.113431 0.435232 0.542164 0.010397
C30   C     C_R   0.886645 0.564770 0.457467 0.011026
C31   C     C_R   0.886643 0.435224 0.457484 0.010969
C32   C     C_R   0.113434 0.564774 0.542145 0.010471
C33   C     C_R   0.614840 0.934357 0.537795 0.007014
C34   C     C_R   0.373946 0.061194 0.498704 0.017286
C35   C     C_R   0.384898 0.934348 0.463192 0.006158
C36   C     C_R   0.625515 0.061296 0.502698 0.016040
C37   C     C_R   0.164441 0.434833 0.542669 -0.220741
C38   C     C_R   0.835578 0.565169 0.457179 -0.220868
C39   C     C_R   0.835577 0.434828 0.457186 -0.221069
C40   C     C_R   0.164443 0.565168 0.542660 -0.220546
C41   C     C_R   0.665266 0.934419 0.539636 -0.212115
C42   C     C_R   0.328719 0.063318 0.480508 -0.225689
C43   C     C_R   0.334660 0.934417 0.460703 -0.211747
C44   C     C_R   0.671077 0.063358 0.520033 -0.225831
C45   C     C_R   0.187958 0.500000 0.547253 0.259267
C46   C     C_R   0.812031 0.500000 0.452688 0.259709
C47   C     C_R   0.689520 0.999545 0.540678 0.261665
C48   C     C_R   0.310476 0.999539 0.459413 0.261149
C49   C     C_R   0.090812 0.500003 0.533815 0.074007
C50   C     C_R   0.909302 0.499997 0.465710 0.074000
C51   C     C_R   0.595963 0.997610 0.517243 0.073290
C52   C     C_R   0.403523 0.997544 0.484321 0.073190
C53   C     C_R   0.582095 0.873310 0.556370 -0.120122
C54   C     C_R   0.391340 0.120130 0.530856 -0.141111
C55   C     C_R   0.417694 0.873355 0.444706 -0.120041
C56   C     C_R   0.607763 0.120312 0.471220 -0.137672
C57   C     C_R   0.082485 0.373465 0.553592 -0.125503
C58   C     C_R   0.917604 0.626538 0.445935 -0.125170
C59   C     C_R   0.917599 0.373453 0.445978 -0.125155
C60   C     C_R   0.082490 0.626544 0.553548 -0.125532
C61   C     C_R   0.538381 0.871126 0.538166 -0.205975
C62   C     C_R   0.441871 0.121710 0.527003 -0.201308
C63   C     C_R   0.461228 0.871158 0.463371 -0.205928
C64   C     C_R   0.557061 0.121865 0.475777 -0.199013
C65   C     C_R   0.038928 0.372866 0.535260 -0.205733
C66   C     C_R   0.961229 0.627132 0.464095 -0.205716
C67   C     C_R   0.961223 0.372861 0.464142 -0.205833
C68   C     C_R   0.038934 0.627140 0.535211 -0.205658
H1    H     H_    0.588340 0.826817 0.587657 0.196269
H2    H     H_    0.366660 0.165413 0.562192 0.174828
H3    H     H_    0.411662 0.826942 0.413051 0.196922
H4    H     H_    0.632278 0.165667 0.439712 0.177348
H5    H     H_    0.089147 0.325115 0.580994 0.198439
H6    H     H_    0.910877 0.674894 0.418619 0.197584
H7    H     H_    0.910874 0.325091 0.418676 0.197754
H8    H     H_    0.089150 0.674900 0.580936 0.198333
H9    H     H_    0.515996 0.822153 0.550662 0.154777
H10   H     H_    0.454342 0.169578 0.547831 0.153605
H11   H     H_    0.483691 0.822243 0.450791 0.156527
H12   H     H_    0.544397 0.169770 0.455341 0.155588
H13   H     H_    0.017788 0.323254 0.544363 0.153467
H14   H     H_    0.982377 0.676743 0.454940 0.151897
H15   H     H_    0.982369 0.323248 0.455006 0.151883
H16   H     H_    0.017797 0.676755 0.544296 0.153482
H17   H     H_    0.150603 0.744835 0.074764 0.148699
H18   H     H_    0.783702 0.126853 0.988819 0.135204
H19   H     H_    0.783734 0.873028 0.988830 0.135258
H20   H     H_    0.150712 0.255072 0.074594 0.148726
H21   H     H_    0.716065 0.372773 0.011422 0.135313
H22   H     H_    0.349456 0.755277 0.925191 0.148845
H23   H     H_    0.349558 0.244435 0.925152 0.149405
H24   H     H_    0.716207 0.627076 0.011227 0.135289
C69   C     C_R   0.221606 0.769408 0.952331 0.116822
C70   C     C_R   0.778326 0.230501 0.047742 0.117953
C71   C     C_R   0.778428 0.769344 0.047636 0.118471
C72   C     C_R   0.221719 0.230365 0.952228 0.117704
C73   C     C_R   0.721438 0.269126 0.952498 0.118392
C74   C     C_R   0.278451 0.730707 0.047623 0.117013
C75   C     C_R   0.278546 0.269129 0.047523 0.116511
C76   C     C_R   0.721510 0.730760 0.952421 0.118261
C77   C     C_R   0.277963 0.771448 0.911125 -0.167133
C78   C     C_R   0.758320 0.299640 0.053763 -0.158440
C79   C     C_R   0.758453 0.700195 0.053597 -0.157871
C80   C     C_R   0.278075 0.228271 0.911051 -0.167794
C81   C     C_R   0.741439 0.199984 0.946480 -0.157092
C82   C     C_R   0.222095 0.728670 0.088829 -0.166955
C83   C     C_R   0.222191 0.271219 0.088689 -0.167260
C84   C     C_R   0.741484 0.799910 0.946461 -0.157376
H25   H     H_    0.300331 0.788928 0.842785 0.138254
H26   H     H_    0.765143 0.339271 0.093944 0.147345
H27   H     H_    0.765305 0.660545 0.093730 0.146995
H28   H     H_    0.300445 0.210736 0.842733 0.134686
H29   H     H_    0.734623 0.160362 0.906280 0.147534
H30   H     H_    0.199727 0.711188 0.157167 0.138239
H31   H     H_    0.199815 0.288775 0.156994 0.138244
H32   H     H_    0.734633 0.839558 0.906325 0.148021
C85   C     C_R   0.306071 0.752243 0.958254 -0.155980
C86   C     C_R   0.730216 0.318776 0.006608 -0.168596
C87   C     C_R   0.730334 0.681079 0.006456 -0.168168
C88   C     C_R   0.306175 0.247506 0.958186 -0.155460
C89   C     C_R   0.769543 0.180846 0.993640 -0.169399
C90   C     C_R   0.193987 0.747874 0.041701 -0.156541
C91   C     C_R   0.194094 0.251983 0.041562 -0.156603
C92   C     C_R   0.769603 0.819026 0.993603 -0.168426
C93   C     C_R   0.145683 0.831808 0.941994 -0.236871
C94   C     C_R   0.854308 0.167965 0.058021 -0.232964
C95   C     C_R   0.854368 0.831942 0.057971 -0.233270
C96   C     C_R   0.145756 0.168056 0.941933 -0.237116
C97   C     C_R   0.645510 0.331737 0.942157 -0.231973
C98   C     C_R   0.354356 0.668264 0.057973 -0.236674
C99   C     C_R   0.354456 0.331575 0.057851 -0.235802
C100  C     C_R   0.645592 0.668127 0.942060 -0.232836
H33   H     H_    0.133522 0.852167 0.008485 0.174180
H34   H     H_    0.867414 0.149042 0.990677 0.173506
H35   H     H_    0.867473 0.850870 0.990630 0.173490
H36   H     H_    0.133590 0.147700 0.008427 0.174143
H37   H     H_    0.632349 0.350558 0.009558 0.173531
H38   H     H_    0.366523 0.647919 0.991475 0.174098
H39   H     H_    0.366677 0.351819 0.991291 0.174073
H40   H     H_    0.632480 0.649211 0.009409 0.173469
C101  C     C_R   0.116605 0.850149 0.895509 -0.156277
C102  C     C_R   0.883340 0.149701 0.104570 -0.157840
C103  C     C_R   0.883369 0.850260 0.104554 -0.157083
C104  C     C_R   0.116642 0.149793 0.895487 -0.156755
C105  C     C_R   0.616583 0.350194 0.895506 -0.154954
C106  C     C_R   0.383411 0.649877 0.104481 -0.155795
C107  C     C_R   0.383452 0.350072 0.104419 -0.153919
C108  C     C_R   0.616614 0.649764 0.895455 -0.156677
C109  C     C_R   0.132320 0.822722 0.809657 0.302797
C110  C     C_R   0.867660 0.177260 0.190351 0.304010
C111  C     C_R   0.867684 0.822709 0.190343 0.303496
C112  C     C_R   0.132354 0.177233 0.809643 0.303348
C113  C     C_R   0.632353 0.322833 0.809614 0.300867
C114  C     C_R   0.367688 0.677283 0.190347 0.303328
C115  C     C_R   0.367645 0.322847 0.190384 0.300165
C116  C     C_R   0.632307 0.677297 0.809654 0.304009
C117  C     C_R   0.181087 0.785730 0.766470 -0.157254
C118  C     C_R   0.818915 0.214309 0.233471 -0.152616
C119  C     C_R   0.818961 0.785613 0.233437 -0.156382
C120  C     C_R   0.181145 0.214165 0.766429 -0.153823
C121  C     C_R   0.681062 0.285698 0.766539 -0.159940
C122  C     C_R   0.318933 0.714304 0.233519 -0.156594
C123  C     C_R   0.318896 0.285818 0.233551 -0.161029
C124  C     C_R   0.681021 0.714419 0.766575 -0.155618
C125  C     C_R   0.209695 0.767810 0.813821 -0.232303
C126  C     C_R   0.790292 0.232087 0.186063 -0.244065
C127  C     C_R   0.790387 0.767747 0.185973 -0.238552
C128  C     C_R   0.209808 0.231971 0.813722 -0.237209
C129  C     C_R   0.709576 0.267704 0.814065 -0.237197
C130  C     C_R   0.290350 0.732273 0.186143 -0.230104
C131  C     C_R   0.290363 0.267752 0.186125 -0.230716
C132  C     C_R   0.709571 0.732331 0.814063 -0.236556
H41   H     H_    0.246239 0.737022 0.781783 0.173891
H42   H     H_    0.752948 0.261193 0.218638 0.171714
H43   H     H_    0.753070 0.738583 0.218514 0.173903
H44   H     H_    0.246383 0.262691 0.781652 0.172291
H45   H     H_    0.746889 0.238525 0.781537 0.173288
H46   H     H_    0.253816 0.763082 0.218173 0.174133
H47   H     H_    0.253830 0.236947 0.218157 0.173417
H48   H     H_    0.746880 0.761514 0.781532 0.173979
C133  C     C_R   0.191597 0.789269 0.902323 0.073849
C134  C     C_R   0.808416 0.210539 0.097579 0.074830
C135  C     C_R   0.808510 0.789307 0.097490 0.073891
C136  C     C_R   0.191708 0.210518 0.902224 0.074737
C137  C     C_R   0.691390 0.289139 0.902609 0.074509
C138  C     C_R   0.308455 0.710828 0.097635 0.073661
C139  C     C_R   0.308528 0.289067 0.097551 0.074512
C140  C     C_R   0.691439 0.710784 0.902553 0.073703
O33   O     O_R   0.051640 0.926880 0.885090 -0.518527
O34   O     O_R   0.948360 0.073120 0.114910 -0.518827
O35   O     O_R   0.948360 0.926880 0.114910 -0.518844
O36   O     O_R   0.051640 0.073120 0.885090 -0.518424
O37   O     O_R   0.551640 0.426880 0.885090 -0.518105
O38   O     O_R   0.448360 0.573120 0.114910 -0.518535
O39   O     O_R   0.448360 0.426880 0.114910 -0.517633
O40   O     O_R   0.551640 0.573120 0.885090 -0.518856
Cu9   Cu    Cu3+1 0.495240 0.500000 0.924150 1.101411
Cu10  Cu    Cu3+1 0.504760 0.500000 0.075850 1.099698
Cu11  Cu    Cu3+1 0.995240 0.000000 0.924150 1.097393
Cu12  Cu    Cu3+1 0.004760 1.000000 0.075850 1.099177
C141  C     C_R   0.927162 0.902308 0.066100 0.805133
C142  C     C_R   0.072866 0.097676 0.933890 0.807087
C143  C     C_R   0.072858 0.902313 0.933896 0.806776
C144  C     C_R   0.927156 0.097686 0.066102 0.805369
C145  C     C_R   0.427158 0.402293 0.066082 0.807946
C146  C     C_R   0.572834 0.597698 0.933903 0.804929
C147  C     C_R   0.572822 0.402290 0.933921 0.806248
C148  C     C_R   0.427145 0.597692 0.066101 0.806557
O41   O     O_R   0.940620 0.926560 0.986760 -0.599509
O42   O     O_R   0.059380 0.073440 0.013240 -0.597966
O43   O     O_R   0.059380 0.926560 0.013240 -0.598021
O44   O     O_R   0.940620 0.073440 0.986760 -0.599396
O45   O     O_R   0.440620 0.426560 0.986760 -0.597869
O46   O     O_R   0.559380 0.573440 0.013240 -0.599723
O47   O     O_R   0.559380 0.426560 0.013240 -0.599290
O48   O     O_R   0.440620 0.573440 0.986760 -0.598235
N1    N     N_R   0.235304 0.499998 0.559958 0.151160
O49   O     O_R   0.282718 0.499997 0.491623 -0.290760
O50   O     O_R   0.230882 0.500003 0.640140 -0.345937
N2    N     N_R   0.764610 0.500002 0.440201 0.151064
O51   O     O_R   0.768911 0.499982 0.360094 -0.353951
O52   O     O_R   0.717247 0.500004 0.508659 -0.290614
N3    N     N_R   0.732159 0.000622 0.565772 0.150121
O53   O     O_R   0.781988 0.001558 0.504849 -0.292437
O54   O     O_R   0.721279 0.990727 0.648605 -0.354796
N4    N     N_R   0.268166 0.000644 0.433541 0.150348
O55   O     O_R   0.279464 0.990615 0.350551 -0.346833
O56   O     O_R   0.218206 0.001585 0.493940 -0.292166
N5    N     N_R   0.098057 0.830391 0.767615 0.136764
O57   O     O_R   0.102721 0.885122 0.717536 -0.294905
O58   O     O_R   0.063548 0.780973 0.776734 -0.364146
N6    N     N_R   0.901941 0.169668 0.232368 0.137059
O59   O     O_R   0.897338 0.114941 0.282422 -0.295411
O60   O     O_R   0.936364 0.219187 0.223337 -0.367640
N7    N     N_R   0.901939 0.830363 0.232402 0.136592
O61   O     O_R   0.897306 0.885130 0.282409 -0.294933
O62   O     O_R   0.936235 0.780752 0.223699 -0.368364
N8    N     N_R   0.098062 0.169643 0.767648 0.137216
O63   O     O_R   0.102704 0.114968 0.717500 -0.295363
O64   O     O_R   0.063288 0.218853 0.777370 -0.363405
N9    N     N_R   0.598210 0.330793 0.767396 0.138590
O65   O     O_R   0.603181 0.385485 0.717095 -0.290664
O66   O     O_R   0.561880 0.283208 0.779757 -0.352457
N10   N     N_R   0.401925 0.669550 0.232428 0.136497
O67   O     O_R   0.397224 0.614791 0.282486 -0.291689
O68   O     O_R   0.436404 0.718973 0.223448 -0.364342
N11   N     N_R   0.401789 0.330835 0.232596 0.138787
O69   O     O_R   0.396747 0.385482 0.282998 -0.290435
O70   O     O_R   0.438538 0.283685 0.219424 -0.348178
N12   N     N_R   0.598076 0.669586 0.767559 0.136325
O71   O     O_R   0.602741 0.614793 0.717572 -0.291873
O72   O     O_R   0.563815 0.719207 0.776124 -0.368621

loop_
_geom_bond_atom_site_label_1
_geom_bond_atom_site_label_2
_geom_bond_distance
_ccdc_geom_bond_type
Cu11  O41   1.975949 S    
Cu2   Cu5   2.678965 S    
C33   C53   1.415750 A    
C123  C131  1.405573 A    
C10   C39   1.499550 S    
C93   C133  1.400496 A    
C16   C41   1.490953 S    
C73   C86   1.405442 A    
Cu10  O46   1.975949 S    
C109  N5    1.436226 S    
N10   O67   1.302612 A    
O35   C141  1.299842 A    
C96   C136  1.400499 A    
C76   C87   1.405471 A    
C58   H6    1.076724 S    
C115  C123  1.405915 A    
C109  C117  1.405917 A    
Cu6   O22   1.970595 S    
C113  C121  1.405910 A    
C6    O22   1.293340 A    
C111  N7    1.436236 S    
C74   C138  1.484089 S    
O37   Cu9   1.970802 S    
C22   C24   1.419224 A    
Cu11  Cu12  2.690329 S    
N6    O59   1.302611 A    
N11   O70   1.300503 A    
O3    Cu3   1.970441 S    
C80   C88   1.397058 A    
C83   H31   1.082825 S    
C105  C147  1.471239 S    
C57   C65   1.387724 A    
C126  H42   1.083377 S    
C79   H27   1.083017 S    
C43   C48   1.407965 A    
C120  C128  1.405558 A    
C36   C44   1.432937 A    
C78   C86   1.396919 A    
O25   C9    1.292644 A    
C14   C43   1.490683 S    
C94   H34   1.083016 S    
C76   C140  1.484143 S    
C35   C55   1.415743 A    
O40   C146  1.299826 A    
C141  O41   1.297360 A    
C28   C61   1.399387 A    
C53   C61   1.391233 A    
C132  H48   1.083364 S    
C3    O19   1.293345 A    
C145  O45   1.297165 A    
C84   C92   1.397014 A    
C82   H30   1.082824 S    
C124  C132  1.406147 A    
O13   Cu5   1.966047 S    
C19   C51   1.421645 A    
C77   C85   1.396992 A    
C98   H38   1.083339 S    
N5    O58   1.300576 A    
C12   C37   1.499510 S    
C73   C81   1.405167 A    
N3    O54   1.300816 A    
C56   C64   1.386409 A    
C113  N9    1.436176 S    
C26   C63   1.399375 A    
C110  N6    1.436223 S    
O2    C13   1.306750 A    
C17   C21   1.413006 A    
C116  N12   1.436244 S    
C71   C135  1.484137 S    
C58   C66   1.387769 A    
C9    C40   1.499533 S    
C129  H45   1.083364 S    
C11   C38   1.499526 S    
Cu3   O19   1.970593 S    
C36   C56   1.417451 A    
C81   C89   1.397014 A    
O10   Cu2   1.966047 S    
C112  C120  1.405917 A    
O34   C144  1.299843 A    
O4    Cu4   1.970443 S    
O5    Cu5   1.970535 S    
C54   C62   1.386597 A    
Cu12  O43   1.975883 S    
C104  C142  1.471833 S    
C102  C110  1.406522 A    
C45   N1    1.435701 S    
C114  C122  1.405921 A    
C127  C135  1.400312 A    
H19   C92   1.082825 S    
Cu9   O48   1.975880 S    
C29   C37   1.431957 A    
H17   C90   1.083023 S    
C94   C102  1.405851 A    
C35   C43   1.426007 A    
C31   C39   1.431901 A    
C13   C44   1.492369 S    
O7    C12   1.310609 A    
C8    C119  1.471566 S    
Cu2   O26   1.976066 S    
C34   C52   1.415713 A    
O40   Cu9   1.970888 S    
C21   C23   1.419224 A    
N1    O49   1.303006 A    
C73   C137  1.484048 S    
C20   C27   1.406272 A    
C70   C134  1.484054 S    
O33   Cu11  1.970802 S    
O28   C12   1.292702 A    
O16   C3    1.297198 A    
C71   C79   1.405172 A    
C37   C45   1.413535 A    
Cu9   Cu10  2.690329 S    
C114  N10   1.436234 S    
C130  C138  1.400153 A    
C99   H39   1.083336 S    
C29   C49   1.412745 A    
C121  C129  1.406186 A    
H21   C86   1.082829 S    
Cu4   O28   1.975996 S    
C55   C63   1.391182 A    
Cu5   O29   1.976065 S    
C20   C52   1.421496 A    
C60   C68   1.387728 A    
H24   C87   1.082824 S    
C143  O43   1.297299 A    
Cu8   O32   1.975996 S    
C2    C121  1.471531 S    
O37   C147  1.299894 A    
O35   Cu12  1.970887 S    
C132  C140  1.400328 A    
C72   C136  1.484040 S    
Cu4   Cu7   2.679084 S    
C66   H14   1.080598 S    
Cu1   O17   1.970593 S    
C46   N2    1.435698 S    
N4    O56   1.302860 A    
O9    C6    1.296840 A    
O26   C10   1.292746 A    
O11   C8    1.297194 A    
O12   C7    1.296877 A    
O39   Cu10  1.970887 S    
O13   C2    1.297066 A    
C116  C124  1.405935 A    
C47   N3    1.436729 S    
C95   H35   1.083018 S    
C96   H36   1.083340 S    
Cu11  O44   1.975880 S    
C4    C123  1.470974 S    
C106  C114  1.406543 A    
N2    O51   1.300699 A    
N9    O66   1.300513 A    
C131  H47   1.083040 S    
O1    Cu1   1.970535 S    
C70   C89   1.405470 A    
Cu10  O47   1.975883 S    
O14   Cu6   1.966047 S    
Cu7   O31   1.975997 S    
N10   O68   1.300571 A    
C32   C40   1.431992 A    
C83   C91   1.396908 A    
C19   C25   1.406429 A    
C31   C50   1.412756 A    
C126  C134  1.400268 A    
C42   C48   1.414727 A    
O8    Cu8   1.970443 S    
C36   C51   1.415769 A    
C125  H41   1.083038 S    
N6    O60   1.300599 A    
C5    C118  1.471388 S    
N8    O63   1.302611 A    
C115  N11   1.436179 S    
C103  C141  1.471313 S    
C101  C143  1.471833 S    
C53   H1    1.078284 S    
C29   C57   1.412231 A    
C18   C22   1.412962 A    
Cu12  O42   1.975949 S    
C34   C54   1.417224 A    
C117  C125  1.405561 A    
N7    O61   1.302610 A    
C60   H8    1.076690 S    
C67   H15   1.080597 S    
C69   C90   1.405056 A    
C94   C134  1.400350 A    
N3    O53   1.302873 A    
C82   C90   1.396967 A    
O11   Cu3   1.966042 S    
C17   C49   1.430671 A    
O36   C142  1.300177 A    
Cu9   O45   1.975949 S    
C68   H16   1.080592 S    
C59   H7    1.076714 S    
C30   C38   1.431865 A    
O6    Cu6   1.970532 S    
C75   C139  1.484133 S    
N12   O71   1.302612 A    
O38   Cu10  1.970799 S    
C33   C41   1.426077 A    
C7    C120  1.470801 S    
O38   C148  1.300132 A    
C101  C109  1.406526 A    
C25   C27   1.406968 A    
O36   Cu11  1.970888 S    
C69   C133  1.484084 S    
C104  C112  1.406471 A    
H18   C89   1.082825 S    
C100  H40   1.083017 S    
C20   C26   1.410623 A    
N5    O57   1.302608 A    
C129  C137  1.400355 A    
C34   C42   1.432657 A    
C106  C148  1.471852 S    
Cu3   O27   1.975997 S    
C142  O42   1.297258 A    
C22   C67   1.402877 A    
C146  O46   1.297379 A    
C54   H2    1.074501 S    
C40   C45   1.413526 A    
C70   C78   1.405154 A    
N11   O69   1.302628 A    
C98   C106  1.406403 A    
C127  H43   1.083363 S    
C23   C66   1.402878 A    
C18   C50   1.430589 A    
C95   C135  1.400366 A    
C41   C47   1.408079 A    
Cu6   O30   1.976066 S    
C99   C139  1.400528 A    
C75   C88   1.405119 A    
H22   C85   1.083023 S    
O4    C15   1.306459 A    
C97   C137  1.400343 A    
O5    C10   1.310519 A    
C128  C136  1.400098 A    
C110  C118  1.405890 A    
C102  C144  1.471268 S    
C79   C87   1.396988 A    
C59   C67   1.387776 A    
C69   C77   1.405590 A    
Cu1   Cu6   2.678965 S    
C61   H9    1.082153 S    
C78   H26   1.083018 S    
Cu3   Cu8   2.679084 S    
C72   C80   1.405604 A    
C100  C140  1.400375 A    
O10   C5    1.297157 A    
O27   C11   1.292803 A    
O15   C4    1.296757 A    
C31   C59   1.412211 A    
C97   H37   1.083025 S    
O14   C1    1.296833 A    
Cu4   O20   1.970592 S    
Cu5   O21   1.970593 S    
C4    O20   1.293443 A    
C107  C145  1.471861 S    
C5    O21   1.293259 A    
C84   H32   1.083017 S    
C39   C46   1.413579 A    
C80   H28   1.082863 S    
C112  N8    1.436205 S    
C64   H12   1.083019 S    
C72   C91   1.405032 A    
C147  O47   1.297252 A    
C26   C28   1.416431 A    
O2    Cu2   1.970532 S    
C71   C92   1.405473 A    
O34   Cu12  1.970799 S    
C44   C47   1.414736 A    
C76   C84   1.405182 A    
C77   H25   1.082827 S    
C24   C65   1.402826 A    
C56   H4    1.074263 S    
C75   C83   1.405567 A    
O12   Cu4   1.966042 S    
N7    O62   1.300577 A    
C111  C119  1.405924 A    
O33   C143  1.300137 A    
O7    Cu7   1.970441 S    
C93   H33   1.083340 S    
C21   C68   1.402827 A    
C2    O18   1.293320 A    
C95   C103  1.405861 A    
C96   C104  1.406391 A    
C108  C146  1.471325 S    
C62   H10   1.083010 S    
C81   H29   1.083015 S    
C38   C46   1.413587 A    
O15   Cu7   1.966042 S    
C128  H44   1.083054 S    
C131  C139  1.400224 A    
O30   C14   1.290254 A    
C30   C50   1.412738 A    
C122  C130  1.405547 A    
C3    C124  1.471590 S    
C33   C51   1.410961 A    
N2    O52   1.303007 A    
C1    C122  1.470979 S    
N9    O65   1.302627 A    
H20   C91   1.083024 S    
N1    O50   1.300693 A    
O1    C14   1.309431 A    
C19   C28   1.410488 A    
O3    C16   1.309417 A    
C119  C127  1.406138 A    
C65   H13   1.080594 S    
C15   C42   1.492128 S    
Cu2   O18   1.970595 S    
O8    C11   1.310521 A    
C35   C52   1.410767 A    
O9    Cu1   1.966047 S    
N8    O64   1.300594 A    
C57   H5    1.076696 S    
C17   C24   1.413017 A    
O31   C15   1.292135 A    
C32   C60   1.412238 A    
C18   C23   1.412970 A    
O32   C16   1.290459 A    
C144  O44   1.297338 A    
C107  C115  1.406397 A    
C63   H11   1.082143 S    
C105  C113  1.406408 A    
C103  C111  1.406556 A    
C148  O48   1.297314 A    
C130  H46   1.083040 S    
C99   C107  1.406387 A    
C74   C82   1.405579 A    
C93   C101  1.406394 A    
C98   C138  1.400507 A    
C97   C105  1.405743 A    
C55   H3    1.078309 S    
C32   C49   1.412761 A    
C74   C85   1.405066 A    
C48   N4    1.436745 S    
C100  C108  1.405846 A    
Cu7   O23   1.970593 S    
C125  C133  1.400144 A    
Cu8   O24   1.970592 S    
C7    O23   1.293345 A    
N12   O72   1.300578 A    
C8    O24   1.293331 A    
O6    C9    1.310606 A    
H23   C88   1.083016 S    
Cu1   O25   1.976065 S    
N4    O55   1.300809 A    
O29   C13   1.291890 A    
C6    C117  1.470960 S    
C108  C116  1.406566 A    
O16   Cu8   1.966042 S    
C1    O17   1.293358 A    
C118  C126  1.406084 A    
C25   C64   1.395328 A    
O39   C145  1.300264 A    
C30   C58   1.412203 A    
C27   C62   1.395630 A    
