data_mof_unit_12141.cif
_audit_creation_date              2013-03-05T16:08:07-0500
_audit_creation_method            fapswitch 2.2
_symmetry_space_group_name_H-M    P1
_symmetry_Int_Tables_number       1
_space_group_crystal_system       triclinic
_cell_length_a                    6.93972
_cell_length_b                    14.532974
_cell_length_c                    15.939924
_cell_angle_alpha                 90.540274
_cell_angle_beta                  90.027572
_cell_angle_gamma                 90.058829
_cell_volume                      1607.54486156

loop_
_atom_site_label
_atom_site_type_symbol
_atom_site_description
_atom_site_fract_x
_atom_site_fract_y
_atom_site_fract_z
_atom_type_partial_charge
O1    O     O_R   0.494400 0.415450 0.412630 -0.595065
O2    O     O_R   0.823940 0.405730 0.586760 -0.605818
O3    O     O_R   0.994240 0.584550 0.587370 -0.590878
C1    C     C_R   0.654977 0.384113 0.615780 0.979327
O4    O     O_R   0.824110 0.404430 0.413240 -0.617623
O5    O     O_R   0.994420 0.583240 0.412620 -0.593363
C2    C     C_R   0.655215 0.381313 0.384962 0.951945
O6    O     O_R   0.494230 0.416760 0.587380 -0.591930
O7    O     O_3   0.660800 0.558670 0.500000 -0.270935
V1    V     V_3+5 0.935650 0.489120 0.500000 1.133238
O8    O     O_R   0.324140 0.594270 0.413240 -0.592691
C3    C     C_R   0.154950 0.615946 0.384099 0.942864
O9    O     O_R   0.323960 0.595570 0.586760 -0.596941
C4    C     C_R   0.155224 0.617829 0.615560 0.912300
V2    V     V_3+5 0.435660 0.510880 0.500000 1.151550
O10   O     O_3   0.160640 0.441330 0.500000 -0.283174
C5    C     C_3   0.056076 0.668117 0.772271 -0.140169
C6    C     C_3   0.229789 0.716922 0.814701 -0.145700
H1    H     H_    0.309414 0.691499 0.870261 0.098897
H2    H     H_    0.992787 0.601510 0.791893 0.095408
C7    C     C_3   0.121069 0.808987 0.810033 -0.082774
C8    C     C_3   0.947164 0.760996 0.768392 -0.097043
C9    C     C_3   0.036193 0.779627 0.681046 -0.128610
C10   C     C_3   0.209897 0.828446 0.723491 -0.126207
C11   C     C_3   0.318812 0.735558 0.727359 -0.091709
C12   C     C_3   0.144904 0.687548 0.685732 -0.084838
H3    H     H_    0.793864 0.771758 0.785718 0.108483
H4    H     H_    0.956602 0.805063 0.625479 0.115459
H5    H     H_    0.273145 0.895067 0.703883 0.105943
H6    H     H_    0.472110 0.724805 0.710025 0.110320
C13   C     C_R   0.262570 0.821120 0.245145 0.099751
C14   C     C_R   0.117581 0.816178 0.183850 -0.247196
C15   C     C_R   0.970079 0.750757 0.196183 -0.095618
H7    H     H_    0.851189 0.745906 0.152440 0.114083
C16   C     C_R   0.980909 0.686697 0.262029 -0.175144
H8    H     H_    0.869648 0.634805 0.267009 0.123181
C17   C     C_R   0.140205 0.685709 0.317133 -0.209636
C18   C     C_R   0.274782 0.756727 0.309013 0.151011
C19   C     C_3   0.489353 0.754997 0.307199 -0.581934
C20   C     C_3   0.477210 0.827019 0.238291 0.198379
H9    H     H_    0.545317 0.687684 0.284465 0.169011
H10   H     H_    0.553696 0.780257 0.367026 0.232355
H11   H     H_    0.533891 0.803786 0.176413 0.064722
C21   C     C_R   0.470990 0.276199 0.707535 0.167285
C22   C     C_R   0.643932 0.320208 0.687315 -0.263087
C23   C     C_R   0.802556 0.305981 0.740842 -0.367285
H12   H     H_    0.936317 0.342400 0.729912 0.158916
C24   C     C_R   0.791641 0.243179 0.808283 0.547449
C25   C     C_R   0.622945 0.188950 0.819227 -0.401847
C26   C     C_R   0.461413 0.211650 0.771037 0.168389
C27   C     C_3   0.328692 0.150990 0.721679 -0.453477
C28   C     C_3   0.338347 0.222001 0.652386 -0.464590
H13   H     H_    0.183794 0.145656 0.750731 0.232957
H14   H     H_    0.395753 0.084080 0.704062 0.175772
H15   H     H_    0.199359 0.258113 0.642033 0.201567
H16   H     H_    0.410273 0.196253 0.594413 0.212467
C29   C     C_R   0.508824 0.240741 0.315491 0.123168
C30   C     C_R   0.648484 0.310524 0.317755 -0.304841
C31   C     C_R   0.792821 0.307075 0.255254 -0.186508
H17   H     H_    0.910149 0.356251 0.256260 0.126294
C32   C     C_R   0.781632 0.242970 0.188205 -0.182724
H18   H     H_    0.891025 0.244331 0.139857 0.126133
C33   C     C_R   0.624473 0.181614 0.181284 -0.208527
C34   C     C_R   0.495887 0.179775 0.248605 0.227984
C35   C     C_3   0.282470 0.172786 0.254684 -0.603822
C36   C     C_3   0.296566 0.237681 0.331012 0.388859
H19   H     H_    0.234149 0.101911 0.269862 0.253922
H20   H     H_    0.209180 0.204498 0.200171 0.158171
H21   H     H_    0.225903 0.306049 0.324047 0.026343
O11   O     O_R   0.771650 0.079500 0.908680 -0.555584
O12   O     O_R   0.441690 0.091800 0.082800 -0.606211
O13   O     O_R   0.271460 0.912980 0.083410 -0.605419
C37   C     C_R   0.610945 0.114899 0.111034 1.012346
O14   O     O_R   0.441930 0.090510 0.909280 -0.592964
O15   O     O_R   0.271690 0.911670 0.908660 -0.595301
C38   C     C_R   0.611459 0.114467 0.882105 0.970217
O16   O     O_R   0.771410 0.080810 0.083440 -0.577638
O17   O     O_3   0.605100 0.937580 0.996050 -0.283669
V3    V     V_3+5 0.330220 0.007110 0.996030 1.170522
O18   O     O_R   0.941980 0.900620 0.909250 -0.606027
C39   C     C_R   0.110712 0.878535 0.880337 0.899859
O19   O     O_R   0.941740 0.901920 0.082770 -0.564983
C40   C     C_R   0.110452 0.880738 0.112345 0.963694
V4    V     V_3+5 0.830220 0.985300 0.996000 1.196592
O20   O     O_3   0.105210 0.054870 0.996020 -0.264222
N1    N     N_R   0.551776 0.916615 0.265773 0.249027
O21   O     O_R   0.478098 0.959360 0.330355 -0.406448
O22   O     O_R   0.704966 0.950006 0.230389 -0.412283
O23   O     O_3   0.950823 0.230129 0.859133 -0.617687
C41   C     C_3   0.971381 0.307262 0.913025 0.272029
H22   H     H_    0.840270 0.316544 0.952616 0.059979
H23   H     H_    0.998208 0.371175 0.876820 0.075059
C42   C     C_3   0.143080 0.292741 0.970794 -0.868692
H24   H     H_    0.275739 0.281101 0.933235 0.246356
H25   H     H_    0.164068 0.354519 0.011312 0.183359
H26   H     H_    0.117573 0.232543 0.011554 0.263616
O24   O     O_3   0.257850 0.191563 0.406861 -0.600846
C43   C     C_3   0.057758 0.192645 0.422931 0.276357
H27   H     H_    0.970358 0.181601 0.365015 0.122877
H28   H     H_    0.017866 0.259374 0.452543 0.130257
C44   C     C_3   0.007309 0.115624 0.483034 -0.849560
H29   H     H_    0.089347 0.123513 0.542392 0.250901
H30   H     H_    0.850744 0.117675 0.497472 0.216156
H31   H     H_    0.042545 0.047931 0.453931 0.276129

loop_
_geom_bond_atom_site_label_1
_geom_bond_atom_site_label_2
_geom_bond_distance
_ccdc_geom_bond_type
C42   H24   1.110634 S    
C6    C7    1.539110 S    
C16   H8    1.082221 S    
C29   C36   1.494449 S    
O18   V4    1.999760 S    
O12   V3    1.997791 S    
O24   C43   1.412213 S    
C41   H22   1.115137 S    
C19   H9    1.110573 S    
C22   C23   1.409040 A    
C44   H29   1.108958 S    
O14   C38   1.302100 A    
C29   C34   1.382656 A    
C5    C12   1.539602 S    
C36   O24   1.413635 S    
C16   C17   1.411771 A    
O13   V3    2.003243 S    
O5    C3    1.295051 A    
C18   C19   1.489590 S    
N1    O22   1.299397 A    
C36   H21   1.114923 S    
V2    O10   2.158773 S    
C43   H27   1.114616 S    
C5    H2    1.110268 S    
C13   C20   1.496024 S    
C6    H1    1.110095 S    
C9    C12   1.539266 S    
C20   N1    1.463818 S    
C3    C17   1.482670 S    
C32   C33   1.411668 A    
C10   H5    1.110287 S    
O8    V2    2.003176 S    
C20   H11   1.111731 S    
C35   H19   1.111757 S    
C9    C10   1.550046 S    
O1    V2    1.998608 S    
O11   V4    2.003306 S    
O7    V1    2.159564 S    
C2    C30   1.478938 S    
C28   H15   1.111540 S    
C1    O6    1.295816 A    
C21   C28   1.491711 S    
C31   H17   1.082843 S    
C42   H25   1.110472 S    
O1    C2    1.297534 A    
O9    C4    1.298104 A    
C6    C11   1.549477 S    
C15   H7    1.081787 S    
C19   H10   1.111854 S    
C1    C22   1.479366 S    
C23   C24   1.418741 A    
C31   C32   1.413230 A    
C27   C28   1.520176 S    
C10   C11   1.549525 S    
C19   C20   1.526730 S    
O12   C37   1.300273 A    
O17   V3    2.159613 S    
O15   C39   1.295389 A    
O6    V2    2.003176 S    
C33   C37   1.477166 S    
O16   V4    2.000275 S    
C26   C27   1.492992 S    
C30   C31   1.413672 A    
O19   C40   1.300290 A    
C4    C12   1.503915 S    
C27   H13   1.110208 S    
O2    C1    1.300025 A    
C17   C18   1.398167 A    
C41   H23   1.113710 S    
C13   C14   1.403474 A    
C35   H20   1.110749 S    
C5    C6    1.549895 S    
C25   C38   1.484237 S    
C9    H4    1.110130 S    
V4    O20   2.158722 S    
O3    C4    1.295464 A    
C24   C25   1.422318 A    
C7    C39   1.503814 S    
C35   C36   1.535371 S    
C42   H26   1.108763 S    
C43   H28   1.109924 S    
O14   V3    2.003215 S    
O9    V2    1.999794 S    
O11   C38   1.295489 A    
O2    V1    2.003237 S    
V3    O20   1.709473 S    
C21   C22   1.398576 A    
C41   C42   1.521630 S    
O4    C2    1.298326 A    
C21   C26   1.388105 A    
C11   H6    1.110109 S    
C14   C40   1.483940 S    
C23   H12   1.083073 S    
N1    O21   1.302378 A    
O18   C39   1.298095 A    
O5    V1    2.003159 S    
O8    C3    1.302528 A    
C44   H31   1.111231 S    
C43   C44   1.520877 S    
O19   V4    2.003199 S    
C5    C8    1.549419 S    
C13   C18   1.391919 A    
C8    H3    1.110110 S    
C27   H14   1.112174 S    
C14   C15   1.411426 A    
C11   C12   1.540264 S    
O4    V1    1.997872 S    
O3    V1    1.997540 S    
V1    O10   1.709524 S    
C34   C35   1.487697 S    
C29   C30   1.402290 A    
C15   C16   1.411552 A    
O7    V2    1.709172 S    
C32   H18   1.082332 S    
O13   C40   1.297791 A    
C33   C34   1.396392 A    
O17   V4    1.708635 S    
C44   H30   1.111101 S    
C25   C26   1.400078 A    
C7    C10   1.539714 S    
C37   O16   1.294784 A    
C8    C9    1.549537 S    
O23   C41   1.412876 S    
C7    C8    1.540216 S    
O15   V3    1.997556 S    
C24   O23   1.384100 S    
C28   H16   1.112393 S    
