data_mof_unit_39502.cif
_audit_creation_date              2012-12-10T19:25:38-0500
_audit_creation_method            fapswitch 2.2
_symmetry_space_group_name_H-M    P1
_symmetry_Int_Tables_number       1
_space_group_crystal_system       triclinic
_cell_length_a                    17.689784
_cell_length_b                    16.57673
_cell_length_c                    15.062404
_cell_angle_alpha                 89.82307
_cell_angle_beta                  91.568991
_cell_angle_gamma                 89.986481
_cell_volume                      4415.20361441

loop_
_atom_site_label
_atom_site_type_symbol
_atom_type_description
_atom_site_fract_x
_atom_site_fract_y
_atom_site_fract_z
_atom_type_partial_charge
C1    C     C_R   0.355590 0.499871 0.500820 0.903001
C2    C     C_R   0.644375 0.499866 0.499324 0.899007
C3    C     C_R   0.364506 0.481545 0.042977 0.374038
C4    C     C_R   0.638827 0.524278 0.958859 0.409424
C5    C     C_R   0.844449 0.557427 0.449522 0.378868
C6    C     C_R   0.153420 0.438842 0.456419 0.367495
C7    C     C_R   0.155520 0.559121 0.548931 0.377310
C8    C     C_R   0.846345 0.440906 0.548508 0.365163
C9    C     C_R   0.765611 0.556875 0.448876 -0.194105
C10   C     C_R   0.232236 0.438817 0.457172 -0.170522
C11   C     C_R   0.234349 0.558577 0.549140 -0.198206
C12   C     C_R   0.767528 0.440697 0.547059 -0.182679
C13   C     C_R   0.726939 0.499108 0.498197 -0.153983
C14   C     C_R   0.272964 0.499103 0.502531 -0.154477
C15   C     C_R   0.885064 0.499461 0.499690 -0.079373
C16   C     C_R   0.114808 0.499270 0.502202 -0.078677
C17   C     C_1   0.966040 0.499722 0.500682 0.189449
C18   C     C_1   0.033834 0.499656 0.501431 0.189220
C19   C     C_R   0.542859 0.829192 0.563300 0.165090
C20   C     C_R   0.437563 0.170428 0.468051 0.145350
C21   C     C_R   0.457170 0.829819 0.437207 0.167175
C22   C     C_R   0.562672 0.170627 0.533367 0.141529
C23   C     C_R   0.549081 0.743636 0.555278 0.480012
C24   C     C_R   0.442701 0.256349 0.457008 0.509081
C25   C     C_R   0.451248 0.744057 0.444409 0.474345
C26   C     C_R   0.557255 0.256538 0.543513 0.504733
C27   C     C_R   0.499898 0.873568 0.500513 -0.171172
C28   C     C_R   0.500230 0.126631 0.500723 -0.148132
C29   C     C_1   0.500126 0.963001 0.500683 0.251705
C30   C     C_1   0.500296 0.037119 0.500795 0.257299
C31   C     C_R   0.500677 0.500418 0.329054 0.941088
C32   C     C_R   0.499998 0.500022 0.671045 0.943026
C33   C     C_R   0.568395 0.515818 0.814523 0.324898
C34   C     C_R   0.432827 0.509579 0.184789 0.320182
C35   C     C_R   0.500571 0.500271 0.767654 -0.247751
C36   C     C_R   0.501235 0.502527 0.232733 -0.234752
C37   C     C_R   0.433191 0.485786 0.811246 0.330315
C38   C     C_R   0.570185 0.500415 0.189816 0.328633
C39   C     C_R   0.433570 0.482767 0.904969 -0.066661
C40   C     C_R   0.570892 0.510757 0.096774 -0.069901
C41   C     C_R   0.501998 0.499664 0.953428 -0.111580
C42   C     C_R   0.501732 0.502422 0.047309 -0.106966
C43   C     C_R   0.570661 0.512938 0.908419 -0.078389
C44   C     C_R   0.431938 0.498958 0.091869 -0.060023
C45   C     C_R   0.367963 0.463805 0.952363 0.317951
C46   C     C_R   0.637772 0.528167 0.051540 0.320292
Cu1   Cu    Cu3+1 0.500000 0.580420 0.500000 1.075327
Cu2   Cu    Cu3+1 0.500000 0.419580 0.500000 1.089456
H1    H     H_    0.734555 0.600966 0.409183 0.202642
H2    H     H_    0.261580 0.392511 0.421112 0.218885
H3    H     H_    0.265422 0.604030 0.586473 0.197307
H4    H     H_    0.738045 0.395837 0.585344 0.215287
N1    N     N_R   0.500000 0.701220 0.500000 -0.291461
N2    N     N_R   0.500000 0.298780 0.500000 -0.267083
O1    O     O_R   0.391260 0.567930 0.500000 -0.578360
O2    O     O_R   0.608740 0.432070 0.500000 -0.523349
O3    O     O_R   0.608740 0.567930 0.500000 -0.577297
O4    O     O_R   0.391260 0.432070 0.500000 -0.523673
O5    O     O_R   0.499990 0.567920 0.370260 -0.524602
O6    O     O_R   0.500010 0.432080 0.629740 -0.564725
O7    O     O_R   0.500010 0.567920 0.629740 -0.519848
O8    O     O_R   0.499990 0.432080 0.370260 -0.562382
Cl1   Cl    Cl    0.647414 0.543503 0.751290 -0.608947
Cl2   Cl    Cl    0.350696 0.531809 0.244665 -0.655686
Cl3   Cl    Cl    0.348294 0.487099 0.745311 -0.537316
Cl4   Cl    Cl    0.652417 0.474950 0.254177 -0.541186
Cl5   Cl    Cl    0.294028 0.402963 0.907304 -0.442016
Cl6   Cl    Cl    0.719001 0.570035 0.105348 -0.421131
O9    O     O_3   0.297414 0.467676 0.085767 -0.520979
C47   C     C_3   0.246489 0.531455 0.065524 0.136973
H5    H     H_    0.231761 0.534138 0.993305 0.181224
H6    H     H_    0.270918 0.590662 0.086240 0.169358
C48   C     C_3   0.173830 0.518128 0.115316 -0.608550
H7    H     H_    0.185960 0.516658 0.188040 0.268398
H8    H     H_    0.133484 0.567934 0.100115 0.204846
H9    H     H_    0.147492 0.460067 0.094756 0.267428
O10   O     O_3   0.707365 0.535405 0.918417 -0.486510
C49   C     C_3   0.747184 0.461375 0.919754 0.098483
H10   H     H_    0.712419 0.412158 0.889613 0.127311
H11   H     H_    0.764041 0.443851 0.988877 0.182415
C50   C     C_3   0.818595 0.470161 0.866480 -0.589138
H12   H     H_    0.854839 0.518738 0.895165 0.264846
H13   H     H_    0.850739 0.412608 0.868301 0.212071
H14   H     H_    0.803808 0.485186 0.796230 0.265390
Cl7   Cl    Cl    0.890628 0.631533 0.386865 -0.496626
Cl8   Cl    Cl    0.104754 0.362691 0.396909 -0.490777
Cl9   Cl    Cl    0.109473 0.635607 0.607771 -0.516944
Cl10  Cl    Cl    0.894857 0.367422 0.612752 -0.510505
Cl11  Cl    Cl    0.589109 0.879953 0.652443 -0.483074
Cl12  Cl    Cl    0.352407 0.117445 0.445395 -0.508334
Cl13  Cl    Cl    0.412239 0.881630 0.347536 -0.492873
Cl14  Cl    Cl    0.647699 0.117986 0.558225 -0.512312
O11   O     O_3   0.604141 0.702818 0.604692 -0.488083
C51   C     C_3   0.676021 0.722224 0.570504 0.109396
H15   H     H_    0.686825 0.788165 0.568403 0.184682
H16   H     H_    0.680848 0.699368 0.501688 0.133312
C52   C     C_3   0.738612 0.685357 0.628751 -0.590182
H17   H     H_    0.735498 0.618749 0.626693 0.253348
H18   H     H_    0.794570 0.704071 0.604107 0.205809
H19   H     H_    0.733515 0.706083 0.698373 0.294008
O12   O     O_3   0.389002 0.299191 0.406769 -0.545879
C53   C     C_3   0.373458 0.262387 0.323135 0.070977
H20   H     H_    0.319067 0.229261 0.325667 0.239769
H21   H     H_    0.418952 0.220728 0.301427 0.154352
C54   C     C_3   0.363331 0.326158 0.251698 -0.660115
H22   H     H_    0.417760 0.357425 0.242564 0.241285
H23   H     H_    0.345964 0.297469 0.187806 0.235827
H24   H     H_    0.318824 0.369436 0.270612 0.287494
O13   O     O_3   0.397978 0.703246 0.392617 -0.495297
C55   C     C_3   0.324874 0.721534 0.423706 0.117960
H25   H     H_    0.312576 0.787168 0.422936 0.188897
H26   H     H_    0.318839 0.700160 0.493072 0.131885
C56   C     C_3   0.264690 0.681631 0.364753 -0.629682
H27   H     H_    0.269589 0.615232 0.369283 0.259105
H28   H     H_    0.207625 0.699219 0.386825 0.210812
H29   H     H_    0.270993 0.700906 0.294665 0.279797
O14   O     O_3   0.610715 0.299622 0.593390 -0.545095
C57   C     C_3   0.625423 0.263798 0.677916 0.127220
H30   H     H_    0.681019 0.232772 0.677341 0.232540
H31   H     H_    0.581121 0.220223 0.698784 0.154950
C58   C     C_3   0.631243 0.328206 0.748803 -0.783964
H32   H     H_    0.574904 0.355252 0.758297 0.251165
H33   H     H_    0.650565 0.300475 0.812666 0.210639
H34   H     H_    0.672411 0.375109 0.729538 0.272779

loop_
_geom_bond_atom_site_label_1
_geom_bond_atom_site_label_2
_ccdc_geom_bond_type
O11   C51   S    
C27   C29   S    
C48   H8    S    
C41   C42   A    
C26   O14   S    
C50   H14   S    
C52   H17   S    
C2    O3    A    
C39   C41   A    
C4    C46   A    
O10   C49   S    
C7    C11   A    
C54   H23   S    
O12   C53   S    
C3    O9    S    
C25   N1    A    
C32   O7    A    
O9    C47   S    
C53   H21   S    
C11   C14   A    
C49   H11   S    
C24   N2    A    
C53   C54   S    
Cu2   O2    S    
C24   O12   S    
C48   H7    S    
C31   O5    A    
C2    C13   S    
C9    C13   A    
C57   H30   S    
C58   H34   S    
C52   H18   S    
C46   Cl6   S    
C55   H25   S    
C7    Cl9   S    
C20   C24   A    
C37   Cl3   S    
C45   Cl5   S    
C23   N1    A    
C47   H5    S    
C6    C16   A    
C19   C27   A    
C33   Cl1   S    
C39   C45   A    
C56   H29   S    
C5    Cl7   S    
C40   C42   A    
C21   C27   A    
C22   C28   A    
C41   C43   A    
C31   O8    A    
C53   H20   S    
C42   C44   A    
C26   N2    A    
C50   H13   S    
Cu2   O6    S    
C55   H26   S    
C54   H24   S    
C3    C44   A    
C58   H33   S    
C33   C43   A    
C32   C35   S    
C38   Cl4   S    
Cu1   O7    S    
C34   C44   A    
C10   C14   A    
C49   H10   S    
C20   C28   A    
C51   C52   S    
C20   Cl12  S    
C3    C45   A    
C50   H12   S    
C23   O11   S    
C8    Cl10  S    
C57   C58   S    
Cu2   N2    S    
C19   C23   A    
C5    C9    A    
C29   C30   T    
C19   Cl11  S    
Cu1   O3    S    
Cu2   O8    S    
Cu1   Cu2   S    
C8    C12   A    
C47   C48   S    
C34   Cl2   S    
C17   C18   T    
C9    H1    S    
C51   H16   S    
C55   C56   S    
C58   H32   S    
C7    C16   A    
C8    C15   A    
C48   H9    S    
C40   C46   A    
C10   H2    S    
C52   H19   S    
Cu1   O1    S    
C56   H27   S    
C21   Cl13  S    
C15   C17   S    
C21   C25   A    
C22   Cl14  S    
C35   C37   A    
C6    C10   A    
Cu2   O4    S    
C4    C43   A    
C25   O13   S    
C54   H22   S    
C12   H4    S    
C6    Cl8   S    
Cu1   N1    S    
C28   C30   S    
C1    O1    A    
C4    O10   S    
C37   C39   A    
C2    O2    A    
C1    O4    A    
C38   C40   A    
C49   C50   S    
C36   C38   A    
C33   C35   A    
C34   C36   A    
C51   H15   S    
C57   H31   S    
C5    C15   A    
C11   H3    S    
Cu1   O5    S    
C12   C13   A    
C16   C18   S    
C22   C26   A    
O13   C55   S    
C32   O6    A    
C31   C36   S    
C47   H6    S    
C1    C14   S    
O14   C57   S    
C56   H28   S    
