data_mof_unit_61688.cif
_audit_creation_date              2012-12-10T19:33:09-0500
_audit_creation_method            fapswitch 2.2
_symmetry_space_group_name_H-M    P1
_symmetry_Int_Tables_number       1
_space_group_crystal_system       triclinic
_cell_length_a                    21.61317
_cell_length_b                    21.659953
_cell_length_c                    22.066693
_cell_angle_alpha                 119.149984
_cell_angle_beta                  119.231034
_cell_angle_gamma                 90.292236
_cell_volume                      7462.279992

loop_
_atom_site_label
_atom_site_type_symbol
_atom_type_description
_atom_site_fract_x
_atom_site_fract_y
_atom_site_fract_z
_atom_type_partial_charge
Br1   Br    Br    0.855919 0.173398 0.092145 -0.542583
Br2   Br    Br    0.596045 0.293401 0.436189 -0.535355
Br3   Br    Br    0.312045 0.649028 0.455867 -0.431163
Br4   Br    Br    0.308215 0.801950 0.456476 -0.407678
C1    C     C_R   0.499819 0.119844 0.499142 0.879162
C2    C     C_R   0.502376 0.187092 0.501481 -0.175962
C3    C     C_R   0.543853 0.207207 0.477118 -0.228593
C4    C     C_R   0.581142 0.081059 0.662198 0.896400
C5    C     C_R   0.543453 0.270943 0.475954 0.231814
C6    C     C_R   0.503028 0.315430 0.501734 -0.126788
C7    C     C_R   0.470738 0.300384 0.536175 -0.011468
C8    C     C_3   0.395064 0.298856 0.521048 -0.583548
C9    C     C_3   0.391092 0.226051 0.516280 0.392096
C10   C     C_3   0.220385 0.734188 0.048761 -0.384094
C11   C     C_3   0.336122 0.748814 0.049007 -0.449937
C12   C     C_3   0.719225 0.310455 0.048573 -0.468911
C13   C     C_3   0.287934 0.699953 0.951434 0.389016
C14   C     C_1   0.125337 0.625577 0.751166 -0.185028
C15   C     C_3   0.290857 0.791601 0.082206 0.287906
C16   C     C_R   0.499551 0.879461 0.499275 0.884678
C17   C     C_3   0.171513 0.685725 0.951670 -0.365341
C18   C     C_3   0.208716 0.708896 0.917796 0.276640
C19   C     C_3   0.217144 0.792219 0.950994 -0.498942
C20   C     C_3   0.265788 0.841060 0.048123 -0.408619
C21   C     C_1   0.162668 0.663221 0.826237 -0.072828
C22   C     C_1   0.336574 0.837473 0.173683 -0.084399
C23   C     C_3   0.791905 0.289967 0.082258 0.268744
C24   C     C_1   0.374190 0.874868 0.248767 -0.170106
C25   C     C_R   0.454322 0.787077 0.514234 -0.040133
C26   C     C_R   0.498415 0.812208 0.496520 -0.066200
C27   C     C_R   0.542923 0.769821 0.476306 -0.183595
C28   C     C_R   0.418840 0.919073 0.337789 0.898575
C29   C     C_R   0.543114 0.705372 0.476633 -0.217467
C30   C     C_R   0.500099 0.684303 0.498726 -0.055454
C31   C     C_R   0.456192 0.726093 0.516401 -0.060406
C32   C     C_3   0.403492 0.733944 0.543005 0.629799
C33   C     C_3   0.402181 0.805581 0.541905 0.025474
C34   C     C_3   0.769467 0.205790 0.048420 0.137238
C35   C     C_R   0.880731 0.500539 0.501458 0.861737
C36   C     C_R   0.919088 0.418961 0.337850 0.900339
C37   C     C_R   0.120216 0.500218 0.500043 0.876355
C38   C     C_R   0.081196 0.581053 0.662161 0.883701
C39   C     C_R   0.620260 0.500329 0.499980 0.911776
C40   C     C_3   0.670395 0.261905 0.951465 -0.394788
C41   C     C_R   0.499938 0.380005 0.500174 0.941629
C42   C     C_R   0.379547 0.498623 0.499817 0.910147
C43   C     C_R   0.499641 0.619835 0.499815 0.924230
C44   C     C_R   0.758199 0.518395 0.453105 -0.010858
C45   C     C_3   0.721462 0.157494 0.951033 -0.415086
C46   C     C_R   0.814159 0.498740 0.500262 -0.119908
C47   C     C_R   0.802008 0.471158 0.540776 -0.197341
C48   C     C_R   0.737964 0.472109 0.541488 -0.165468
C49   C     C_R   0.685107 0.497511 0.498605 -0.059149
C50   C     C_R   0.692880 0.514875 0.449286 0.054840
C51   C     C_3   0.683871 0.580504 0.443084 -0.612249
C52   C     C_3   0.786569 0.254367 0.951271 -0.384831
C53   C     C_3   0.757272 0.585770 0.448934 0.375084
C54   C     C_R   0.244209 0.565360 0.551754 0.175103
C55   C     C_R   0.184215 0.499870 0.496777 -0.102000
C56   C     C_1   0.837372 0.336503 0.173786 -0.052752
C57   C     C_R   0.184802 0.435491 0.435324 -0.199282
C58   C     C_R   0.249083 0.435389 0.435239 -0.205867
C59   C     C_R   0.312864 0.498851 0.498332 -0.112031
C60   C     C_R   0.308658 0.564390 0.553740 0.234341
C61   C     C_3   0.357459 0.614041 0.647318 -0.466983
C62   C     C_3   0.286201 0.615796 0.645025 -0.553208
C63   C     C_3   0.835053 0.303447 0.048358 -0.364264
C64   C     C_1   0.874720 0.374436 0.248854 -0.141650
C65   C     C_3   0.709271 0.207950 0.917725 0.297193
C66   C     C_3   0.332957 0.139611 0.367563 0.137098
C67   C     C_1   0.663383 0.162550 0.826267 -0.097439
C68   C     C_3   0.253091 0.102820 0.289131 -0.331316
C69   C     C_3   0.252155 0.071862 0.209884 -0.963972
C70   C     C_3   0.339147 0.604530 0.910020 0.077883
C71   C     C_3   0.313256 0.573417 0.819544 -0.348826
C72   C     C_3   0.372869 0.548237 0.804086 -0.963950
C73   C     C_3   0.500809 0.802991 0.690514 0.041503
C74   C     C_3   0.541483 0.787130 0.758055 -0.312015
C75   C     C_3   0.615678 0.848791 0.833333 -0.942236
C76   C     C_3   0.841380 0.669779 0.599363 0.139508
C77   C     C_3   0.867141 0.754082 0.661819 -0.341970
C78   C     C_1   0.625747 0.125293 0.751198 -0.175940
C79   C     C_3   0.897350 0.774496 0.750064 -0.965495
C80   C     C_R   0.468113 0.235579 0.533061 -0.006117
H1    H     H_    0.733187 0.370452 0.071722 0.189742
H2    H     H_    0.237079 0.697658 0.072077 0.186094
H3    H     H_    0.387269 0.789008 0.072519 0.134590
H4    H     H_    0.355115 0.713400 0.073521 0.193780
H5    H     H_    0.314180 0.720961 0.929319 0.046251
H6    H     H_    0.233178 0.872489 0.071303 0.186522
H7    H     H_    0.315603 0.882744 0.071272 0.179016
H8    H     H_    0.161115 0.800099 0.927539 0.197754
H9    H     H_    0.187088 0.763579 0.072244 0.179024
H10   H     H_    0.115072 0.692642 0.928598 0.161947
H11   H     H_    0.815874 0.216621 0.928422 0.187020
H12   H     H_    0.614731 0.229686 0.928316 0.176203
H13   H     H_    0.243419 0.810634 0.927456 0.176229
H14   H     H_    0.577321 0.786213 0.460471 0.167666
H15   H     H_    0.577041 0.672875 0.460776 0.137192
H16   H     H_    0.429177 0.859502 0.603690 0.097344
H17   H     H_    0.843465 0.452686 0.575145 0.168382
H18   H     H_    0.730248 0.454427 0.576261 0.175890
H19   H     H_    0.634896 0.563735 0.380631 0.188647
H20   H     H_    0.779296 0.290550 0.927385 0.173119
H21   H     H_    0.685732 0.628150 0.496833 0.193879
H22   H     H_    0.749104 0.572538 0.389597 0.107684
H23   H     H_    0.686869 0.301799 0.072045 0.174572
H24   H     H_    0.136618 0.385429 0.389187 0.167764
H25   H     H_    0.250253 0.385040 0.388928 0.162978
H26   H     H_    0.389898 0.585446 0.676292 0.200543
H27   H     H_    0.390721 0.668880 0.670388 0.248800
H28   H     H_    0.277086 0.588611 0.672885 0.201149
H29   H     H_    0.278195 0.671493 0.666089 0.227300
H30   H     H_    0.849799 0.363237 0.070910 0.170089
H31   H     H_    0.888479 0.290762 0.072270 0.212276
H32   H     H_    0.666517 0.123107 0.927121 0.151711
H33   H     H_    0.748962 0.118117 0.926805 0.208970
H34   H     H_    0.573434 0.171879 0.455267 0.198611
H35   H     H_    0.735502 0.196283 0.069910 0.128802
H36   H     H_    0.362642 0.097553 0.360120 0.149947
H37   H     H_    0.361206 0.185990 0.371918 0.139441
H38   H     H_    0.223292 0.056471 0.283658 0.240008
H39   H     H_    0.222951 0.144622 0.294766 0.228489
H40   H     H_    0.282083 0.117042 0.213987 0.272189
H41   H     H_    0.193400 0.047396 0.154504 0.273130
H42   H     H_    0.279090 0.027491 0.200982 0.260440
H43   H     H_    0.351192 0.560287 0.921831 0.172076
H44   H     H_    0.392635 0.651801 0.955559 0.119223
H45   H     H_    0.398837 0.345209 0.577107 0.184615
H46   H     H_    0.261143 0.525144 0.775622 0.241565
H47   H     H_    0.300797 0.616860 0.806449 0.205097
H48   H     H_    0.424343 0.596457 0.844760 0.265287
H49   H     H_    0.351677 0.523977 0.737516 0.265228
H50   H     H_    0.386664 0.505024 0.817302 0.266795
H51   H     H_    0.487416 0.855252 0.717479 0.148513
H52   H     H_    0.539400 0.811077 0.673519 0.138298
H53   H     H_    0.505586 0.782637 0.779430 0.217030
H54   H     H_    0.552381 0.733178 0.731271 0.238442
H55   H     H_    0.653611 0.852497 0.814020 0.268010
H56   H     H_    0.353988 0.293649 0.461699 0.201276
H57   H     H_    0.643054 0.836210 0.881729 0.267379
H58   H     H_    0.606172 0.903338 0.861184 0.267256
H59   H     H_    0.889906 0.649606 0.620334 0.153986
H60   H     H_    0.798155 0.643737 0.600788 0.135454
H61   H     H_    0.911744 0.781388 0.662951 0.236311
H62   H     H_    0.819198 0.775246 0.641510 0.226434
H63   H     H_    0.853071 0.749203 0.750770 0.267630
H64   H     H_    0.915930 0.836045 0.793906 0.274625
H65   H     H_    0.945884 0.754539 0.772004 0.262528
H66   H     H_    0.392243 0.232016 0.569836 0.107350
H67   H     H_    0.163627 0.625821 0.928251 0.209738
H68   H     H_    0.660850 0.298604 0.928044 0.179593
O1    O     O_R   0.448270 0.091610 0.500010 -0.606035
O2    O     O_R   0.557050 0.465350 0.430680 -0.596730
O3    O     O_R   0.534700 0.443070 0.569360 -0.622503
O4    O     O_R   0.551720 0.091610 0.499980 -0.623633
O5    O     O_R   0.465400 0.373710 0.430650 -0.609281
O6    O     O_R   0.443050 0.534650 0.569320 -0.630979
O7    O     O_R   0.373740 0.465290 0.430600 -0.612668
O8    O     O_R   0.534700 0.626290 0.569350 -0.628878
O9    O     O_R   0.465390 0.556930 0.430640 -0.608583
O10   O     O_R   0.509700 0.061430 0.622870 -0.618942
O11   O     O_R   0.613150 0.061430 0.622840 -0.614156
O12   O     O_R   0.908540 0.448310 0.500030 -0.616154
O13   O     O_R   0.448280 0.908390 0.500020 -0.580289
O14   O     O_R   0.551730 0.908390 0.499990 -0.638958
O15   O     O_R   0.386850 0.938570 0.377160 -0.598879
O16   O     O_R   0.490300 0.938570 0.377130 -0.621564
O17   O     O_R   0.908570 0.551750 0.500020 -0.605756
O18   O     O_3   0.330263 0.162766 0.438237 -0.613278
O19   O     O_3   0.281380 0.623802 0.921312 -0.640641
O20   O     O_3   0.433460 0.743083 0.621677 -0.647292
O21   O     O_3   0.816267 0.654346 0.519278 -0.611866
O22   O     O_R   0.938770 0.490290 0.377140 -0.618688
O23   O     O_R   0.938740 0.386860 0.377150 -0.598973
O24   O     O_R   0.091820 0.551690 0.499970 -0.607086
O25   O     O_R   0.091790 0.448250 0.499980 -0.621842
O26   O     O_R   0.061630 0.613140 0.622850 -0.618565
O27   O     O_R   0.061600 0.509710 0.622860 -0.616145
O28   O     O_R   0.626360 0.534710 0.569400 -0.639558
Zn1   Zn    Zn3+2 0.430930 0.000000 0.500020 1.032185
Zn2   Zn    Zn3+2 0.569070 0.000000 0.499980 0.966888
Zn3   Zn    Zn3+2 0.000200 0.569060 0.500000 0.997509
Zn4   Zn    Zn3+2 0.000160 0.430940 0.500000 0.989153
Zn5   Zn    Zn3+2 0.546320 0.546310 0.592620 0.952699
Zn6   Zn    Zn3+2 0.453780 0.453690 0.407380 1.010150

loop_
_geom_bond_atom_site_label_1
_geom_bond_atom_site_label_2
_ccdc_geom_bond_type
C52   H11   S    
C75   H55   S    
C20   H7    S    
C62   H29   S    
O24   Zn3   S    
C31   C32   S    
O14   Zn2   S    
C44   C53   S    
C34   C45   S    
C61   H27   S    
C49   C50   A    
C11   C15   S    
C16   O13   A    
O2    Zn6   S    
C9    C80   S    
C48   H18   S    
C25   C26   A    
C51   H21   S    
C4    C78   S    
C1    C2    S    
O7    Zn6   S    
C37   O25   A    
C32   C33   S    
C63   H30   S    
C76   O21   S    
C23   C56   S    
C14   C38   S    
C26   C27   A    
C69   H41   S    
C75   H58   S    
C17   H10   S    
C23   C34   S    
C69   H42   S    
C42   O6    A    
C51   H19   S    
C1    O4    A    
C3    C5    A    
C30   C31   A    
C27   H14   S    
C65   C67   S    
C15   C22   S    
C63   H31   S    
O17   Zn3   S    
C57   H24   S    
C12   H23   S    
C54   C62   S    
C45   H33   S    
C66   H36   S    
C76   H60   S    
C18   C21   S    
O15   Zn1   S    
C19   C20   S    
C8    H56   S    
C41   O3    A    
C73   H52   S    
C39   O2    A    
C5    C6    A    
C12   C40   S    
C10   H9    S    
O26   Zn3   S    
C71   H46   S    
C67   C78   T    
C76   H59   S    
C12   C23   S    
C44   C46   A    
C53   H22   S    
C45   C65   S    
C17   C18   S    
O11   Zn2   S    
C3    H34   S    
C14   C21   T    
O8    Zn5   S    
C74   H54   S    
C77   C79   S    
C71   H47   S    
C29   C30   A    
C43   O8    A    
C54   C60   A    
C70   H44   S    
C39   O28   A    
C32   O20   S    
C55   C57   A    
C70   C71   S    
C47   C48   A    
C24   C28   S    
C13   H5    S    
O5    Zn6   S    
C52   H20   S    
O10   Zn1   S    
C8    H45   S    
O6    Zn5   S    
C72   H50   S    
C74   C75   S    
C76   C77   S    
C16   C26   S    
C54   C55   A    
C73   C74   S    
C39   C49   S    
C59   C60   A    
C29   H15   S    
C44   C50   A    
C71   C72   S    
C58   C59   A    
O12   Zn4   S    
C70   H43   S    
C38   O27   A    
C7    C8    S    
C69   H40   S    
C35   C46   S    
C6    C41   S    
C27   C29   A    
C46   C47   A    
C41   O5    A    
C40   C65   S    
C40   H68   S    
C8    C9    S    
C10   H2    S    
C70   O19   S    
Br1   C34   S    
C79   H63   S    
C34   H35   S    
C9    O18   S    
C19   H13   S    
C37   O24   A    
O1    Zn1   S    
C77   H62   S    
C77   H61   S    
C6    C7    A    
C51   C53   S    
C68   H39   S    
O3    Zn5   S    
C12   H1    S    
C53   O21   S    
C61   C62   S    
O25   Zn4   S    
C74   H53   S    
C48   C49   A    
C10   C17   S    
C11   H3    S    
O27   Zn4   S    
C11   C13   S    
C50   C51   S    
O4    Zn2   S    
C40   H12   S    
C68   H38   S    
C19   H8    S    
C22   C24   T    
C10   C15   S    
C68   C69   S    
C4    O11   A    
C20   H6    S    
O22   Zn3   S    
C9    H66   S    
C36   O23   A    
C72   H49   S    
C13   O19   S    
C2    C3    A    
C7    C80   A    
C47   H17   S    
C52   C63   S    
C16   O14   A    
C25   C31   A    
O16   Zn2   S    
C13   C18   S    
C42   C59   S    
O13   Zn1   S    
C60   C61   S    
C28   O16   A    
C15   C20   S    
C66   O18   S    
C35   O17   A    
C4    O10   A    
C36   O22   A    
C72   H48   S    
C66   H37   S    
C75   H57   S    
C58   H25   S    
Br3   C32   S    
C38   O26   A    
C73   O20   S    
C1    O1    A    
C42   O7    A    
C17   H67   S    
C57   C58   A    
C61   H26   S    
C23   C63   S    
O28   Zn5   S    
C79   H64   S    
C43   O9    A    
C45   H32   S    
Br4   C33   S    
C56   C64   T    
C52   C65   S    
C36   C64   S    
C28   O15   A    
C25   C33   S    
C18   C19   S    
C11   H4    S    
C66   C68   S    
C30   C43   S    
C73   H51   S    
C2    C80   A    
C62   H28   S    
C35   O12   A    
Br2   C5    S    
C33   H16   S    
C37   C55   S    
O23   Zn4   S    
C79   H65   S    
O9    Zn6   S    
