data_mof_unit_5727.cif
_audit_creation_date              2012-12-11T15:41:18-0500
_audit_creation_method            fapswitch 2.2
_symmetry_space_group_name_H-M    P1
_symmetry_Int_Tables_number       1
_space_group_crystal_system       triclinic
_cell_length_a                    14.830106
_cell_length_b                    15.07225
_cell_length_c                    15.033307
_cell_angle_alpha                 109.370338
_cell_angle_beta                  109.546823
_cell_angle_gamma                 109.18078
_cell_volume                      2596.76337502

loop_
_atom_site_label
_atom_site_type_symbol
_atom_type_description
_atom_site_fract_x
_atom_site_fract_y
_atom_site_fract_z
_atom_type_partial_charge
C1    C     C_R   0.250637 0.065136 0.973223 -0.113913
C2    C     C_R   0.806096 0.006608 0.097033 -0.128663
C3    C     C_R   0.772883 0.323009 0.322751 -0.167002
C4    C     C_R   0.139663 0.695452 0.693389 -0.111226
C5    C     C_R   0.498036 0.932139 0.297864 0.009819
C6    C     C_R   0.501332 0.952526 0.676302 -0.080163
C7    C     C_R   0.496932 0.306056 0.945816 0.071176
C8    C     C_R   0.505368 0.678728 0.947231 -0.025523
C9    C     C_R   0.107460 0.182455 0.741197 0.626927
C10   C     C_R   0.878404 0.818599 0.237793 0.655034
C11   C     C_R   0.208225 0.238127 0.746879 -0.275888
C12   C     C_R   0.767850 0.737355 0.170648 -0.306413
C13   C     C_R   0.295180 0.333964 0.842834 0.007440
C14   C     C_R   0.723815 0.677300 0.057836 0.023593
C15   C     C_R   0.277848 0.377960 0.929663 -0.124658
C16   C     C_R   0.791787 0.697569 0.012593 -0.096039
C17   C     C_R   0.175415 0.328686 0.920835 -0.112260
C18   C     C_R   0.903319 0.775062 0.079765 -0.148008
C19   C     C_R   0.090388 0.231870 0.827432 -0.331321
C20   C     C_R   0.947202 0.833348 0.192080 -0.311251
C21   C     C_R   0.422634 0.481324 0.839497 -0.220910
C22   C     C_R   0.597505 0.493907 0.997064 -0.144123
C23   C     C_R   0.746719 0.221493 0.313402 0.543207
C24   C     C_R   0.200485 0.788789 0.695727 0.516879
C25   C     C_R   0.517635 0.581717 0.917195 0.042749
C26   C     C_R   0.497939 0.397066 0.930287 0.063886
C27   C     C_R   0.610629 0.584488 0.988725 0.070423
C28   C     C_R   0.405267 0.393145 0.856702 0.059819
C29   C     C_R   0.848849 0.501918 0.480399 -0.086823
C30   C     C_R   0.058975 0.518574 0.537345 -0.087162
C31   C     C_R   0.941855 0.591503 0.574661 -0.131401
C32   C     C_R   0.966352 0.429133 0.445079 -0.061165
C33   C     C_R   0.045036 0.599652 0.601176 -0.016344
C34   C     C_R   0.863191 0.420982 0.417260 0.001775
C35   C     C_R   0.562293 0.900446 0.542833 -0.179562
C36   C     C_R   0.427853 0.957993 0.420960 -0.099255
C37   C     C_R   0.563388 0.897493 0.449950 -0.173287
C38   C     C_R   0.427751 0.962137 0.512922 -0.166409
C39   C     C_R   0.495472 0.926002 0.389642 0.193823
C40   C     C_R   0.494984 0.933886 0.574101 0.150811
C41   C     C_R   0.132993 0.064558 0.160685 -0.165990
C42   C     C_R   0.036918 0.160060 0.059384 -0.164236
C43   C     C_R   0.042219 0.068365 0.164355 -0.145771
C44   C     C_R   0.128240 0.157238 0.056547 -0.175104
C45   C     C_R   0.407487 0.901429 0.204990 -0.097276
C46   C     C_R   0.592702 0.031865 0.776715 0.009426
C47   C     C_R   0.986792 0.105337 0.103692 0.149462
C48   C     C_R   0.168216 0.098048 0.096001 0.146536
C49   C     C_R   0.589680 0.297335 0.994349 -0.124142
C50   C     C_R   0.410805 0.686075 0.939826 -0.000754
C51   C     C_R   0.589807 0.992479 0.297429 -0.152705
C52   C     C_R   0.409853 0.932196 0.688215 -0.130275
C53   C     C_R   0.406790 0.211110 0.912358 -0.143640
C54   C     C_R   0.593233 0.782665 0.017226 -0.128352
C55   C     C_R   0.745378 0.312360 0.221226 -0.206504
C56   C     C_R   0.197938 0.699200 0.788194 -0.247270
C57   C     C_R   0.253010 0.976761 0.066942 -0.142899
C58   C     C_R   0.806371 0.098482 0.008942 -0.165254
C59   C     C_R   0.226414 0.052565 0.051235 0.039757
C60   C     C_R   0.870762 0.070112 0.070288 0.040661
H1    H     H_    0.238397 0.115866 0.939657 0.092377
H2    H     H_    0.833939 0.982339 0.156171 0.094349
H3    H     H_    0.221072 0.203309 0.679753 0.142834
H4    H     H_    0.716163 0.720846 0.206273 0.154485
H5    H     H_    0.343669 0.452220 0.003806 0.145258
H6    H     H_    0.759214 0.650690 0.925958 0.143498
H7    H     H_    0.162284 0.364890 0.987278 0.164271
H8    H     H_    0.956366 0.788395 0.045056 0.147621
H9    H     H_    0.354376 0.477045 0.778627 0.131291
H10   H     H_    0.666173 0.502056 0.061629 0.124945
H11   H     H_    0.935257 0.656364 0.626174 0.172534
H12   H     H_    0.973694 0.364773 0.393664 0.171442
H13   H     H_    0.615223 0.879840 0.591433 0.121246
H14   H     H_    0.377938 0.983605 0.376217 0.103957
H15   H     H_    0.616980 0.874473 0.425844 0.122859
H16   H     H_    0.379001 0.992497 0.539023 0.123776
H17   H     H_    0.167075 0.025268 0.199089 0.105086
H18   H     H_    0.000390 0.195302 0.016856 0.117967
H19   H     H_    0.009620 0.032408 0.205243 0.106129
H20   H     H_    0.158720 0.191041 0.012914 0.118284
H21   H     H_    0.672776 0.014094 0.349693 0.163385
H22   H     H_    0.326287 0.879133 0.624021 0.156199
H23   H     H_    0.322257 0.179399 0.855825 0.120522
H24   H     H_    0.677126 0.810369 0.036940 0.129308
H25   H     H_    0.761166 0.377088 0.202362 0.117072
H26   H     H_    0.165334 0.644942 0.815237 0.174472
H27   H     H_    0.245193 0.949024 0.122605 0.069621
H28   H     H_    0.837347 0.164431 0.994722 0.147883
H29   H     H_    0.012080 0.195391 0.823636 0.131178
H30   H     H_    0.034718 0.889642 0.243444 0.130979
N1    N     N_R   0.293810 0.002730 0.945950 -0.036784
N2    N     N_R   0.706190 0.997270 0.054050 -0.046677
N3    N     N_R   0.706160 0.152130 0.208910 -0.081124
N4    N     N_R   0.293840 0.847870 0.791090 -0.085278
N5    N     N_R   0.443140 0.945920 0.152090 -0.076036
N6    N     N_R   0.556860 0.054080 0.847910 -0.049202
N7    N     N_R   0.556830 0.208940 0.002760 -0.069133
N8    N     N_R   0.443170 0.791060 0.997240 -0.043534
N9    N     N_R   0.556790 0.002750 0.208910 -0.050304
N10   N     N_R   0.443210 0.997250 0.791090 -0.041285
N11   N     N_R   0.443180 0.152110 0.945950 -0.045358
N12   N     N_R   0.556820 0.847890 0.054050 -0.050714
N13   N     N_R   0.706170 0.208950 0.152090 -0.069546
N14   N     N_R   0.293830 0.791050 0.847910 -0.072885
N15   N     N_R   0.293800 0.945910 0.002760 -0.048309
N16   N     N_R   0.706200 0.054090 0.997240 -0.045747
Ni1   Ni    Ni4+2 0.369690 0.999990 0.869700 0.253099
Ni2   Ni    Ni4+2 0.630310 0.000010 0.130300 0.213192
Ni3   Ni    Ni4+2 0.369670 0.869670 0.000000 0.228214
Ni4   Ni    Ni4+2 0.630330 0.130330 0.000000 0.231016
O1    O     O_3   0.027791 0.082226 0.649296 -0.653806
C61   C     C_3   0.968819 0.009189 0.675237 0.201113
H31   H     H_    0.900971 0.022711 0.680415 0.102643
H32   H     H_    0.023287 0.017103 0.753029 0.098721
C62   C     C_3   0.917765 0.893463 0.586170 -0.791610
H33   H     H_    0.982932 0.877960 0.576734 0.279579
H34   H     H_    0.874372 0.836188 0.608086 0.216728
H35   H     H_    0.857520 0.879009 0.507872 0.262966
O2    O     O_3   0.919692 0.873094 0.348984 -0.662228
C63   C     C_3   0.966227 0.986200 0.390335 0.229936
H36   H     H_    0.005798 0.016910 0.348072 0.056305
H37   H     H_    0.033160 0.027166 0.475400 0.184372
C64   C     C_3   0.880240 0.020571 0.389460 -0.840191
H38   H     H_    0.846970 0.999186 0.439875 0.261602
H39   H     H_    0.918632 0.109472 0.423145 0.263339
H40   H     H_    0.811414 0.979786 0.305181 0.222126
C65   C     C_2   0.738658 0.492614 0.449561 0.497883
H41   H     H_    0.665965 0.422052 0.376680 0.019824
O3    O     O_2   0.727642 0.563913 0.505192 -0.583289
C66   C     C_2   0.168916 0.527016 0.564470 0.485207
H42   H     H_    0.243717 0.599324 0.632873 0.014700
O4    O     O_2   0.177449 0.452724 0.510178 -0.577079
O5    O     O_3   0.789871 0.200705 0.396536 -0.655794
C67   C     C_3   0.766069 0.243566 0.479453 0.222162
H43   H     H_    0.675701 0.209846 0.446242 0.096823
H44   H     H_    0.806502 0.332850 0.520471 0.121750
C68   C     C_3   0.810491 0.215353 0.567081 -0.842253
H45   H     H_    0.900425 0.246992 0.600195 0.265655
H46   H     H_    0.795883 0.252470 0.634343 0.233353
H47   H     H_    0.768988 0.126593 0.534007 0.235402
O6    O     O_3   0.161409 0.834083 0.635774 -0.653083
C69   C     C_3   0.100935 0.760081 0.522662 0.192012
H48   H     H_    0.012539 0.715507 0.496879 0.144941
H49   H     H_    0.130371 0.701652 0.498434 0.091538
C70   C     C_3   0.110717 0.821660 0.460842 -0.835696
H50   H     H_    0.193044 0.852098 0.467857 0.227062
H51   H     H_    0.048025 0.766948 0.373333 0.237601
H52   H     H_    0.098042 0.891349 0.493558 0.278672
C71   C     C_2   0.296318 0.808475 0.153047 0.575386
H53   H     H_    0.235516 0.780819 0.070993 0.033956
O7    O     O_2   0.272031 0.760046 0.199683 -0.560797
C72   C     C_2   0.700284 0.101561 0.793325 0.465589
H54   H     H_    0.734766 0.067453 0.747463 -0.007204
O8    O     O_2   0.748838 0.198993 0.854122 -0.579423
C73   C     C_2   0.693644 0.341488 0.992252 0.564739
H55   H     H_    0.762042 0.334620 0.039102 0.030593
O9    O     O_2   0.701810 0.378951 0.932911 -0.541852
C74   C     C_2   0.305053 0.599843 0.911244 0.431914
H56   H     H_    0.256945 0.524088 0.835741 0.024952
O10   O     O_2   0.268257 0.614318 0.972898 -0.579533

loop_
_geom_bond_atom_site_label_1
_geom_bond_atom_site_label_2
_ccdc_geom_bond_type
C9    O1    S    
C46   C72   S    
N11   Ni1   S    
C73   O9    D    
N1    N15   A    
C57   N15   A    
O1    C61   S    
N3    N13   A    
C67   C68   S    
C54   H24   S    
C70   H50   S    
C64   H38   S    
C32   H12   S    
C38   H16   S    
C50   C74   S    
N9    Ni2   S    
C68   H46   S    
C7    C26   S    
N13   Ni4   S    
C35   C37   A    
C9    C19   A    
C11   H3    S    
C1    C59   A    
N3    Ni2   S    
C41   H17   S    
N14   Ni3   S    
C4    C24   A    
C2    C60   A    
C64   H39   S    
N5    N9    A    
C58   C60   A    
C62   H33   S    
C15   H5    S    
C55   N13   A    
C18   C20   A    
C21   C25   A    
C10   O2    S    
C47   C60   S    
C3    C55   A    
N2    Ni2   S    
C35   H13   S    
C53   N11   A    
C62   H34   S    
C31   C33   A    
C13   C28   S    
N12   Ni2   S    
C52   H22   S    
C10   C20   A    
C14   C27   S    
C30   C32   A    
C43   C47   A    
C51   H21   S    
C45   C71   S    
C63   C64   S    
C31   H11   S    
C37   H15   S    
N4    N14   A    
C1    N1    A    
N8    Ni3   S    
C54   N12   A    
C4    C56   A    
C74   O10   D    
C8    C25   S    
C41   C43   A    
C69   C70   S    
C42   C44   A    
C61   H32   S    
C61   H31   S    
C70   H51   S    
C63   H37   S    
C51   N9    A    
C68   H47   S    
N4    Ni1   S    
C50   N8    A    
C17   H7    S    
C23   O5    S    
N1    Ni1   S    
C44   H20   S    
C6    C40   S    
C7    C49   A    
N5    Ni3   S    
C8    C54   A    
C64   H40   S    
C67   H44   S    
C3    C34   S    
C3    C23   A    
N8    N12   A    
N6    Ni4   S    
C29   C34   A    
C52   N10   A    
C57   H27   S    
C58   H28   S    
C58   N16   A    
C32   C34   A    
C55   H25   S    
C66   O4    D    
C65   O3    D    
C19   H29   S    
C24   N4    A    
C56   H26   S    
C13   C15   A    
C24   O6    S    
C62   H35   S    
C5    C45   A    
C16   C18   A    
C2    N2    A    
C9    C11   A    
C56   N14   A    
C43   H19   S    
C10   C12   A    
N2    N16   A    
C21   C28   A    
C72   O8    D    
C42   H18   S    
C22   C27   A    
C29   C65   S    
C74   H56   S    
C14   C16   A    
C16   H6    S    
C7    C53   A    
C65   H41   S    
C45   N5    A    
C8    C50   A    
C70   H52   S    
C63   H36   S    
C48   C59   S    
N16   Ni4   S    
C15   C17   A    
C5    C39   S    
N15   Ni3   S    
C4    C33   S    
C36   H14   S    
N10   Ni1   S    
C6    C46   A    
C30   C33   A    
C49   C73   S    
C36   C39   A    
C12   C14   A    
C1    H1    S    
O2    C63   S    
C67   H43   S    
C25   C27   A    
C68   H45   S    
C26   C28   A    
C53   H23   S    
C71   O7    D    
C66   H42   S    
C37   C39   A    
C44   C48   A    
C30   C66   S    
C71   H53   S    
C38   C40   A    
N7    Ni4   S    
C11   C13   A    
O5    C67   S    
C20   H30   S    
C12   H4    S    
N6    N10   A    
C36   C38   A    
C17   C19   A    
C41   C48   A    
C35   C40   A    
C69   H49   S    
C42   C47   A    
C57   C59   A    
C49   N7    A    
C23   N3    A    
C46   N6    A    
C72   H54   S    
C29   C31   A    
C22   C26   A    
C21   H9    S    
C73   H55   S    
C69   H48   S    
C5    C51   A    
C6    C52   A    
O6    C69   S    
C18   H8    S    
C22   H10   S    
C61   C62   S    
N7    N11   A    
C2    H2    S    
