data_mof_unit_31728.cif
_audit_creation_date              2012-12-11T15:54:40-0500
_audit_creation_method            fapswitch 2.2
_symmetry_space_group_name_H-M    P1
_symmetry_Int_Tables_number       1
_space_group_crystal_system       triclinic
_cell_length_a                    6.927187
_cell_length_b                    14.593742
_cell_length_c                    16.072211
_cell_angle_alpha                 90.057039
_cell_angle_beta                  90.634827
_cell_angle_gamma                 90.150737
_cell_volume                      1624.69113967

loop_
_atom_site_label
_atom_site_type_symbol
_atom_type_description
_atom_site_fract_x
_atom_site_fract_y
_atom_site_fract_z
_atom_type_partial_charge
O1    O     O_R   0.638180 0.333920 0.163320 -0.537332
O2    O     O_R   0.361820 0.666080 0.836680 -0.537751
O3    O     O_R   0.308470 0.344960 0.336080 -0.530708
O4    O     O_R   0.691530 0.655040 0.663920 -0.526560
O5    O     O_R   0.138140 0.166110 0.336680 -0.559549
O6    O     O_R   0.861860 0.833890 0.663320 -0.562200
C1    C     C_R   0.478318 0.364759 0.366816 0.824923
C2    C     C_R   0.521602 0.635330 0.633118 0.818927
O7    O     O_R   0.308460 0.344950 0.163930 -0.507178
O8    O     O_R   0.691540 0.655050 0.836070 -0.505041
O9    O     O_R   0.138140 0.166100 0.163310 -0.554936
O10   O     O_R   0.861860 0.833900 0.836690 -0.555085
C3    C     C_R   0.476746 0.369127 0.136622 0.777480
C4    C     C_R   0.523304 0.630871 0.863403 0.772400
O11   O     O_R   0.638180 0.333930 0.336700 -0.499366
O12   O     O_R   0.361820 0.666070 0.663300 -0.493113
O13   O     O_3   0.471670 0.191340 0.250000 -0.402571
O14   O     O_3   0.528330 0.808660 0.750000 -0.406926
V1    V     V_3+5 0.196830 0.260900 0.250000 1.592599
V2    V     V_3+5 0.803170 0.739100 0.750000 1.625938
O15   O     O_R   0.808420 0.155070 0.163920 -0.561833
O16   O     O_R   0.191580 0.844930 0.836080 -0.563954
C5    C     C_R   0.976944 0.132733 0.134976 0.641245
C6    C     C_R   0.023057 0.867263 0.865027 0.642827
O17   O     O_R   0.808420 0.155080 0.336070 -0.520049
O18   O     O_R   0.191580 0.844920 0.663930 -0.522494
C7    C     C_R   0.978411 0.133721 0.365252 0.767852
C8    C     C_R   0.021590 0.866223 0.634742 0.757868
V3    V     V_3+5 0.696830 0.239130 0.250000 1.561230
V4    V     V_3+5 0.303170 0.760870 0.750000 1.576817
O19   O     O_3   0.971850 0.308690 0.250010 -0.318687
O20   O     O_3   0.028150 0.691310 0.749990 -0.313586
H1    H     H_    0.651295 0.849427 0.280811 0.130861
H2    H     H_    0.345732 0.150898 0.719794 0.140298
C9    C     C_R   0.189601 0.171245 0.520239 -0.029795
C10   C     C_R   0.810899 0.828462 0.479814 -0.034114
C11   C     C_R   0.280688 0.193655 0.595170 0.011336
C12   C     C_R   0.718248 0.806349 0.405161 -0.023991
C13   C     C_R   0.277829 0.132553 0.661090 -0.090267
C14   C     C_R   0.720144 0.867619 0.339352 -0.088502
C15   C     C_R   0.186685 0.048008 0.652018 -0.149754
C16   C     C_R   0.811820 0.952068 0.348267 -0.148383
C17   C     C_R   0.097458 0.021982 0.575682 0.055395
C18   C     C_R   0.902041 0.977962 0.424423 0.056044
C19   C     C_R   0.093861 0.086062 0.508869 0.070622
C20   C     C_R   0.906186 0.913775 0.491163 0.078654
C21   C     C_R   0.007602 0.935004 0.566372 -0.158714
C22   C     C_R   0.992381 0.064881 0.433634 -0.161502
H3    H     H_    0.195570 0.222346 0.472222 0.158743
H4    H     H_    0.806833 0.776969 0.527605 0.153756
H5    H     H_    0.351666 0.259436 0.602392 0.162520
H6    H     H_    0.647166 0.740583 0.397998 0.147531
H7    H     H_    0.184510 0.004488 0.706330 0.104822
H8    H     H_    0.813456 0.995631 0.293983 0.102616
C23   C     C_R   0.179704 0.976083 0.967568 -0.154181
C24   C     C_R   0.820303 0.023897 0.032448 -0.148680
H9    H     H_    0.320521 0.958770 0.943662 0.111559
H10   H     H_    0.679487 0.041208 0.056357 0.110691
C25   C     C_R   0.167914 0.039562 0.032767 -0.136920
C26   C     C_R   0.832093 0.960420 0.967249 -0.129881
H11   H     H_    0.300517 0.069328 0.056883 0.113378
H12   H     H_    0.699490 0.930654 0.943134 0.111313
C27   C     C_R   0.988037 0.064387 0.066166 -0.033525
C28   C     C_R   0.011968 0.935599 0.933846 -0.031877
C29   C     C_R   0.362203 0.506027 0.436424 -0.279459
C30   C     C_R   0.638416 0.494395 0.563176 -0.212901
H13   H     H_    0.256737 0.511493 0.386601 0.209618
H14   H     H_    0.746067 0.489541 0.612271 0.237119
C31   C     C_R   0.368660 0.573593 0.498518 0.444684
C32   C     C_R   0.629055 0.425823 0.501982 0.378819
C33   C     C_R   0.508474 0.567835 0.563591 -0.233684
C34   C     C_R   0.491025 0.432213 0.436392 -0.229606
C35   C     C_R   0.353959 0.511877 0.059717 0.423195
C36   C     C_R   0.647064 0.488422 0.940649 0.451748
C37   C     C_R   0.369288 0.571669 0.991677 -0.248740
C38   C     C_R   0.630829 0.428284 0.008400 -0.225834
H15   H     H_    0.268639 0.628008 0.985963 0.185030
H16   H     H_    0.730862 0.371726 0.014061 0.170533
C39   C     C_R   0.514582 0.562030 0.931983 -0.206290
C40   C     C_R   0.485718 0.438018 0.068131 -0.212216
S1    S     S_3+6 0.201578 0.664502 0.490373 -0.043501
O21   O     O_2   0.049173 0.651309 0.555094 -0.369601
O22   O     O_2   0.302376 0.754443 0.505119 -0.356076
O23   O     O_3   0.096469 0.666602 0.395455 -0.484507
H17   H     H_    0.983509 0.625100 0.399389 0.338894
S2    S     S_3+6 0.792087 0.333333 0.510895 -0.019231
O24   O     O_2   0.884297 0.330610 0.595973 -0.308287
O25   O     O_2   0.688149 0.244379 0.495225 -0.356667
O26   O     O_3   0.964265 0.347418 0.439417 -0.505983
H18   H     H_    0.001843 0.412713 0.444035 0.318497
S3    S     S_3+6 0.174417 0.535968 0.134334 0.023319
O27   O     O_2   0.010885 0.469026 0.123775 -0.313675
O28   O     O_2   0.257161 0.527108 0.220769 -0.350161
O29   O     O_3   0.087218 0.642608 0.121731 -0.489461
H19   H     H_    0.193835 0.683764 0.139612 0.336262
S4    S     S_3+6 0.828807 0.465183 0.866760 0.043649
O30   O     O_2   0.744811 0.470751 0.780340 -0.316833
O31   O     O_2   0.988133 0.534740 0.875533 -0.332693
O32   O     O_3   0.921480 0.359754 0.880912 -0.486335
H20   H     H_    0.025044 0.367488 0.923382 0.339128

loop_
_geom_bond_atom_site_label_1
_geom_bond_atom_site_label_2
_ccdc_geom_bond_type
C7    C22   S    
C30   H14   S    
C8    C21   S    
C23   C25   A    
O13   V3    S    
O4    C2    A    
V1    O19   S    
S1    O21   D    
C13   C15   A    
O9    V1    S    
C36   C38   A    
C9    C11   A    
C38   H16   S    
O3    C1    A    
C11   H5    S    
S2    O25   D    
C5    C27   S    
C12   H6    S    
O12   V4    S    
S4    O32   S    
C26   H12   S    
C31   C33   A    
O7    C3    A    
O5    C7    A    
O7    V1    S    
O6    C8    A    
O32   H20   S    
O8    V2    S    
C29   H13   S    
S4    O31   D    
C9    H3    S    
O3    V1    S    
O14   V4    S    
V4    O20   S    
C14   C16   A    
C3    C40   S    
C6    C28   S    
S4    O30   D    
C15   C17   A    
C16   C18   A    
S1    O22   D    
C18   C20   A    
O11   V3    S    
O17   V3    S    
C11   C13   A    
C25   H11   S    
H1    C14   S    
H2    C13   S    
C36   S4    S    
O23   H17   S    
C35   S3    S    
O8    C4    A    
S3    O27   D    
S2    O24   D    
C1    O11   A    
O15   V3    S    
C24   C26   A    
S3    O28   D    
C17   C19   A    
C30   C33   A    
C23   C28   A    
O10   V2    S    
O1    V3    S    
C24   C27   A    
C4    C39   S    
C10   C20   A    
C37   H15   S    
C15   H7    S    
O18   V4    S    
C36   C39   A    
C23   H9    S    
O16   C6    A    
O1    C3    A    
C35   C37   A    
C10   C12   A    
C9    C19   A    
C1    C34   S    
S1    O23   S    
C10   H4    S    
V2    O20   S    
C19   C22   A    
C20   C21   A    
C2    C33   S    
O16   V4    S    
O18   C8    A    
C38   C40   A    
S2    O26   S    
O5    V1    S    
O17   C7    A    
C29   C34   A    
O6    V2    S    
O10   C6    A    
C25   C27   A    
O2    V4    S    
C26   C28   A    
O15   C5    A    
V3    O19   S    
C16   H8    S    
S3    O29   S    
C12   C14   A    
C30   C32   A    
C37   C39   A    
C29   C31   A    
O9    C5    A    
O13   V1    S    
C35   C40   A    
C24   H10   S    
O14   V2    S    
O29   H19   S    
O2    C4    A    
C31   S1    S    
O4    V2    S    
C2    O12   A    
C32   C34   A    
O26   H18   S    
C17   C21   A    
C18   C22   A    
C32   S2    S    
