data_mof_unit_25575.cif
_audit_creation_date              2012-12-10T18:09:55-0500
_audit_creation_method            fapswitch 2.2
_symmetry_space_group_name_H-M    P1
_symmetry_Int_Tables_number       1
_space_group_crystal_system       triclinic
_cell_length_a                    10.720607
_cell_length_b                    12.578112
_cell_length_c                    13.194047
_cell_angle_alpha                 82.361403
_cell_angle_beta                  89.260008
_cell_angle_gamma                 102.698538
_cell_volume                      1718.59767218

loop_
_atom_site_label
_atom_site_type_symbol
_atom_type_description
_atom_site_fract_x
_atom_site_fract_y
_atom_site_fract_z
_atom_type_partial_charge
C1    C     C_R   0.483849 0.438587 0.691329 0.866791
C2    C     C_R   0.511916 0.459227 0.968621 0.039160
C3    C     C_R   0.457020 0.468645 0.872326 0.025617
C4    C     C_R   0.741229 0.498672 0.505290 0.851050
C5    C     C_R   0.505874 0.539995 0.032697 0.030022
C6    C     C_R   0.457755 0.634514 0.996274 0.095873
C7    C     C_R   0.398564 0.640045 0.901605 0.150654
C8    C     C_R   0.382799 0.548623 0.848225 0.192419
C9    C     C_R   0.539942 0.526177 0.134378 -0.231300
C10   C     C_R   0.489646 0.698171 0.162037 -0.186622
C11   C     C_R   0.481463 0.400151 0.800903 -0.092578
C12   C     C_3   0.121516 0.500208 0.495717 0.041503
C13   C     C_R   0.338637 0.090990 0.338720 -0.303444
C14   C     C_R   0.639352 0.797509 0.636039 0.033923
C15   C     C_R   0.663660 0.900794 0.667622 -0.248065
C16   C     C_R   0.516846 0.561455 0.308942 0.864575
C17   C     C_R   0.610171 0.982894 0.616483 -0.205409
C18   C     C_R   0.530436 0.961346 0.533686 0.022919
C19   C     C_R   0.509455 0.854691 0.504142 0.231961
C20   C     C_R   0.470910 0.040839 0.479214 -0.010275
C21   C     C_R   0.393881 0.012776 0.395741 0.190884
C22   C     C_R   0.372456 0.906945 0.370017 -0.299223
C23   C     C_3   0.065535 0.490248 0.386244 0.224560
C24   C     C_R   0.428399 0.829070 0.424112 -0.224868
C25   C     C_R   0.485041 0.148023 0.503430 -0.050466
C26   C     C_R   0.361177 0.196762 0.364009 0.009567
C27   C     C_R   0.258581 0.500895 0.496282 0.860342
C28   C     C_3   0.906808 0.400222 0.587373 0.401244
C29   C     C_3   0.051774 0.402747 0.575882 -0.395844
C30   C     C_3   0.919716 0.486212 0.396077 -0.479173
C31   C     C_3   0.959611 0.613410 0.528371 -0.175039
C32   C     C_3   0.878206 0.498476 0.507325 0.058520
C33   C     C_3   0.831053 0.283895 0.570320 -0.877878
C34   C     C_3   0.100235 0.608625 0.531730 -0.491319
C35   C     C_1   0.128403 0.587780 0.312600 0.143863
C36   C     C_3   0.345143 0.739114 0.861556 -0.904275
C37   C     C_3   0.872746 0.411840 0.699817 -0.885841
C38   C     C_3   0.273368 0.527894 0.777546 -0.913451
C39   C     C_3   0.085755 0.388252 0.339458 -0.910281
C40   C     C_1   0.922187 0.654458 0.621702 0.205831
C41   C     C_R   0.459305 0.716483 0.060176 -0.164873
C42   C     C_R   0.521618 0.599327 0.200051 -0.054398
C43   C     C_R   0.533764 0.309138 0.832227 -0.208121
C44   C     C_R   0.576068 0.292945 0.930541 -0.146052
C45   C     C_R   0.570747 0.369239 0.996755 -0.152284
H1    H     H_    0.157518 0.682782 0.482916 0.194456
H2    H     H_    0.311887 0.884038 0.307678 0.168709
H3    H     H_    0.280233 0.070913 0.274501 0.147120
H4    H     H_    0.536277 0.175103 0.567929 0.115169
H5    H     H_    0.676240 0.732331 0.677879 0.162023
H6    H     H_    0.632032 0.061506 0.643987 0.135448
H7    H     H_    0.722605 0.916830 0.732302 0.154408
H8    H     H_    0.405475 0.749185 0.401606 0.220172
H9    H     H_    0.097291 0.409268 0.650365 0.155927
H10   H     H_    0.068492 0.323969 0.555460 0.185702
H11   H     H_    0.862138 0.409782 0.371911 0.197068
H12   H     H_    0.893916 0.552776 0.341288 0.148713
H13   H     H_    0.949475 0.676918 0.463454 0.154030
H14   H     H_    0.134463 0.613162 0.610482 0.196328
H15   H     H_    0.837620 0.268192 0.490146 0.236438
H16   H     H_    0.868212 0.218960 0.618186 0.222578
H17   H     H_    0.729576 0.270848 0.595670 0.246776
H18   H     H_    0.309682 0.736855 0.783249 0.255799
H19   H     H_    0.265002 0.744826 0.913209 0.243787
H20   H     H_    0.421844 0.815191 0.857128 0.234525
H21   H     H_    0.873377 0.334898 0.752001 0.238118
H22   H     H_    0.943533 0.477184 0.729748 0.240577
H23   H     H_    0.478096 0.756999 0.212365 0.156021
H24   H     H_    0.776021 0.429102 0.706751 0.229694
H25   H     H_    0.297533 0.584693 0.705384 0.270011
H26   H     H_    0.251643 0.441627 0.761659 0.213702
H27   H     H_    0.184876 0.541028 0.813783 0.242273
H28   H     H_    0.046842 0.310358 0.390566 0.240654
H29   H     H_    0.035890 0.382851 0.266292 0.234291
H30   H     H_    0.188361 0.394000 0.320598 0.250841
H31   H     H_    0.427333 0.791085 0.035204 0.150555
H32   H     H_    0.569264 0.453279 0.167721 0.148485
H33   H     H_    0.551630 0.255665 0.778349 0.147735
H34   H     H_    0.616656 0.356213 0.067945 0.124776
H35   H     H_    0.621178 0.224968 0.953331 0.138574
H36   H     H_    0.321850 0.259007 0.319261 0.135009
N1    N     N_R   0.433240 0.222190 0.444680 -0.102307
N2    N     N_R   0.566070 0.776970 0.554790 -0.136591
N3    N     N_1   0.177424 0.663731 0.255175 -0.243990
N4    N     N_1   0.895278 0.686799 0.695211 -0.238592
O1    O     O_R   0.468120 0.366740 0.627160 -0.623227
O2    O     O_R   0.510770 0.544830 0.662520 -0.607608
O3    O     O_R   0.663880 0.410950 0.482330 -0.618400
O4    O     O_R   0.706530 0.589040 0.517700 -0.621624
O5    O     O_R   0.489230 0.455170 0.337480 -0.622907
O6    O     O_R   0.531880 0.633260 0.372840 -0.636543
O7    O     O_R   0.293470 0.410960 0.482300 -0.615154
O8    O     O_R   0.336120 0.589050 0.517670 -0.653820
Zn1   Zn    Zn3+2 0.471520 0.381090 0.476390 0.927545
Zn2   Zn    Zn3+2 0.528480 0.618910 0.523610 0.926534

loop_
_geom_bond_atom_site_label_1
_geom_bond_atom_site_label_2
_ccdc_geom_bond_type
C1    O2    A    
C38   H25   S    
C16   O5    A    
N1    Zn1   S    
C37   H24   S    
C12   C29   S    
C10   C42   A    
C7    C36   S    
C1    C11   S    
C17   H6    S    
C7    C8    A    
C14   H5    S    
C43   H33   S    
C12   C23   S    
C9    C42   A    
C31   H13   S    
C28   C29   S    
C5    C6    A    
C20   C25   A    
C30   H12   S    
C31   C40   S    
C18   C19   A    
C39   H29   S    
O1    Zn1   S    
C33   H17   S    
C6    C41   A    
O2    Zn2   S    
C11   C43   A    
C34   H1    S    
C39   H30   S    
C36   H18   S    
C22   H2    S    
O8    Zn2   S    
C21   C22   A    
C10   C41   A    
C8    C38   S    
C14   N2    A    
C19   N2    A    
O5    Zn1   S    
O3    Zn1   S    
C2    C45   A    
C38   H27   S    
C12   C27   S    
C23   C30   S    
C44   H35   S    
C3    C8    A    
C36   H20   S    
C29   H10   S    
C24   H8    S    
C30   H11   S    
C40   N4    T    
O4    Zn2   S    
C43   C44   A    
C5    C9    A    
C31   C32   S    
C28   C32   S    
N2    Zn2   S    
C37   H21   S    
O7    Zn1   S    
C17   C18   A    
C31   C34   S    
C13   C21   A    
C27   O7    A    
C45   H34   S    
C9    H32   S    
C15   H7    S    
C4    C32   S    
C33   H16   S    
C28   C33   S    
C26   H36   S    
C23   C35   S    
C25   N1    A    
C22   C24   A    
C13   C26   A    
C27   O8    A    
C2    C5    A    
C12   C34   S    
C16   C42   S    
C44   C45   A    
C4    O4    A    
C1    O1    A    
C15   C17   A    
C38   H26   S    
C13   H3    S    
C35   N3    T    
C6    C7    A    
C4    O3    A    
C10   H23   S    
C33   H15   S    
C19   C24   A    
C41   H31   S    
C30   C32   S    
C34   H14   S    
C28   C37   S    
C23   C39   S    
C37   H22   S    
C2    C3    A    
C18   C20   A    
C39   H28   S    
C25   H4    S    
C3    C11   A    
O6    Zn2   S    
C20   C21   A    
C16   O6    A    
C26   N1    A    
C29   H9    S    
C14   C15   A    
C36   H19   S    
