data_mof_unit_32114.cif
_audit_creation_date              2012-12-10T18:22:25-0500
_audit_creation_method            fapswitch 2.2
_symmetry_space_group_name_H-M    P1
_symmetry_Int_Tables_number       1
_space_group_crystal_system       triclinic
_cell_length_a                    23.491357
_cell_length_b                    10.804121
_cell_length_c                    9.523365
_cell_angle_alpha                 89.359839
_cell_angle_beta                  92.602942
_cell_angle_gamma                 90.515977
_cell_volume                      2414.33110942

loop_
_atom_site_label
_atom_site_type_symbol
_atom_type_description
_atom_site_fract_x
_atom_site_fract_y
_atom_site_fract_z
_atom_type_partial_charge
C1    C     C_R   0.500158 0.260396 0.500626 0.845959
C2    C     C_R   0.497726 0.739724 0.499151 0.837972
C3    C     C_R   0.238172 0.555818 0.373179 0.062812
C4    C     C_R   0.756724 0.357275 0.497090 0.055688
C5    C     C_R   0.297627 0.567339 0.388045 0.360398
C6    C     C_R   0.697092 0.366568 0.508470 0.377173
C7    C     C_R   0.328178 0.498276 0.492538 -0.227339
C8    C     C_R   0.671129 0.483373 0.507701 -0.225767
C9    C     C_R   0.298218 0.428603 0.592620 -0.016194
C10   C     C_R   0.705496 0.588998 0.521594 -0.036113
C11   C     C_R   0.238018 0.430022 0.587045 0.459851
C12   C     C_R   0.765034 0.577219 0.526724 0.488138
C13   C     C_R   0.208209 0.489551 0.474091 0.157060
C14   C     C_R   0.790332 0.466652 0.479851 0.074630
C15   C     C_3   0.521780 0.038209 0.620661 0.088032
C16   C     C_3   0.472223 0.962567 0.378573 0.061362
C17   C     C_3   0.549566 0.957334 0.512238 0.106520
C18   C     C_3   0.444427 0.044479 0.487066 0.081927
C19   C     C_3   0.495350 0.875785 0.497940 -0.087149
C20   C     C_3   0.499102 0.124886 0.501493 -0.070398
C21   C     C_3   0.467309 0.958732 0.606351 0.102382
C22   C     C_3   0.526717 0.042088 0.392838 0.120640
C23   C     C_R   0.391131 0.499737 0.497577 0.861235
C24   C     C_R   0.608610 0.494404 0.502578 0.910798
C25   C     C_3   0.516518 0.605820 0.049345 0.468048
C26   C     C_3   0.483564 0.394014 0.950678 0.475761
C27   C     C_3   0.465945 0.582873 0.944959 0.440639
C28   C     C_3   0.534064 0.416869 0.055331 0.429700
C29   C     C_3   0.550349 0.522388 0.956511 -0.044197
C30   C     C_3   0.449775 0.477248 0.043373 -0.044186
C31   C     C_R   0.877329 0.578184 0.409508 0.642634
C32   C     C_R   0.119425 0.374678 0.443547 0.635558
C33   C     C_R   0.878657 0.363363 0.398476 0.644987
C34   C     C_R   0.117214 0.593360 0.473258 0.601050
C35   C     C_R   0.938868 0.361469 0.412307 -0.076449
C36   C     C_R   0.057356 0.594047 0.452325 -0.075005
C37   C     C_R   0.968191 0.475224 0.429710 -0.136629
C38   C     C_R   0.028318 0.478961 0.441758 -0.118761
C39   C     C_R   0.937114 0.585901 0.424556 -0.155023
C40   C     C_R   0.059408 0.367680 0.440315 -0.150716
C41   C     C_R   0.970075 0.250309 0.411119 0.064016
C42   C     C_R   0.026017 0.705719 0.441719 0.062568
C43   C     C_R   0.029774 0.252978 0.433123 0.446544
C44   C     C_R   0.965911 0.700928 0.434757 0.465491
Cu1   Cu    Cu3+1 0.500010 0.499990 0.643150 1.037474
Cu2   Cu    Cu3+1 0.499990 0.500010 0.356850 1.052131
N1    N     N_R   0.849570 0.467829 0.433025 -0.447370
N2    N     N_R   0.146809 0.485553 0.463958 -0.430580
N3    N     N_3   0.500040 0.499970 0.858290 -0.248959
N4    N     N_3   0.499960 0.500030 0.141710 -0.249897
O1    O     O_R   0.500030 0.316850 0.620870 -0.548594
O2    O     O_R   0.499970 0.683150 0.379130 -0.529949
O3    O     O_R   0.500000 0.316860 0.379090 -0.553110
O4    O     O_R   0.500000 0.683140 0.620910 -0.552097
O5    O     O_R   0.417890 0.499960 0.620920 -0.519763
O6    O     O_R   0.582110 0.500040 0.379080 -0.534829
O7    O     O_R   0.417870 0.499970 0.379140 -0.563950
O8    O     O_R   0.582130 0.500030 0.620860 -0.589839
O9    O     O_2   0.847800 0.677592 0.361220 -0.442265
O10   O     O_2   0.150425 0.272256 0.424094 -0.471007
O11   O     O_2   0.850864 0.268010 0.335937 -0.484483
O12   O     O_2   0.145932 0.698843 0.505036 -0.528567
N5    N     N_3   0.941159 0.133617 0.393941 -0.483833
H1    H     H_    0.948758 0.080700 0.484977 0.228112
H2    H     H_    0.958335 0.087582 0.309857 0.259196
N6    N     N_3   0.055275 0.823146 0.432404 -0.514050
H3    H     H_    0.076203 0.824378 0.337790 0.248629
H4    H     H_    0.026938 0.896919 0.424674 0.264163
O13   O     O_3   0.431346 0.673572 0.876953 -0.543903
C45   C     C_3   0.392548 0.721550 0.970652 -0.302188
H5    H     H_    0.410673 0.729745 0.080195 0.198339
H6    H     H_    0.353068 0.664326 0.967741 0.179532
H7    H     H_    0.379994 0.815803 0.935291 0.186547
O14   O     O_3   0.568407 0.326728 0.125211 -0.523646
C46   C     C_3   0.606285 0.275009 0.032074 -0.326443
H8    H     H_    0.645484 0.332696 0.028477 0.164589
H9    H     H_    0.586638 0.261204 0.925124 0.165711
H10   H     H_    0.619694 0.182794 0.072506 0.201108
O15   O     O_3   0.533411 0.719915 0.109328 -0.556404
C47   C     C_3   0.559179 0.796241 0.008563 -0.340196
H11   H     H_    0.541523 0.782693 0.899297 0.191138
H12   H     H_    0.605862 0.781124 0.012938 0.194172
H13   H     H_    0.552323 0.894399 0.034918 0.144175
O16   O     O_3   0.466222 0.280170 0.890686 -0.554773
C48   C     C_3   0.438746 0.205252 0.990073 -0.341151
H14   H     H_    0.392089 0.220298 0.980477 0.193402
H15   H     H_    0.454599 0.220247 0.100578 0.188385
H16   H     H_    0.445818 0.106586 0.966579 0.141623
N7    N     N_3   0.606588 0.551738 0.905960 -0.547928
H17   H     H_    0.633854 0.565606 0.994246 0.216853
H18   H     H_    0.621596 0.473821 0.856383 0.225925
N8    N     N_3   0.393658 0.445994 0.092774 -0.561506
H19   H     H_    0.366571 0.432932 0.003989 0.221409
H20   H     H_    0.378546 0.523312 0.142155 0.284280
O17   O     O_3   0.058626 0.141956 0.444863 -0.557487
C49   C     C_3   0.068422 0.113677 0.589168 -0.234346
H21   H     H_    0.027749 0.097881 0.642199 0.112724
H22   H     H_    0.093778 0.187211 0.644782 0.189715
H23   H     H_    0.093346 0.027099 0.599063 0.221707
O18   O     O_3   0.935148 0.809199 0.441151 -0.545661
C50   C     C_3   0.928400 0.836670 0.584050 -0.244536
H24   H     H_    0.968894 0.872900 0.633395 0.132951
H25   H     H_    0.913512 0.755108 0.645114 0.165665
H26   H     H_    0.895613 0.909361 0.590491 0.207174
N9    N     N_3   0.207664 0.612038 0.255539 -0.550090
H27   H     H_    0.223905 0.577661 0.163411 0.226057
H28   H     H_    0.215175 0.707497 0.257611 0.257766
N10   N     N_3   0.782846 0.240035 0.527515 -0.502786
H29   H     H_    0.763539 0.173443 0.461706 0.286447
H30   H     H_    0.775340 0.215054 0.631415 0.208979
O19   O     O_3   0.325365 0.646736 0.298797 -0.605606
C51   C     C_3   0.332453 0.762390 0.364905 -0.303558
H31   H     H_    0.342357 0.832512 0.283761 0.202895
H32   H     H_    0.368575 0.759553 0.444333 0.183276
H33   H     H_    0.293130 0.793986 0.414611 0.168791
O20   O     O_3   0.664944 0.259868 0.523168 -0.565454
C52   C     C_3   0.655218 0.240701 0.667176 -0.345955
H34   H     H_    0.612611 0.276050 0.689904 0.214936
H35   H     H_    0.687705 0.283851 0.741078 0.123472
H36   H     H_    0.655946 0.140039 0.690021 0.201377
N11   N     N_3   0.329347 0.356709 0.698354 -0.530158
H37   H     H_    0.349731 0.285619 0.647247 0.248408
H38   H     H_    0.302315 0.313661 0.768273 0.254435
N12   N     N_3   0.679548 0.707666 0.532114 -0.561197
H39   H     H_    0.659463 0.725910 0.433915 0.247000
H40   H     H_    0.710134 0.777585 0.547319 0.277512
O21   O     O_3   0.207965 0.366481 0.686931 -0.565505
C53   C     C_3   0.196645 0.448891 0.795825 -0.337708
H41   H     H_    0.168890 0.526044 0.757003 0.181513
H42   H     H_    0.236726 0.486279 0.846682 0.165615
H43   H     H_    0.173539 0.397621 0.877536 0.196768
O22   O     O_3   0.797802 0.670698 0.588227 -0.542925
C54   C     C_3   0.808685 0.639157 0.731009 -0.352042
H44   H     H_    0.837314 0.557771 0.741845 0.159827
H45   H     H_    0.768541 0.621122 0.786118 0.174104
H46   H     H_    0.830520 0.718328 0.784190 0.190963
N13   N     N_3   0.607616 0.913104 0.525845 -0.596912
H47   H     H_    0.634813 0.989462 0.516734 0.261429
H48   H     H_    0.613883 0.877833 0.627913 0.229229
N14   N     N_3   0.386783 0.093141 0.475088 -0.599732
H49   H     H_    0.383560 0.147259 0.383505 0.213510
H50   H     H_    0.358929 0.018074 0.460458 0.235843
N15   N     N_3   0.550476 0.074742 0.752355 -0.621222
H51   H     H_    0.569604 0.996253 0.797686 0.187521
H52   H     H_    0.519238 0.099994 0.819769 0.266929
N16   N     N_3   0.443589 0.924723 0.247288 -0.611238
H53   H     H_    0.424110 0.002861 0.201876 0.191116
H54   H     H_    0.474868 0.898940 0.179855 0.264716
N17   N     N_3   0.433656 0.916326 0.721958 -0.545063
H55   H     H_    0.410102 0.991621 0.754194 0.226950
H56   H     H_    0.462275 0.895064 0.805484 0.235417
N18   N     N_3   0.560610 0.084317 0.277534 -0.505761
H57   H     H_    0.584332 0.009074 0.245915 0.223881
H58   H     H_    0.532239 0.105430 0.193469 0.227067

loop_
_geom_bond_atom_site_label_1
_geom_bond_atom_site_label_2
_ccdc_geom_bond_type
N6    H4    S    
N5    H2    S    
C50   H24   S    
C18   C21   S    
C41   C43   A    
N10   H29   S    
N9    H27   S    
C36   C42   A    
O19   C51   S    
C28   O14   S    
C53   H41   S    
C29   N7    S    
C29   N3    S    
Cu1   Cu2   S    
C3    N9    S    
N9    H28   S    
C28   C29   S    
C35   C37   A    
N14   H50   S    
C10   N12   S    
C52   H35   S    
C11   C13   A    
Cu1   O1    S    
N15   H51   S    
C49   H23   S    
Cu2   O2    S    
C34   O12   S    
O20   C52   S    
C16   N16   S    
C31   O9    S    
C1    O3    A    
C25   N4    S    
O18   C50   S    
C8    C24   S    
C28   N4    S    
C40   C43   A    
N15   H52   S    
O17   C49   S    
N10   H30   S    
O22   C54   S    
C49   H22   S    
C54   H46   S    
C9    N11   S    
C45   H5    S    
C21   N17   S    
N7    H18   S    
C18   C20   S    
C3    C13   A    
N6    H3    S    
C30   N4    S    
C50   H25   S    
C38   C40   A    
C31   N1    A    
C27   C30   S    
C32   N2    A    
C42   C44   A    
C47   H13   S    
C15   C17   S    
C10   C12   A    
C51   H32   S    
C51   H31   S    
N16   H54   S    
C48   H15   S    
C25   C29   S    
C15   C20   S    
C22   N18   S    
Cu1   O8    S    
O14   C46   S    
C24   O8    A    
C42   N6    S    
N14   H49   S    
C4    C6    A    
C2    O4    A    
C52   H36   S    
C5    C7    A    
C17   C19   S    
C6    C8    A    
C5    O19   S    
C48   H14   S    
N5    H1    S    
C11   O21   S    
C46   H8    S    
C37   C38   A    
N13   H48   S    
C43   O17   S    
Cu1   N3    S    
C49   H21   S    
C45   H7    S    
N8    H20   S    
O16   C48   S    
C18   N14   S    
C46   H9    S    
C6    O20   S    
N11   H37   S    
C39   C44   A    
C27   O13   S    
C2    O2    A    
C15   N15   S    
C16   C18   S    
C20   C22   S    
Cu1   O4    S    
C26   C30   S    
C50   H26   S    
C9    C11   A    
Cu2   O7    S    
C54   H44   S    
C33   N1    A    
C26   N3    S    
C24   O6    A    
C41   N5    S    
O21   C53   S    
C53   H43   S    
N12   H40   S    
N16   H53   S    
N18   H58   S    
C48   H16   S    
C23   O7    A    
C1    C20   S    
C16   C22   S    
C12   O22   S    
C19   C21   S    
C2    C19   S    
C25   O15   S    
C8    C10   A    
C12   C14   A    
C47   H11   S    
C3    C5    A    
C53   H42   S    
C13   N2    S    
C17   N13   S    
C23   O5    A    
C14   N1    S    
C25   C27   S    
N13   H47   S    
Cu2   N4    S    
C26   C28   S    
C17   C22   S    
C1    O1    A    
N17   H56   S    
C37   C39   A    
N17   H55   S    
C26   O16   S    
C44   O18   S    
C16   C19   S    
C7    C23   S    
Cu2   O3    S    
C36   C38   A    
N8    H19   S    
C33   C35   A    
C47   H12   S    
C31   C39   A    
C34   C36   A    
C32   C40   A    
C4    C14   A    
O13   C45   S    
C35   C41   A    
C46   H10   S    
N11   H38   S    
O15   C47   S    
C7    C9    A    
C15   C21   S    
C34   N2    A    
N18   H57   S    
Cu1   O5    S    
C33   O11   S    
Cu2   O6    S    
C54   H45   S    
C32   O10   S    
C45   H6    S    
C4    N10   S    
N7    H17   S    
C52   H34   S    
C51   H33   S    
C27   N3    S    
N12   H39   S    
C30   N8    S    
