data_mof_unit_6256.cif
_audit_creation_date              2012-12-10T20:53:07-0500
_audit_creation_method            fapswitch 2.2
_symmetry_space_group_name_H-M    P1
_symmetry_Int_Tables_number       1
_space_group_crystal_system       triclinic
_cell_length_a                    18.340565
_cell_length_b                    18.34764
_cell_length_c                    18.353769
_cell_angle_alpha                 59.833578
_cell_angle_beta                  59.834312
_cell_angle_gamma                 59.879611
_cell_volume                      4352.25028814

loop_
_atom_site_label
_atom_site_type_symbol
_atom_type_description
_atom_site_fract_x
_atom_site_fract_y
_atom_site_fract_z
_atom_type_partial_charge
C1    C     C_R   0.390209 0.111382 0.108831 0.674270
C2    C     C_R   0.440828 0.713700 0.706639 -0.088803
C3    C     C_R   0.039828 0.527191 0.904880 -0.056651
C4    C     C_R   0.459318 0.961947 0.093959 -0.049395
C5    C     C_R   0.540834 0.038075 0.906014 -0.052696
C6    C     C_R   0.945197 0.946862 0.552112 0.035585
C7    C     C_R   0.054812 0.053182 0.447856 0.039765
C8    C     C_R   0.945258 0.552222 0.946762 0.038305
C9    C     C_R   0.054670 0.447483 0.053270 0.042305
C10   C     C_R   0.552449 0.945120 0.946918 0.039832
C11   C     C_R   0.447803 0.054897 0.053044 0.043375
C12   C     C_R   0.274973 0.291627 0.559404 -0.079134
C13   C     C_R   0.714630 0.706669 0.441028 -0.092587
C14   C     C_R   0.220853 0.535144 0.349181 0.353050
C15   C     C_R   0.778580 0.465508 0.643266 0.371580
C16   C     C_R   0.534980 0.349336 0.220846 0.356096
C17   C     C_R   0.465808 0.643001 0.778843 0.376396
C18   C     C_R   0.348802 0.220650 0.534823 0.356629
C19   C     C_R   0.643643 0.778786 0.465871 0.375805
C20   C     C_R   0.142039 0.553700 0.338373 -0.033594
C21   C     C_R   0.609825 0.888786 0.890994 0.677869
C22   C     C_R   0.854743 0.447764 0.658271 0.044783
C23   C     C_R   0.553587 0.338533 0.142059 -0.031471
C24   C     C_R   0.447900 0.658161 0.854929 0.046585
C25   C     C_R   0.338178 0.141606 0.553791 -0.031989
C26   C     C_R   0.658426 0.855225 0.447707 0.046287
C27   C     C_R   0.134147 0.600916 0.251517 0.307305
C28   C     C_R   0.858634 0.401471 0.746791 0.247018
C29   C     C_R   0.600791 0.251717 0.134108 0.309273
C30   C     C_R   0.401524 0.746687 0.858766 0.249022
C31   C     C_R   0.251383 0.133390 0.601154 0.308054
C32   C     C_R   0.110928 0.109324 0.390182 0.683231
C33   C     C_R   0.746872 0.859493 0.401267 0.247958
C34   C     C_R   0.207129 0.623543 0.177424 0.317838
C35   C     C_R   0.783563 0.378099 0.818437 0.315157
C36   C     C_R   0.623389 0.177633 0.207019 0.317919
C37   C     C_R   0.378094 0.818192 0.783756 0.315442
C38   C     C_R   0.177157 0.206254 0.623651 0.318209
C39   C     C_R   0.818673 0.784578 0.377957 0.315844
C40   C     C_R   0.286054 0.602447 0.189944 -0.192268
C41   C     C_R   0.708319 0.398263 0.801038 -0.114640
C42   C     C_R   0.602244 0.190134 0.285927 -0.193591
C43   C     C_R   0.889092 0.890674 0.609809 0.685049
C44   C     C_R   0.398458 0.800663 0.708563 -0.116818
C45   C     C_R   0.189493 0.285409 0.602162 -0.194604
C46   C     C_R   0.801511 0.709029 0.398562 -0.118504
C47   C     C_R   0.012894 0.580329 0.475379 0.266037
C48   C     C_R   0.982648 0.422948 0.522573 0.224946
C49   C     C_R   0.580205 0.475643 0.013116 0.260429
C50   C     C_R   0.422928 0.522592 0.982856 0.222472
C51   C     C_R   0.475315 0.012802 0.580375 0.262662
C52   C     C_R   0.522562 0.982732 0.422972 0.222907
C53   C     C_R   0.945520 0.553010 0.554621 0.007180
C54   C     C_R   0.110373 0.390143 0.109843 0.680244
C55   C     C_R   0.052659 0.447940 0.444498 -0.022760
C56   C     C_R   0.552975 0.554721 0.945698 0.006043
C57   C     C_R   0.447952 0.444503 0.052732 -0.025129
C58   C     C_R   0.554608 0.945614 0.553018 0.006244
C59   C     C_R   0.444466 0.052592 0.447968 -0.024218
C60   C     C_R   0.930869 0.473840 0.579040 -0.026768
C61   C     C_R   0.067189 0.527571 0.419624 -0.043615
C62   C     C_R   0.473859 0.579054 0.931064 -0.022984
C63   C     C_R   0.527508 0.419758 0.067299 -0.037952
C64   C     C_R   0.579076 0.931104 0.473814 -0.024576
C65   C     C_R   0.889369 0.609832 0.890398 0.680453
C66   C     C_R   0.419533 0.066986 0.527637 -0.040396
C67   C     C_R   0.110586 0.390365 0.389723 0.516342
C68   C     C_R   0.889186 0.609746 0.610186 0.561856
C69   C     C_R   0.390371 0.389705 0.110590 0.495208
C70   C     C_R   0.609747 0.610222 0.889267 0.537114
C71   C     C_R   0.389723 0.110528 0.390366 0.502660
C72   C     C_R   0.610177 0.889266 0.609751 0.546919
C73   C     C_R   0.920396 0.189772 0.437573 0.358038
C74   C     C_R   0.079680 0.810299 0.561954 0.364329
C75   C     C_R   0.919402 0.448917 0.189852 0.359698
C76   C     C_R   0.291932 0.559913 0.275483 -0.078135
C77   C     C_R   0.080318 0.552215 0.810059 0.358681
C78   C     C_R   0.421449 0.922781 0.188139 0.350104
C79   C     C_R   0.578103 0.077389 0.811759 0.355810
C80   C     C_R   0.829049 0.229763 0.454255 -0.078851
C81   C     C_R   0.171004 0.770310 0.545468 -0.077609
C82   C     C_R   0.827418 0.471401 0.229979 -0.088019
C83   C     C_R   0.172299 0.528840 0.769835 -0.085802
C84   C     C_R   0.430845 0.832885 0.227187 -0.080987
C85   C     C_R   0.569387 0.167122 0.772800 -0.077517
C86   C     C_R   0.773315 0.178582 0.500325 0.199395
C87   C     C_R   0.706367 0.440465 0.714085 -0.091491
C88   C     C_R   0.226673 0.821499 0.499836 0.198761
C89   C     C_R   0.771581 0.517059 0.179036 0.212569
C90   C     C_R   0.228475 0.480353 0.820734 0.214973
C91   C     C_R   0.478552 0.777309 0.175800 0.215029
C92   C     C_R   0.523357 0.222246 0.824449 0.215666
C93   C     C_R   0.810201 0.084309 0.532289 0.295832
C94   C     C_R   0.189771 0.915772 0.467969 0.300891
C95   C     C_R   0.809125 0.542388 0.084852 0.294871
C96   C     C_R   0.191181 0.453556 0.915055 0.298612
C97   C     C_R   0.518967 0.812838 0.082450 0.297801
C98   C     C_R   0.559709 0.275646 0.291853 -0.075854
C99   C     C_R   0.483593 0.186540 0.917880 0.301674
C100  C     C_R   0.904806 0.041435 0.517841 -0.057580
C101  C     C_R   0.095193 0.958630 0.482211 -0.056320
C102  C     C_R   0.904315 0.523234 0.041623 -0.059527
C103  C     C_R   0.095731 0.475350 0.958335 -0.055031
C104  C     C_R   0.510842 0.906110 0.040473 -0.058057
C105  C     C_R   0.490136 0.093702 0.959631 -0.055641
C106  C     C_R   0.960628 0.094944 0.467157 -0.054327
C107  C     C_R   0.039400 0.905116 0.532689 -0.059431
C108  C     C_R   0.960080 0.472790 0.095088 -0.054483
F1    F     F_    0.967659 0.246373 0.393900 -0.599622
F2    F     F_    0.505753 0.558808 0.775641 -0.635377
F3    F     F_    0.431368 0.228019 0.494334 -0.625404
F4    F     F_    0.559556 0.775099 0.506024 -0.639187
F5    F     F_    0.032491 0.753734 0.604986 -0.574326
F6    F     F_    0.966957 0.405326 0.246093 -0.591801
F7    F     F_    0.032537 0.598011 0.753753 -0.582801
F8    F     F_    0.376615 0.969442 0.245325 -0.631404
F9    F     F_    0.621610 0.031037 0.754473 -0.614355
F10   F     F_    0.227849 0.494973 0.431812 -0.631012
F11   F     F_    0.775318 0.505334 0.559104 -0.645648
F12   F     F_    0.494777 0.431949 0.227893 -0.622825
H1    H     H_    0.801378 0.302080 0.430645 0.143212
H2    H     H_    0.380522 0.854874 0.651304 0.166332
H3    H     H_    0.133104 0.341984 0.619350 0.134016
H4    H     H_    0.855950 0.651821 0.380761 0.165867
H5    H     H_    0.351631 0.546696 0.284897 0.236230
H6    H     H_    0.648785 0.453272 0.701305 0.225631
H7    H     H_    0.546451 0.285047 0.351538 0.236484
H8    H     H_    0.453797 0.700811 0.649097 0.226183
H9    H     H_    0.284251 0.351512 0.545863 0.232046
H10   H     H_    0.702017 0.648858 0.454180 0.221571
H11   H     H_    0.332329 0.714938 0.511169 0.330109
H12   H     H_    0.198710 0.697995 0.568865 0.145683
H13   H     H_    0.667621 0.285149 0.489231 0.330161
H14   H     H_    0.335130 0.481280 0.713924 0.334296
H15   H     H_    0.664685 0.516500 0.285524 0.334274
H16   H     H_    0.546100 0.326012 0.719463 0.337713
H17   H     H_    0.456201 0.673484 0.280923 0.337688
H18   H     H_    0.062500 0.678487 0.393610 0.345793
H19   H     H_    0.971795 0.344663 0.489139 0.379494
H20   H     H_    0.678132 0.394277 0.063007 0.348333
H21   H     H_    0.344587 0.489206 0.972096 0.355670
H22   H     H_    0.393570 0.062401 0.678432 0.347639
H23   H     H_    0.799346 0.452578 0.302184 0.142867
H24   H     H_    0.489027 0.971803 0.344830 0.365998
H25   H     H_    0.693725 0.071200 0.574467 0.406434
H26   H     H_    0.306239 0.928868 0.425955 0.396200
H27   H     H_    0.693509 0.580043 0.073030 0.397883
H28   H     H_    0.309300 0.404267 0.926926 0.383828
H29   H     H_    0.553524 0.700339 0.066211 0.379335
H30   H     H_    0.454080 0.297052 0.934792 0.369429
H31   H     H_    0.011229 0.605651 0.292389 0.327749
H32   H     H_    0.979669 0.399620 0.710620 0.326290
H33   H     H_    0.605401 0.292590 0.011305 0.324934
H34   H     H_    0.200143 0.548848 0.697556 0.144787
H35   H     H_    0.400036 0.710803 0.979515 0.322879
H36   H     H_    0.292495 0.010494 0.605926 0.326071
H37   H     H_    0.710486 0.980341 0.399812 0.323964
H38   H     H_    0.255893 0.677276 0.048724 0.348673
H39   H     H_    0.836875 0.326508 0.910198 0.389490
H40   H     H_    0.677089 0.048959 0.255704 0.348817
H41   H     H_    0.326024 0.910027 0.837089 0.389704
H42   H     H_    0.048409 0.254657 0.677513 0.348576
H43   H     H_    0.910172 0.838576 0.325613 0.389357
H44   H     H_    0.400816 0.806098 0.299003 0.178588
H45   H     H_    0.598850 0.194074 0.700917 0.180469
H46   H     H_    0.342691 0.619804 0.133658 0.133550
H47   H     H_    0.651042 0.380303 0.855345 0.166540
H48   H     H_    0.619545 0.133853 0.342523 0.133889
O1    O     O_3   0.250000 0.250000 0.250000 -0.489343
O2    O     O_R   0.865800 0.694910 0.573470 -0.478846
O3    O     O_R   0.305090 0.426530 0.134200 -0.518153
O4    O     O_R   0.694910 0.573470 0.865800 -0.485198
O5    O     O_R   0.426530 0.134200 0.305090 -0.515062
O6    O     O_R   0.573470 0.865800 0.694910 -0.480788
O7    O     O_R   0.134190 0.426530 0.134200 -0.456666
O8    O     O_R   0.865810 0.573470 0.865800 -0.459280
O9    O     O_R   0.426530 0.134200 0.134190 -0.459475
O10   O     O_R   0.573470 0.865800 0.865810 -0.463240
O11   O     O_R   0.134200 0.134190 0.426530 -0.456058
O12   O     O_3   0.750000 0.750000 0.750000 -0.495682
O13   O     O_R   0.865800 0.865810 0.573470 -0.458120
O14   O     O_R   0.426530 0.305080 0.134210 -0.539961
O15   O     O_R   0.573470 0.694920 0.865790 -0.556602
O16   O     O_R   0.305080 0.134210 0.426530 -0.539062
O17   O     O_R   0.694920 0.865790 0.573470 -0.555276
O18   O     O_R   0.134210 0.426530 0.305080 -0.529147
O19   O     O_R   0.865790 0.573470 0.694920 -0.545183
O20   O     O_3   0.317702 0.780803 0.484694 -0.696673
O21   O     O_3   0.682241 0.219286 0.515763 -0.693567
O22   O     O_3   0.320315 0.457410 0.779780 -0.648994
O23   O     O_R   0.305080 0.134200 0.134200 -0.501262
O24   O     O_3   0.679781 0.538966 0.219703 -0.644389
O25   O     O_3   0.514556 0.311974 0.784903 -0.659505
O26   O     O_3   0.488322 0.687343 0.215576 -0.655694
O27   O     O_3   0.025566 0.657206 0.456754 -0.597083
O28   O     O_3   0.961594 0.350076 0.544830 -0.624279
O29   O     O_3   0.656935 0.457311 0.025874 -0.621815
O30   O     O_3   0.349979 0.544884 0.961946 -0.624281
O31   O     O_3   0.456680 0.025404 0.657250 -0.606956
O32   O     O_3   0.544764 0.961663 0.350183 -0.623583
O33   O     O_3   0.754964 0.033452 0.576570 -0.648774
O34   O     O_R   0.694920 0.865800 0.865800 -0.496846
O35   O     O_3   0.244943 0.966648 0.424035 -0.652667
O36   O     O_3   0.753768 0.584800 0.034564 -0.666962
O37   O     O_3   0.247016 0.406672 0.965533 -0.691402
O38   O     O_3   0.566862 0.756980 0.031948 -0.677042
O39   O     O_3   0.438320 0.241740 0.968715 -0.683142
O40   O     O_3   0.057495 0.625228 0.235646 -0.577752
O41   O     O_3   0.932988 0.378565 0.765834 -0.687069
O42   O     O_3   0.625068 0.235871 0.057487 -0.579712
O43   O     O_3   0.378646 0.765875 0.932985 -0.688993
O44   O     O_3   0.235694 0.056568 0.625639 -0.579665
O45   O     O_R   0.134200 0.134200 0.305080 -0.491861
O46   O     O_3   0.765713 0.934001 0.378311 -0.689090
O47   O     O_3   0.199066 0.666685 0.093556 -0.568660
O48   O     O_3   0.781142 0.334907 0.906249 -0.645790
O49   O     O_3   0.666525 0.093791 0.198919 -0.568490
O50   O     O_3   0.334676 0.905989 0.781336 -0.645902
O51   O     O_3   0.093337 0.197889 0.666993 -0.569265
O52   O     O_3   0.906417 0.782562 0.334488 -0.646520
O53   O     O_R   0.865800 0.865800 0.694920 -0.487318
O54   O     O_R   0.134200 0.305080 0.134200 -0.502114
O55   O     O_R   0.865800 0.694920 0.865800 -0.497502
O56   O     O_R   0.134200 0.305090 0.426530 -0.513754
Zn1   Zn    Zn3+2 0.206620 0.206630 0.380140 1.068392
Zn2   Zn    Zn3+2 0.793380 0.793370 0.619860 1.070911
Zn3   Zn    Zn3+2 0.206630 0.380140 0.206620 1.062970
Zn4   Zn    Zn3+2 0.793370 0.619860 0.793380 1.062194
Zn5   Zn    Zn3+2 0.380140 0.206620 0.206630 1.045630
Zn6   Zn    Zn3+2 0.619860 0.793380 0.793370 1.046194
Zn7   Zn    Zn3+2 0.206620 0.206620 0.206620 1.102537
Zn8   Zn    Zn3+2 0.793380 0.793380 0.793380 1.121242

loop_
_geom_bond_atom_site_label_1
_geom_bond_atom_site_label_2
_ccdc_geom_bond_type
C25   C31   A    
C48   C55   A    
H25   O33   S    
H32   O41   S    
O11   Zn1   S    
C49   C63   A    
H36   O44   S    
H22   O31   S    
C36   C42   A    
C1    C11   S    
C65   O55   A    
C71   O5    A    
C17   F2    S    
C50   O30   S    
H13   O21   S    
C29   O42   S    
C83   H34   S    
C49   O29   S    
H18   O27   S    
C45   H3    S    
C9    C108  A    
C29   C36   A    
O12   Zn6   S    
H37   O46   S    
C33   C39   A    
C82   C89   A    
C34   C40   A    
O16   Zn1   S    
C47   O27   S    
H27   O36   S    
C86   C93   A    
H30   O39   S    
O10   Zn6   S    
C51   O31   S    
C34   O47   S    
C42   C98   A    
C59   C66   A    
O9    Zn5   S    
H33   O42   S    
C54   O54   A    
C77   C83   A    
C55   C61   A    
C75   C108  A    
O7    Zn3   S    
C59   C71   S    
C27   O40   S    
C69   O3    A    
O12   Zn2   S    
C20   C61   S    
C19   C26   A    
C53   C68   S    
C70   O4    A    
H29   O38   S    
C38   C45   A    
C80   C86   A    
O14   Zn5   S    
C74   C107  A    
H42   O51   S    
C1    O9    A    
C85   C92   A    
C15   C22   A    
C31   O44   S    
C28   C35   A    
C2    C44   A    
C14   F10   S    
C11   C105  A    
C13   H10   S    
O1    Zn3   S    
C32   O11   A    
C48   C60   A    
C52   O32   S    
C84   C91   A    
C72   O6    A    
H31   O40   S    
C5    C79   A    
C93   O33   S    
C35   O48   S    
C40   H46   S    
O45   Zn7   S    
C95   C102  A    
C9    C103  A    
C69   O14   A    
C47   C53   A    
H11   O20   S    
H38   O47   S    
C23   C63   S    
H35   O43   S    
C8    C65   S    
C27   C34   A    
C22   C28   A    
H41   O50   S    
C48   O28   S    
C2    C17   A    
C76   H5    S    
C46   H4    S    
C18   C25   A    
C68   O2    A    
C37   O50   S    
C41   C87   A    
C21   O34   A    
C72   O17   A    
C53   C60   A    
C42   H48   S    
C57   C63   A    
C80   H1    S    
C10   C21   S    
C58   C64   A    
O8    Zn4   S    
C43   O13   A    
C88   C94   A    
C17   C24   A    
C12   H9    S    
O18   Zn3   S    
C97   C104  A    
C14   C20   A    
C39   O52   S    
C18   F3    S    
C68   O19   A    
C3    C8    A    
C52   C64   A    
C30   O43   S    
C51   C58   A    
C91   O26   S    
C13   C19   A    
C12   C45   A    
C81   H12   S    
C5    C105  A    
O56   Zn1   S    
C28   O41   S    
C19   F4    S    
C74   F5    S    
C90   C96   A    
O12   Zn4   S    
C40   C76   A    
C30   C37   A    
C99   O39   S    
C51   C66   A    
C6    C100  A    
C54   O7    A    
C89   C95   A    
H20   O29   S    
C4    C78   A    
H26   O35   S    
C52   C59   A    
C58   C72   S    
C26   C33   A    
H40   O49   S    
H24   O32   S    
C6    C107  A    
C7    C106  A    
C75   F6    S    
C91   C97   A    
C4    C11   A    
C102  C108  A    
O6    Zn6   S    
C93   C100  A    
H16   O25   S    
O5    Zn5   S    
H28   O37   S    
C39   C46   A    
C21   O10   A    
C32   O45   A    
C1    O23   A    
C94   C101  A    
C98   H7    S    
O3    Zn3   S    
O54   Zn7   S    
C92   O25   S    
C16   C23   A    
C56   C70   S    
C6    C43   S    
O2    Zn2   S    
C65   O8    A    
C97   O38   S    
O1    Zn1   S    
C96   C103  A    
H21   O30   S    
C74   C81   A    
C3    C77   A    
C23   C29   A    
C79   C85   A    
O55   Zn8   S    
C71   O16   A    
O34   Zn8   S    
C90   O22   S    
C3    C103  A    
O1    Zn5   S    
C83   C90   A    
C73   C80   A    
H17   O26   S    
O12   Zn8   S    
O15   Zn6   S    
C24   C62   S    
C7    C32   S    
C86   O21   S    
C43   O53   A    
C50   C57   A    
C38   O51   S    
C78   F8    S    
C25   C66   S    
C82   H23   S    
C96   O37   S    
C84   H44   S    
C36   O49   S    
C47   C61   A    
C55   C67   S    
C33   O46   S    
C67   O18   A    
C75   C82   A    
C73   F1    S    
C9    C54   S    
C20   C27   A    
C26   C64   S    
O13   Zn2   S    
C49   C56   A    
C100  C106  A    
C31   C38   A    
C85   H45   S    
H14   O22   S    
C37   C44   A    
C16   F12   S    
C95   O36   S    
C5    C10   A    
H43   O52   S    
C22   C60   S    
O19   Zn4   S    
O4    Zn4   S    
C16   C98   A    
C73   C106  A    
C13   C46   A    
C50   C62   A    
H19   O28   S    
C41   H47   S    
O53   Zn8   S    
C44   H2    S    
C89   O24   S    
C15   F11   S    
C4    C104  A    
C56   C62   A    
C10   C104  A    
C67   O56   A    
C35   C41   A    
C99   C105  A    
C24   C30   A    
H15   O24   S    
C81   C88   A    
O1    Zn7   S    
O17   Zn2   S    
C78   C84   A    
C70   O15   A    
C88   O20   S    
H39   O48   S    
O23   Zn7   S    
C7    C101  A    
C15   C87   A    
C12   C18   A    
C101  C107  A    
C79   F9    S    
C94   O35   S    
C57   C69   S    
C77   F7    S    
C8    C102  A    
C87   H6    S    
C92   C99   A    
C14   C76   A    
C2    H8    S    
