data_mof_unit_37585.cif
_audit_creation_date              2012-12-10T17:40:26-0500
_audit_creation_method            fapswitch 2.2
_symmetry_space_group_name_H-M    P1
_symmetry_Int_Tables_number       1
_space_group_crystal_system       triclinic
_cell_length_a                    13.78828
_cell_length_b                    14.965667
_cell_length_c                    15.584662
_cell_angle_alpha                 91.170627
_cell_angle_beta                  70.794763
_cell_angle_gamma                 92.281047
_cell_volume                      3034.43229372

loop_
_atom_site_label
_atom_site_type_symbol
_atom_type_description
_atom_site_fract_x
_atom_site_fract_y
_atom_site_fract_z
_atom_type_partial_charge
C1    C     C_R   0.501118 0.671129 0.501253 0.799128
C2    C     C_R   0.498954 0.328945 0.499061 0.799535
C3    C     C_R   0.375477 0.409623 0.094232 0.418784
C4    C     C_R   0.619491 0.415990 0.902648 0.419912
C5    C     C_R   0.302629 0.415735 0.049742 0.269796
C6    C     C_R   0.692696 0.427771 0.946884 0.278858
C7    C     C_R   0.422165 0.185686 0.565995 -0.235901
C8    C     C_R   0.581975 0.814904 0.438469 -0.243660
C9    C     C_R   0.497349 0.232569 0.498071 -0.081720
C10   C     C_R   0.503511 0.767667 0.503437 -0.078307
C11   C     C_R   0.575629 0.188107 0.432826 -0.225029
C12   C     C_R   0.425197 0.812188 0.568629 -0.213951
C13   C     C_R   0.577652 0.095208 0.433597 0.070872
C14   C     C_R   0.425129 0.905258 0.569636 0.069059
C15   C     C_R   0.500889 0.047004 0.501386 -0.004087
C16   C     C_R   0.502622 0.953500 0.502356 -0.005831
C17   C     C_R   0.423151 0.092495 0.568779 0.019727
C18   C     C_R   0.581561 0.908111 0.435967 0.024798
C19   C     C_R   0.655694 0.050108 0.368244 -0.311512
C20   C     C_R   0.348949 0.950614 0.636744 -0.288987
C21   C     C_R   0.657254 0.956534 0.367790 0.444523
C22   C     C_R   0.349004 0.044014 0.638127 0.417211
C23   C     C_R   0.437626 0.497991 0.672816 0.781723
C24   C     C_R   0.562110 0.498619 0.327171 0.783763
C25   C     C_R   0.224813 0.566795 0.457574 -0.049022
C26   C     C_R   0.775164 0.432724 0.541803 -0.033454
C27   C     C_R   0.188721 0.428919 0.535801 0.618565
C28   C     C_R   0.811249 0.570827 0.463835 0.584496
C29   C     C_R   0.082090 0.432790 0.546515 -0.149549
C30   C     C_R   0.918034 0.565767 0.452076 -0.200940
C31   C     C_R   0.051295 0.499513 0.500034 -0.015029
C32   C     C_R   0.948710 0.499191 0.498919 -0.001703
C33   C     C_R   0.123821 0.565728 0.453175 -0.036247
C34   C     C_R   0.876442 0.432968 0.545427 -0.015471
C35   C     C_R   0.008097 0.368870 0.598786 0.480555
C36   C     C_R   0.994348 0.626449 0.397025 0.446104
C37   C     C_R   0.905947 0.368795 0.595351 -0.262779
C38   C     C_R   0.094612 0.628360 0.401501 -0.241140
C39   C     C_R   0.400263 0.484151 0.771767 -0.088573
C40   C     C_R   0.597956 0.486827 0.227832 -0.086427
C41   C     C_R   0.262547 0.449195 0.911726 -0.138577
C42   C     C_R   0.734243 0.463294 0.085447 -0.114839
C43   C     C_R   0.295387 0.470348 0.819621 -0.191058
C44   C     C_R   0.702603 0.481521 0.178386 -0.210422
C45   C     C_R   0.471377 0.476610 0.817262 -0.186120
C46   C     C_R   0.525698 0.474146 0.183069 -0.182212
C47   C     C_R   0.440811 0.447843 0.907784 0.044482
C48   C     C_R   0.555144 0.448813 0.091014 0.044165
C49   C     C_R   0.334348 0.438146 0.957097 -0.001122
C50   C     C_R   0.661546 0.447035 0.040547 -0.000965
C51   C     C_R   0.514267 0.432282 0.951104 -0.179616
C52   C     C_R   0.481118 0.431109 0.046871 -0.181491
Cu1   Cu    Cu3+1 0.402580 0.500010 0.499990 0.968281
Cu2   Cu    Cu3+1 0.597420 0.499990 0.500010 0.959259
H1    H     H_    0.279619 0.619051 0.423490 0.154711
H2    H     H_    0.720222 0.380474 0.575649 0.156048
H3    H     H_    0.847817 0.320041 0.631887 0.129581
H4    H     H_    0.150328 0.677891 0.362535 0.150936
H5    H     H_    0.446331 0.486196 0.220680 0.204105
H6    H     H_    0.551035 0.493859 0.781261 0.203026
H7    H     H_    0.760167 0.491401 0.211436 0.156160
H8    H     H_    0.238600 0.475379 0.785856 0.177115
H9    H     H_    0.180798 0.440442 0.946348 0.196855
H10   H     H_    0.815956 0.461251 0.049718 0.194492
H11   H     H_    0.364672 0.222577 0.617477 0.185124
H12   H     H_    0.641275 0.778270 0.388542 0.191628
H13   H     H_    0.634503 0.226085 0.381439 0.141736
H14   H     H_    0.365190 0.774166 0.618952 0.138155
H15   H     H_    0.715895 0.087391 0.317483 0.157129
H16   H     H_    0.289849 0.913749 0.688849 0.160305
N1    N     N_R   0.256170 0.500070 0.500040 -0.229989
N2    N     N_R   0.743830 0.499930 0.499960 -0.223676
O1    O     O_R   0.417730 0.629750 0.499970 -0.590182
O2    O     O_R   0.582270 0.370250 0.500030 -0.592990
O3    O     O_R   0.582270 0.629730 0.499980 -0.538674
O4    O     O_R   0.417730 0.370270 0.500020 -0.545795
O5    O     O_R   0.371590 0.500020 0.629830 -0.560486
O6    O     O_R   0.628410 0.499980 0.370170 -0.564770
O7    O     O_R   0.536130 0.499990 0.629840 -0.592009
O8    O     O_R   0.463870 0.500010 0.370160 -0.588824
Cl1   Cl    Cl    0.171587 0.395338 0.113144 -0.677380
Cl2   Cl    Cl    0.823900 0.420038 0.881805 -0.656506
O9    O     O_3   0.226084 0.348453 0.550877 -0.560054
C53   C     C_3   0.230594 0.288401 0.477297 0.098498
H17   H     H_    0.310770 0.287708 0.430061 0.166433
H18   H     H_    0.182663 0.306745 0.435200 0.097203
C54   C     C_3   0.195972 0.193743 0.513213 -0.302909
H19   H     H_    0.220760 0.180788 0.572416 0.261308
H20   H     H_    0.110857 0.187333 0.536068 0.218664
C55   C     C_3   0.238831 0.122671 0.440411 -0.935054
H21   H     H_    0.211438 0.132607 0.381902 0.261950
H22   H     H_    0.212116 0.055286 0.469084 0.267981
H23   H     H_    0.324194 0.125970 0.416739 0.262141
O10   O     O_3   0.772666 0.649802 0.446258 -0.581534
C56   C     C_3   0.782772 0.718880 0.507724 0.099918
H24   H     H_    0.750621 0.780058 0.490366 0.183518
H25   H     H_    0.864348 0.736953 0.498416 0.161606
C57   C     C_3   0.726017 0.697887 0.608926 -0.388473
H26   H     H_    0.643841 0.680742 0.620830 0.248786
H27   H     H_    0.760909 0.640334 0.630311 0.217095
C58   C     C_3   0.732490 0.778067 0.669117 -0.910578
H28   H     H_    0.814001 0.796243 0.660643 0.261186
H29   H     H_    0.691970 0.761067 0.741434 0.264178
H30   H     H_    0.695516 0.836347 0.651404 0.258613
O11   O     O_3   0.040306 0.312034 0.653661 -0.583604
C59   C     C_3   0.963903 0.251935 0.706781 0.038232
H31   H     H_    0.936843 0.204968 0.662434 0.117003
H32   H     H_    0.899314 0.289486 0.752793 0.216880
C60   C     C_3   0.009445 0.197722 0.765320 -0.291515
H33   H     H_    0.073898 0.158516 0.720820 0.239404
H34   H     H_    0.040008 0.244025 0.807726 0.240716
C61   C     C_3   0.928910 0.133876 0.827397 -0.921445
H35   H     H_    0.865639 0.172012 0.875041 0.269760
H36   H     H_    0.964890 0.094377 0.867666 0.257305
H37   H     H_    0.896806 0.087064 0.786564 0.256058
O12   O     O_3   0.971865 0.687710 0.341412 -0.607250
C62   C     C_3   0.959489 0.643895 0.264036 0.107621
H38   H     H_    0.907912 0.684612 0.240078 0.178173
H39   H     H_    0.921496 0.576098 0.278675 0.128938
C63   C     C_3   0.063029 0.638033 0.187749 -0.375801
H40   H     H_    0.101081 0.705615 0.174807 0.225203
H41   H     H_    0.113555 0.593308 0.208660 0.249086
C64   C     C_3   0.049205 0.601565 0.100151 -0.835254
H42   H     H_    0.010730 0.534134 0.111547 0.280971
H43   H     H_    0.125538 0.596284 0.046825 0.268343
H44   H     H_    0.002220 0.647079 0.075865 0.241267
O13   O     O_3   0.341460 0.379245 0.183158 -0.589040
C65   C     C_3   0.379764 0.293509 0.187810 0.059696
H45   H     H_    0.385945 0.286580 0.256632 0.148820
H46   H     H_    0.458425 0.283747 0.138909 0.133107
C66   C     C_3   0.305651 0.219797 0.174499 -0.308518
H47   H     H_    0.230507 0.224255 0.229741 0.242413
H48   H     H_    0.293153 0.228828 0.108448 0.240237
C67   C     C_3   0.348237 0.127307 0.174975 -0.959317
H49   H     H_    0.420001 0.119941 0.116426 0.259019
H50   H     H_    0.290967 0.075247 0.169283 0.267083
H51   H     H_    0.364942 0.116925 0.238975 0.262064
O14   O     O_3   0.653723 0.387090 0.812552 -0.591784
C68   C     C_3   0.607369 0.302877 0.802146 0.054197
H52   H     H_    0.619464 0.292930 0.728561 0.155067
H53   H     H_    0.522895 0.299647 0.836367 0.138833
C69   C     C_3   0.656229 0.225757 0.834540 -0.348611
H54   H     H_    0.738742 0.224032 0.793759 0.222667
H55   H     H_    0.649116 0.235607 0.907192 0.216912
C70   C     C_3   0.604478 0.136099 0.823903 -0.946712
H56   H     H_    0.521904 0.135046 0.866031 0.255743
H57   H     H_    0.642330 0.081456 0.846574 0.263669
H58   H     H_    0.611237 0.124017 0.751610 0.255913
O15   O     O_3   0.737694 0.912805 0.305647 -0.611481
C71   C     C_3   0.728582 0.914927 0.217780 0.055421
H59   H     H_    0.807515 0.914930 0.167738 0.174186
H60   H     H_    0.692773 0.976402 0.204396 0.126304
C72   C     C_3   0.668982 0.831357 0.201309 -0.372085
H61   H     H_    0.705673 0.770559 0.214295 0.226633
H62   H     H_    0.588684 0.831752 0.248770 0.213758
C73   C     C_3   0.666877 0.827534 0.104033 -0.893560
H63   H     H_    0.628981 0.886989 0.089888 0.253472
H64   H     H_    0.623043 0.766406 0.094541 0.261672
H65   H     H_    0.746256 0.825212 0.055061 0.256934
O16   O     O_3   0.273315 0.087347 0.705210 -0.629550
C74   C     C_3   0.309753 0.107383 0.778467 0.026321
H66   H     H_    0.387571 0.141178 0.755002 0.139168
H67   H     H_    0.313394 0.044778 0.814573 0.153190
C75   C     C_3   0.235863 0.170346 0.844605 -0.317979
H68   H     H_    0.230226 0.232150 0.808356 0.228257
H69   H     H_    0.158298 0.137173 0.870582 0.226779
C76   C     C_3   0.272034 0.195911 0.924696 -0.915451
H70   H     H_    0.278801 0.135244 0.961941 0.254752
H71   H     H_    0.215483 0.240036 0.972079 0.289989
H72   H     H_    0.347607 0.232508 0.900660 0.247559

loop_
_geom_bond_atom_site_label_1
_geom_bond_atom_site_label_2
_ccdc_geom_bond_type
C54   H19   S    
C45   H6    S    
C8    H12   S    
C58   H28   S    
C6    Cl2   S    
C46   H5    S    
C27   C29   A    
C34   C37   A    
C26   N2    A    
C56   H24   S    
C53   C54   S    
C66   C67   S    
C20   H16   S    
C65   H45   S    
C74   C75   S    
C67   H51   S    
C61   H36   S    
C74   H66   S    
C56   C57   S    
C27   N1    A    
C64   H42   S    
C76   H71   S    
Cu1   Cu2   S    
C40   C46   A    
C12   H14   S    
C59   H32   S    
C73   H63   S    
C35   C37   A    
C53   H18   S    
C60   H34   S    
C68   C69   S    
C3    O13   S    
C64   H43   S    
C59   H31   S    
C15   C16   A    
C18   C21   A    
C11   C13   A    
O12   C62   S    
C28   O10   S    
C70   H57   S    
C38   H4    S    
C73   H64   S    
C26   C34   A    
C31   C32   A    
C63   H41   S    
C7    C17   A    
C71   C72   S    
C31   C33   A    
C25   N1    A    
C21   O15   S    
C72   H62   S    
C2    O2    A    
C63   C64   S    
C39   C45   A    
C48   C50   A    
C58   H29   S    
Cu2   O2    S    
C41   C43   A    
C69   C70   S    
C5    C49   A    
C28   N2    A    
C42   C44   A    
C41   C49   A    
C61   H35   S    
C74   H67   S    
C11   H13   S    
C70   H56   S    
C76   H72   S    
C45   C47   A    
C46   C48   A    
C13   C19   A    
C4    C51   A    
C51   C52   A    
C1    O3    A    
C14   C20   A    
Cu1   O8    S    
C53   H17   S    
C4    C6    A    
C62   C63   S    
C76   H70   S    
C62   H39   S    
C64   H44   S    
C47   C51   A    
C3    C5    A    
C23   O5    A    
C26   H2    S    
C32   C34   A    
Cu1   O5    S    
C67   H50   S    
C35   O11   S    
C71   H60   S    
C7    H11   S    
C5    Cl1   S    
C55   H22   S    
O9    C53   S    
C40   C44   A    
C3    C52   A    
C16   C18   A    
C6    C50   A    
C72   C73   S    
C9    C11   A    
C10   C12   A    
C42   C50   A    
C24   O6    A    
C12   C14   A    
C58   H30   S    
C57   H27   S    
C13   C15   A    
C14   C16   A    
C60   C61   S    
Cu1   O4    S    
C41   H9    S    
O13   C65   S    
C36   O12   S    
C65   C66   S    
C42   H10   S    
C70   H58   S    
C2    O4    A    
C63   H40   S    
C55   H23   S    
Cu2   O7    S    
C15   C17   A    
C75   H68   S    
C19   C21   A    
C71   H59   S    
C73   H65   S    
Cu1   O1    S    
C1    C10   S    
C25   H1    S    
C20   C22   A    
C66   H48   S    
C65   H46   S    
C39   C43   A    
C68   H52   S    
C56   H25   S    
C67   H49   S    
C44   H7    S    
C47   C49   A    
C57   C58   S    
O11   C59   S    
C29   C35   A    
C17   C22   A    
C30   C36   A    
C1    O1    A    
O16   C74   S    
C75   H69   S    
C28   C30   A    
C29   C31   A    
C62   H38   S    
C36   C38   A    
C30   C32   A    
C68   H53   S    
C55   H21   S    
C22   O16   S    
C23   C39   S    
C27   O9    S    
C24   C40   S    
C69   H55   S    
C75   C76   S    
O10   C56   S    
C8    C18   A    
C19   H15   S    
O14   C68   S    
C4    O14   S    
Cu2   O3    S    
C7    C9    A    
C48   C52   A    
Cu2   N2    S    
C8    C10   A    
C57   H26   S    
C54   C55   S    
C60   H33   S    
C54   H20   S    
C24   O8    A    
C69   H54   S    
C33   C38   A    
C23   O7    A    
C72   H61   S    
O15   C71   S    
C2    C9    S    
C61   H37   S    
C37   H3    S    
C66   H47   S    
C43   H8    S    
C25   C33   A    
Cu2   O6    S    
C59   C60   S    
Cu1   N1    S    
