data_mof_unit_53981.cif
_audit_creation_date              2012-12-11T15:37:39-0500
_audit_creation_method            fapswitch 2.2
_symmetry_space_group_name_H-M    P1
_symmetry_Int_Tables_number       1
_space_group_crystal_system       triclinic
_cell_length_a                    17.373622
_cell_length_b                    24.356476
_cell_length_c                    14.82938
_cell_angle_alpha                 89.799744
_cell_angle_beta                  126.023906
_cell_angle_gamma                 90.258401
_cell_volume                      5075.15250336

loop_
_atom_site_label
_atom_site_type_symbol
_atom_type_description
_atom_site_fract_x
_atom_site_fract_y
_atom_site_fract_z
_atom_type_partial_charge
C1    C     C_R   0.822653 0.639064 0.907290 -0.135385
C2    C     C_R   0.190307 0.373945 0.092935 -0.126060
C3    C     C_R   0.191012 0.625402 0.092972 -0.126148
C4    C     C_R   0.850592 0.347408 0.907770 -0.140333
C5    C     C_R   0.350247 0.152395 0.907655 -0.141144
C6    C     C_R   0.648088 0.847433 0.092236 -0.127773
C7    C     C_R   0.690581 0.125980 0.092839 -0.124420
C8    C     C_R   0.350677 0.847352 0.907829 -0.140840
C9    C     C_3   0.400801 0.498682 0.466083 0.186733
C10   C     C_3   0.574947 0.498903 0.640949 0.184844
C11   C     C_3   0.906309 0.998740 0.459864 0.186937
C12   C     C_3   0.076509 0.999744 0.643003 0.185615
C13   C     C_R   0.788760 0.232685 0.899006 -0.173419
C14   C     C_R   0.342590 0.686251 0.100334 -0.168421
C15   C     C_R   0.340341 0.312243 0.100063 -0.169409
C16   C     C_R   0.671533 0.698739 0.898240 -0.173462
C17   C     C_R   0.289289 0.732410 0.899254 -0.172362
C18   C     C_R   0.842281 0.186414 0.100077 -0.169852
C19   C     C_R   0.711711 0.735286 0.099472 -0.169276
C20   C     C_R   0.286537 0.266388 0.898909 -0.173605
C21   C     C_R   0.240578 0.687114 0.898565 -0.171258
C22   C     C_R   0.890540 0.232010 0.100902 -0.175422
C23   C     C_R   0.771631 0.698047 0.100389 -0.174350
C24   C     C_R   0.237967 0.311417 0.898261 -0.172262
C25   C     C_R   0.739951 0.187475 0.898290 -0.172370
C26   C     C_R   0.390767 0.731910 0.101116 -0.174602
C27   C     C_R   0.388438 0.266877 0.100807 -0.175603
C28   C     C_R   0.612236 0.736346 0.897481 -0.172994
C29   C     C_R   0.260381 0.667756 0.999145 0.145067
C30   C     C_R   0.857573 0.258559 0.000410 0.143964
C31   C     C_R   0.757162 0.684536 0.999875 0.152591
C32   C     C_R   0.258267 0.330760 0.998908 0.145800
C33   C     C_R   0.759858 0.168122 0.998899 0.145903
C34   C     C_R   0.357904 0.758406 0.000597 0.142916
C35   C     C_R   0.355664 0.240626 0.000287 0.144202
C36   C     C_R   0.639709 0.759782 0.998264 0.143155
C37   C     C_R   0.887112 0.448947 0.461090 -0.175177
C38   C     C_R   0.891546 0.548005 0.369721 -0.167920
C39   C     C_R   0.896223 0.448650 0.374659 -0.170122
C40   C     C_R   0.883306 0.548341 0.456960 -0.176208
C41   C     C_R   0.388552 0.949646 0.459997 -0.175022
C42   C     C_R   0.389583 0.049005 0.366814 -0.170205
C43   C     C_R   0.390636 0.949665 0.368154 -0.169425
C44   C     C_R   0.387616 0.049041 0.458731 -0.174994
C45   C     C_R   0.909949 0.498360 0.338180 0.146710
C46   C     C_R   0.892411 0.498949 0.511109 0.140046
C47   C     C_R   0.402758 0.999395 0.329995 0.144167
C48   C     C_R   0.397558 0.999398 0.512773 0.140994
C49   C     C_R   0.945114 0.348396 0.093190 -0.140430
C50   C     C_R   0.096070 0.624039 0.905895 -0.126699
C51   C     C_R   0.095276 0.375403 0.905798 -0.126440
C52   C     C_R   0.916637 0.637604 0.093310 -0.133155
C53   C     C_R   0.445177 0.848372 0.093222 -0.141183
C54   C     C_R   0.595776 0.124321 0.905804 -0.125997
C55   C     C_R   0.553606 0.848854 0.906142 -0.122520
C56   C     C_R   0.444789 0.151337 0.093133 -0.141491
C57   C     C_R   0.990188 0.545067 0.260776 -0.124101
C58   C     C_R   0.946210 0.453990 0.693162 -0.141874
C59   C     C_R   0.945996 0.545618 0.692359 -0.142600
C60   C     C_R   0.983796 0.452983 0.252305 -0.130378
C61   C     C_R   0.480134 0.046010 0.248326 -0.127792
C62   C     C_R   0.450397 0.953788 0.694917 -0.125894
C63   C     C_R   0.448223 0.045605 0.693302 -0.144318
C64   C     C_R   0.480056 0.953558 0.248263 -0.128410
C65   C     C_R   0.731479 0.453894 0.751581 -0.138896
C66   C     C_R   0.259524 0.545141 0.302754 -0.153108
C67   C     C_R   0.259293 0.454134 0.301337 -0.141743
C68   C     C_R   0.729955 0.544899 0.744694 -0.123389
C69   C     C_R   0.231926 0.954316 0.754940 -0.135382
C70   C     C_R   0.762855 0.045029 0.299024 -0.152944
C71   C     C_R   0.763531 0.953699 0.295236 -0.130986
C72   C     C_R   0.231968 0.045526 0.754211 -0.126842
C73   C     C_R   0.830530 0.656292 0.000548 0.045607
C74   C     C_R   0.185894 0.361168 0.998904 0.040562
C75   C     C_R   0.187105 0.637849 0.999019 0.040017
C76   C     C_R   0.882470 0.316001 0.000896 0.049383
C77   C     C_R   0.381645 0.183565 0.000767 0.049556
C78   C     C_R   0.613911 0.816173 0.998557 0.044922
C79   C     C_R   0.686624 0.138339 0.998866 0.039685
C80   C     C_R   0.382653 0.815913 0.000977 0.049993
C81   C     C_R   0.957101 0.498737 0.283131 0.040921
C82   C     C_R   0.927161 0.499618 0.627675 0.050573
C83   C     C_R   0.448475 0.999636 0.272948 0.041648
C84   C     C_R   0.432249 0.999588 0.629592 0.044269
C85   C     C_R   0.675537 0.499336 0.724226 0.032085
C86   C     C_R   0.308765 0.499349 0.361655 0.040947
C87   C     C_R   0.176550 0.999888 0.731419 0.028058
C88   C     C_R   0.815374 0.999122 0.353399 0.037195
C89   C     C_3   0.499024 0.459645 0.624963 -0.157440
C90   C     C_3   0.477360 0.537751 0.483113 -0.157792
C91   C     C_3   0.467339 0.449251 0.504925 -0.167048
C92   C     C_3   0.508548 0.548370 0.602600 -0.166655
C93   C     C_3   0.000469 0.957781 0.617536 -0.161816
C94   C     C_3   0.982625 0.040541 0.485839 -0.160392
C95   C     C_3   0.975901 0.950917 0.499729 -0.168514
C96   C     C_3   0.006958 0.047659 0.603344 -0.167348
C97   C     C_3   0.429883 0.509198 0.583936 -0.142152
C98   C     C_3   0.544370 0.488439 0.522334 -0.136253
C99   C     C_3   0.928351 0.005766 0.575466 -0.140817
C100  C     C_3   0.052878 0.992785 0.526311 -0.130327
H1    H     H_    0.773056 0.652965 0.822789 0.082456
H2    H     H_    0.248543 0.367564 0.179070 0.088780
H3    H     H_    0.249507 0.631378 0.179173 0.089440
H4    H     H_    0.812054 0.333630 0.822482 0.083012
H5    H     H_    0.311416 0.166248 0.822309 0.083150
H6    H     H_    0.687783 0.833930 0.177885 0.081627
H7    H     H_    0.748720 0.132627 0.178883 0.088781
H8    H     H_    0.312178 0.833552 0.822555 0.081351
H9    H     H_    0.993053 0.334549 0.178442 0.083414
H10   H     H_    0.067805 0.628996 0.819305 0.093154
H11   H     H_    0.066679 0.370230 0.819200 0.092397
H12   H     H_    0.952000 0.651567 0.177684 0.082085
H13   H     H_    0.493164 0.834562 0.178495 0.082031
H14   H     H_    0.567436 0.129365 0.819228 0.092779
H15   H     H_    0.506528 0.835935 0.820199 0.081189
H16   H     H_    0.492470 0.165125 0.178422 0.083892
H17   H     H_    0.991278 0.586186 0.286996 0.082964
H18   H     H_    0.926923 0.411975 0.665562 0.082809
H19   H     H_    0.926904 0.587501 0.663566 0.083777
H20   H     H_    0.972015 0.410377 0.260585 0.093439
H21   H     H_    0.469447 0.088432 0.258530 0.093207
H22   H     H_    0.433941 0.911518 0.668143 0.082403
H23   H     H_    0.428552 0.087384 0.664086 0.084221
H24   H     H_    0.469175 0.911023 0.258249 0.093582
H25   H     H_    0.709106 0.411420 0.736224 0.101415
H26   H     H_    0.274099 0.587032 0.332559 0.092059
H27   H     H_    0.272550 0.412014 0.329864 0.086596
H28   H     H_    0.704026 0.585770 0.714874 0.087772
H29   H     H_    0.208840 0.911966 0.737983 0.101207
H30   H     H_    0.778061 0.086576 0.330714 0.092398
H31   H     H_    0.779009 0.911257 0.321623 0.089314
H32   H     H_    0.209187 0.087840 0.736879 0.097486
H33   H     H_    0.379517 0.517625 0.605124 0.114017
H34   H     H_    0.593254 0.479959 0.498876 0.116131
H35   H     H_    0.873923 0.011005 0.591471 0.113748
H36   H     H_    0.105791 0.987525 0.507813 0.116663
H37   H     H_    0.765298 0.249906 0.819471 0.105032
H38   H     H_    0.364464 0.669581 0.179720 0.103957
H39   H     H_    0.362456 0.328815 0.179468 0.105119
H40   H     H_    0.653283 0.684672 0.818840 0.102695
H41   H     H_    0.265926 0.749595 0.819724 0.104232
H42   H     H_    0.864292 0.169641 0.179444 0.104350
H43   H     H_    0.729656 0.749241 0.178796 0.103782
H44   H     H_    0.262957 0.249309 0.819362 0.104954
H45   H     H_    0.181608 0.671379 0.818899 0.106883
H46   H     H_    0.947240 0.248947 0.180619 0.105015
H47   H     H_    0.832484 0.683526 0.180004 0.102769
H48   H     H_    0.178970 0.327084 0.818595 0.107155
H49   H     H_    0.680840 0.171840 0.818614 0.107197
H50   H     H_    0.447304 0.748946 0.180814 0.104293
H51   H     H_    0.445143 0.249960 0.180512 0.105140
H52   H     H_    0.552285 0.751400 0.817807 0.104310
H53   H     H_    0.887139 0.409830 0.495623 0.104998
H54   H     H_    0.893071 0.587005 0.335771 0.104594
H55   H     H_    0.902512 0.409400 0.345849 0.107070
H56   H     H_    0.880281 0.587605 0.488438 0.105057
H57   H     H_    0.389526 0.910447 0.494947 0.105177
H58   H     H_    0.391227 0.088175 0.333547 0.107509
H59   H     H_    0.393185 0.910502 0.336015 0.107275
H60   H     H_    0.387974 0.088271 0.492721 0.105273
N1    N     N_R   0.892620 0.603790 0.941800 -0.037235
N2    N     N_R   0.107380 0.396210 0.058200 -0.040011
N3    N     N_R   0.107380 0.603790 0.058200 -0.041349
N4    N     N_R   0.892620 0.396210 0.941800 -0.036654
N5    N     N_R   0.392620 0.103790 0.941800 -0.036535
N6    N     N_R   0.607380 0.896210 0.058200 -0.038288
N7    N     N_R   0.607380 0.103790 0.058200 -0.039661
N8    N     N_R   0.392620 0.896210 0.941800 -0.035404
N9    N     N_R   0.952210 0.397600 0.057910 -0.036576
N10   N     N_R   0.047790 0.602400 0.942090 -0.041203
N11   N     N_R   0.047790 0.397600 0.942090 -0.039527
N12   N     N_R   0.952210 0.602400 0.057910 -0.036773
N13   N     N_R   0.452210 0.897600 0.057910 -0.035215
N14   N     N_R   0.547790 0.102400 0.942090 -0.039529
N15   N     N_R   0.547790 0.897600 0.942090 -0.037858
N16   N     N_R   0.452210 0.102400 0.057910 -0.036188
N17   N     N_R   0.026300 0.529110 0.206760 -0.038760
N18   N     N_R   0.973700 0.470890 0.793240 -0.037118
N19   N     N_R   0.973700 0.529110 0.793240 -0.037346
N20   N     N_R   0.026300 0.470890 0.206760 -0.039769
N21   N     N_R   0.526300 0.029110 0.206760 -0.040631
N22   N     N_R   0.473700 0.970890 0.793240 -0.038284
N23   N     N_R   0.473700 0.029110 0.793240 -0.037929
N24   N     N_R   0.526300 0.970890 0.206760 -0.041090
N25   N     N_R   0.818530 0.472270 0.792960 -0.039596
N26   N     N_R   0.181470 0.527730 0.207040 -0.035124
N27   N     N_R   0.181470 0.472270 0.207040 -0.035544
N28   N     N_R   0.818530 0.527730 0.792960 -0.038906
N29   N     N_R   0.318530 0.972270 0.792960 -0.041140
N30   N     N_R   0.681470 0.027730 0.207040 -0.035754
N31   N     N_R   0.681470 0.972270 0.207040 -0.037137
N32   N     N_R   0.318530 0.027730 0.792960 -0.040654
Ni1   Ni    Ni4+2 0.934150 0.565840 0.869060 0.211003
Ni2   Ni    Ni4+2 0.065850 0.434160 0.130940 0.210866
Ni3   Ni    Ni4+2 0.065850 0.565840 0.130940 0.213253
Ni4   Ni    Ni4+2 0.934150 0.434160 0.869060 0.208220
Ni5   Ni    Ni4+2 0.434150 0.065840 0.869060 0.207997
Ni6   Ni    Ni4+2 0.565850 0.934160 0.130940 0.208125
Ni7   Ni    Ni4+2 0.565850 0.065840 0.130940 0.210385
Ni8   Ni    Ni4+2 0.434150 0.934160 0.869060 0.205628
H61   H     H_    0.511265 0.428004 0.686149 0.114447
H62   H     H_    0.466671 0.569565 0.422903 0.109232
H63   H     H_    0.449315 0.408670 0.463126 0.104596
H64   H     H_    0.527981 0.588701 0.645533 0.107669
H65   H     H_    0.010627 0.924307 0.674563 0.113252
H66   H     H_    0.973434 0.074111 0.429423 0.108496
H67   H     H_    0.961790 0.911488 0.455064 0.108440
H68   H     H_    0.022090 0.086963 0.648698 0.110500

loop_
_geom_bond_atom_site_label_1
_geom_bond_atom_site_label_2
_ccdc_geom_bond_type
C16   C28   A    
C89   H61   S    
C6    N6    A    
C10   C85   S    
C21   C29   A    
N30   N31   A    
C65   H25   S    
C20   H44   S    
C94   C100  S    
C94   H66   S    
C59   C82   A    
C97   H33   S    
C70   C88   A    
C9    C91   S    
N6    Ni6   S    
N18   N19   A    
C53   N13   A    
C15   C32   A    
C42   H58   S    
C16   C31   A    
C40   C46   A    
N6    N15   A    
N23   Ni5   S    
C56   N16   A    
C25   H49   S    
C38   C40   A    
C54   C79   A    
C43   H59   S    
C19   C36   A    
C58   C82   A    
C32   C74   S    
C96   H68   S    
C52   H12   S    
C11   C95   S    
C96   C99   S    
N17   Ni3   S    
C18   C33   A    
C50   H10   S    
C11   C99   S    
C10   C98   S    
N3    N10   A    
C20   C24   A    
N22   N23   A    
C38   C45   A    
C7    N7    A    
C8    N8    A    
C89   C97   S    
C34   C80   S    
C46   C82   S    
N1    N12   A    
C15   C27   A    
C26   C34   A    
N2    N11   A    
C14   H38   S    
C10   C89   S    
C53   H13   S    
N14   Ni5   S    
C92   C97   S    
C9    C97   S    
C4    N4    A    
C60   H20   S    
C47   C83   S    
C89   C91   S    
C3    C75   A    
C68   H28   S    
C69   C87   A    
C3    N3    A    
C39   C45   A    
C10   C92   S    
C93   C95   S    
C68   C85   A    
C41   C43   A    
C2    N2    A    
N4    N9    A    
C16   H40   S    
C62   C84   A    
C42   C44   A    
C8    H8    S    
N31   Ni6   S    
C49   N9    A    
C67   N27   A    
N30   Ni7   S    
C72   H32   S    
C15   H39   S    
C95   H67   S    
N8    N13   A    
N15   Ni8   S    
C65   N25   A    
C63   N23   A    
C92   H64   S    
C99   H35   S    
C22   H46   S    
N26   Ni3   S    
C26   H50   S    
C53   C80   A    
N22   Ni8   S    
C50   N10   A    
C52   C73   A    
C24   H48   S    
C69   N29   A    
C55   C78   A    
C95   C100  S    
C33   C79   S    
N25   N28   A    
C5    H5    S    
C56   H16   S    
C27   C35   A    
C64   H24   S    
N18   Ni4   S    
C35   C77   S    
C17   C21   A    
C56   C77   A    
C48   C84   S    
C51   C74   A    
C39   H55   S    
N5    N16   A    
C13   H37   S    
N29   N32   A    
C19   C23   A    
C24   C32   A    
C64   C83   A    
N5    Ni5   S    
C9    C86   S    
C62   N22   A    
C30   C76   S    
C60   C81   A    
C13   C30   A    
C90   C92   S    
C2    H2    S    
N3    Ni3   S    
C11   C88   S    
N17   N20   A    
N2    Ni2   S    
C6    H6    S    
C49   C76   A    
N1    Ni1   S    
C58   N18   A    
N32   Ni5   S    
C14   C26   A    
C94   C96   S    
C58   H18   S    
C55   N15   A    
C51   H11   S    
N7    N14   A    
C41   H57   S    
N29   Ni8   S    
C12   C96   S    
C31   C73   S    
N28   Ni1   S    
C28   H52   S    
C5    N5    A    
C66   N26   A    
N27   Ni2   S    
C61   C83   A    
C67   H27   S    
C44   H60   S    
C4    C76   A    
C7    H7    S    
C12   C93   S    
C21   H45   S    
C17   C34   A    
C38   H54   S    
C14   C29   A    
C5    C77   A    
N21   Ni7   S    
C70   H30   S    
C1    H1    S    
C62   H22   S    
C72   C87   A    
N20   Ni2   S    
C70   N30   A    
C7    C79   A    
C93   H65   S    
N19   Ni1   S    
N21   N24   A    
C3    H3    S    
C68   N28   A    
C93   C99   S    
C67   C86   A    
C59   H19   S    
C22   C30   A    
C12   C87   S    
C27   H51   S    
N13   Ni6   S    
C18   C22   A    
C61   N21   A    
C20   C35   A    
C45   C81   S    
C61   H21   S    
C11   C94   S    
N11   Ni4   S    
C13   C25   A    
C2    C74   A    
C9    C90   S    
C66   C86   A    
N10   Ni1   S    
C63   H23   S    
N4    Ni4   S    
C65   C85   A    
N9    Ni2   S    
C29   C75   S    
C18   H42   S    
C60   N20   A    
C98   H34   S    
N24   Ni6   S    
N16   Ni7   S    
C63   C84   A    
C1    C73   A    
C54   N14   A    
C37   H53   S    
C51   N11   A    
N26   N27   A    
C49   H9    S    
C37   C39   A    
C23   H47   S    
C50   C75   A    
C57   N17   A    
C55   H15   S    
C54   H14   S    
C59   N19   A    
C52   N12   A    
C41   C48   A    
C72   N32   A    
C4    H4    S    
C57   C81   A    
C42   C47   A    
C91   C98   S    
N8    Ni8   S    
C17   H41   S    
C19   H43   S    
C57   H17   S    
C12   C100  S    
C6    C78   A    
C1    N1    A    
C71   C88   A    
C64   N24   A    
C66   H26   S    
C28   C36   A    
C71   H31   S    
C69   H29   S    
C25   C33   A    
C100  H36   S    
C8    C80   A    
N7    Ni7   S    
C40   H56   S    
N12   Ni3   S    
C36   C78   S    
N25   Ni4   S    
C71   N31   A    
C37   C46   A    
C43   C47   A    
C90   C98   S    
C91   H63   S    
C44   C48   A    
C23   C31   A    
C90   H62   S    
