data_mof_unit_30473.cif
_audit_creation_date              2012-12-10T17:29:04-0500
_audit_creation_method            fapswitch 2.2
_symmetry_space_group_name_H-M    P1
_symmetry_Int_Tables_number       1
_space_group_crystal_system       triclinic
_cell_length_a                    18.343473
_cell_length_b                    18.343368
_cell_length_c                    51.430773
_cell_angle_alpha                 89.998977
_cell_angle_beta                  89.999244
_cell_angle_gamma                 89.829484
_cell_volume                      17305.4051787

loop_
_atom_site_label
_atom_site_type_symbol
_atom_type_description
_atom_site_fract_x
_atom_site_fract_y
_atom_site_fract_z
_atom_type_partial_charge
C1    C     C_R   0.000001 0.500000 0.179880 0.513578
C2    C     C_R   0.366635 0.990097 0.986599 0.251195
C3    C     C_R   0.606913 0.285932 0.266824 -0.078700
C4    C     C_R   0.733536 0.625927 0.717650 -0.083937
C5    C     C_R   0.266419 0.374032 0.282372 -0.085327
C6    C     C_R   0.606852 0.285999 0.733261 -0.077947
C7    C     C_R   0.393121 0.714030 0.266775 -0.078706
C8    C     C_R   0.785995 0.106849 0.766740 -0.077959
C9    C     C_R   0.214032 0.893124 0.233224 -0.078665
C10   C     C_R   0.874074 0.766463 0.782349 -0.083926
C11   C     C_R   0.125973 0.233582 0.217625 -0.085302
C12   C     C_R   0.214002 0.893149 0.766739 -0.077967
C13   C     C_R   0.006876 0.633490 0.013398 0.251294
C14   C     C_R   0.785931 0.106915 0.233175 -0.078666
C15   C     C_R   0.125923 0.233531 0.782348 -0.083923
C16   C     C_R   0.874035 0.766424 0.217628 -0.085340
C17   C     C_R   0.766421 0.874031 0.217625 -0.083937
C18   C     C_R   0.233535 0.125921 0.782349 -0.085391
C19   C     C_R   0.893086 0.214068 0.233176 -0.077950
C20   C     C_R   0.106849 0.785996 0.766738 -0.078700
C21   C     C_R   0.233580 0.125967 0.217628 -0.083954
C22   C     C_R   0.766461 0.874072 0.782350 -0.085354
C23   C     C_R   0.106878 0.785971 0.233224 -0.077955
C24   C     C_R   0.009401 0.366598 0.986607 0.250973
C25   C     C_R   0.893149 0.214001 0.766739 -0.078704
C26   C     C_R   0.356573 0.589995 0.274770 -0.102897
C27   C     C_R   0.643385 0.410047 0.725287 -0.103194
C28   C     C_R   0.381071 0.327417 0.298322 -0.108756
C29   C     C_R   0.618862 0.672521 0.701713 -0.110060
C30   C     C_R   0.643481 0.409946 0.274846 -0.102873
C31   C     C_R   0.356618 0.589955 0.725288 -0.103196
C32   C     C_R   0.618919 0.672577 0.298320 -0.108775
C33   C     C_R   0.381143 0.327488 0.701715 -0.110063
C34   C     C_R   0.327487 0.381147 0.701716 -0.108796
C35   C     C_R   0.366368 0.006408 0.013406 0.251235
C36   C     C_R   0.672581 0.618924 0.298323 -0.110027
C37   C     C_R   0.410046 0.643383 0.725288 -0.102888
C38   C     C_R   0.590053 0.356518 0.274845 -0.103183
C39   C     C_R   0.672518 0.618863 0.701714 -0.108793
C40   C     C_R   0.327415 0.381077 0.298321 -0.110044
C41   C     C_R   0.589957 0.356620 0.725287 -0.102888
C42   C     C_R   0.410002 0.643424 0.274769 -0.103210
C43   C     C_R   0.856615 0.089953 0.774713 -0.102936
C44   C     C_R   0.143426 0.910005 0.225230 -0.103158
C45   C     C_R   0.881139 0.827480 0.798286 -0.108835
C46   C     C_R   0.633190 0.010051 0.986585 0.251153
C47   C     C_R   0.118930 0.172584 0.201677 -0.109985
C48   C     C_R   0.143382 0.910044 0.774712 -0.102940
C49   C     C_R   0.856518 0.090054 0.225154 -0.103138
C50   C     C_R   0.118857 0.172510 0.798285 -0.108832
C51   C     C_R   0.881081 0.827422 0.201680 -0.110025
C52   C     C_R   0.827420 0.881076 0.201678 -0.108740
C53   C     C_R   0.172515 0.118853 0.798285 -0.110176
C54   C     C_R   0.909946 0.143482 0.225154 -0.102830
C55   C     C_R   0.089954 0.856616 0.774712 -0.103248
C56   C     C_R   0.172584 0.118923 0.201679 -0.108746
C57   C     C_R   0.993085 0.366513 0.013414 0.251394
C58   C     C_R   0.827480 0.881137 0.798287 -0.110136
C59   C     C_R   0.089998 0.856577 0.225230 -0.102855
C60   C     C_R   0.910043 0.143380 0.774713 -0.103250
C61   C     C_R   0.321992 0.732361 0.258091 0.017317
C62   C     C_R   0.677995 0.267653 0.741927 0.017609
C63   C     C_R   0.257873 0.312357 0.266089 0.018024
C64   C     C_R   0.742104 0.687622 0.733923 0.018171
C65   C     C_R   0.678025 0.267620 0.258116 0.017317
C66   C     C_R   0.322006 0.732348 0.741927 0.017610
C67   C     C_R   0.742126 0.687643 0.266090 0.018021
C68   C     C_R   0.990543 0.633375 0.986593 0.250997
C69   C     C_R   0.257898 0.312382 0.733923 0.018173
C70   C     C_R   0.312381 0.257898 0.733923 0.018035
C71   C     C_R   0.687641 0.742124 0.266089 0.018163
C72   C     C_R   0.267652 0.677994 0.741927 0.017336
C73   C     C_R   0.732380 0.321974 0.258117 0.017599
C74   C     C_R   0.687621 0.742105 0.733923 0.018037
C75   C     C_R   0.312356 0.257874 0.266090 0.018163
C76   C     C_R   0.732349 0.322007 0.741927 0.017337
C77   C     C_R   0.267638 0.678007 0.258091 0.017600
C78   C     C_R   0.822005 0.232347 0.758073 0.017326
C79   C     C_R   0.133504 0.492376 0.513400 0.251157
C80   C     C_R   0.178008 0.767639 0.241908 0.017601
C81   C     C_R   0.757895 0.812378 0.766078 0.018038
C82   C     C_R   0.242127 0.187643 0.233911 0.018156
C83   C     C_R   0.177993 0.767652 0.758073 0.017329
C84   C     C_R   0.821975 0.232379 0.241884 0.017600
C85   C     C_R   0.242103 0.187618 0.766077 0.018040
C86   C     C_R   0.757875 0.812357 0.233910 0.018154
C87   C     C_R   0.812359 0.757875 0.233911 0.018013
C88   C     C_R   0.187619 0.242101 0.766077 0.018180
C89   C     C_R   0.767620 0.178026 0.241883 0.017325
C90   C     C_R   0.866637 0.491321 0.486597 0.251125
C91   C     C_R   0.232348 0.822006 0.758073 0.017610
C92   C     C_R   0.187644 0.242126 0.233910 0.018014
C93   C     C_R   0.812379 0.757896 0.766077 0.018180
C94   C     C_R   0.232362 0.821994 0.241908 0.017327
C95   C     C_R   0.767651 0.177993 0.758073 0.017611
C96   C     C_R   0.303901 0.803903 0.250000 0.015274
C97   C     C_R   0.696098 0.196098 0.750000 0.015752
C98   C     C_R   0.196045 0.303955 0.250000 0.019631
C99   C     C_R   0.803955 0.696045 0.750000 0.019772
C100  C     C_R   0.696097 0.196098 0.249999 0.015293
C101  C     C_R   0.508403 0.133396 0.513400 0.251133
C102  C     C_R   0.303902 0.803902 0.750000 0.015752
C103  C     C_R   0.803956 0.696045 0.250000 0.019629
C104  C     C_R   0.196045 0.303955 0.750000 0.019772
C105  C     C_R   0.303955 0.196045 0.750000 0.019638
C106  C     C_R   0.696045 0.803955 0.249999 0.019769
C107  C     C_R   0.196098 0.696098 0.750000 0.015268
C108  C     C_R   0.803902 0.303901 0.250000 0.015778
C109  C     C_R   0.696045 0.803955 0.750000 0.019639
C110  C     C_R   0.303955 0.196045 0.250000 0.019769
C111  C     C_R   0.803902 0.303902 0.750000 0.015268
C112  C     C_R   0.999999 0.499998 0.820120 0.513483
C113  C     C_R   0.507906 0.866520 0.486602 0.251151
C114  C     C_R   0.196098 0.696098 0.250000 0.015758
C115  C     C_R   0.435068 0.998765 0.055047 0.508489
C116  C     C_R   0.564790 0.000407 0.944953 0.508617
C117  C     C_R   0.001070 0.435134 0.055049 0.508600
C118  C     C_R   0.999763 0.564863 0.944953 0.508413
C119  C     C_R   0.564812 0.001346 0.055042 0.508532
C120  C     C_R   0.435022 0.999630 0.944956 0.508450
C121  C     C_R   0.998946 0.564898 0.055043 0.508653
C122  C     C_R   0.000195 0.435085 0.944959 0.508392
C123  C     C_R   0.935130 0.499366 0.555045 0.508466
C124  C     C_R   0.866522 0.507659 0.513401 0.251153
C125  C     C_R   0.064898 0.499857 0.444953 0.508517
C126  C     C_R   0.500297 0.935120 0.555048 0.508536
C127  C     C_R   0.500515 0.064875 0.444954 0.508492
C128  C     C_R   0.064895 0.500657 0.555045 0.508483
C129  C     C_R   0.935124 0.500163 0.444954 0.508522
C130  C     C_R   0.499707 0.064896 0.555045 0.508550
C131  C     C_R   0.499464 0.935106 0.444956 0.508520
C132  C     C_R   0.566938 0.997308 0.027545 0.009670
C133  C     C_R   0.433033 0.995502 0.972452 0.009478
C134  C     C_R   0.003013 0.566978 0.027547 0.009550
C135  C     C_R   0.133386 0.508712 0.486595 0.251117
C136  C     C_R   0.004291 0.433055 0.972455 0.009628
C137  C     C_R   0.432928 0.002818 0.027551 0.009721
C138  C     C_R   0.566787 0.004584 0.972446 0.009592
C139  C     C_R   0.996980 0.433034 0.027554 0.009705
C140  C     C_R   0.995669 0.566910 0.972449 0.009692
C141  C     C_R   0.066987 0.496600 0.527548 0.009675
C142  C     C_R   0.933091 0.496079 0.472450 0.009617
C143  C     C_R   0.503787 0.066934 0.527549 0.009595
C144  C     C_R   0.503537 0.933027 0.472453 0.009645
C145  C     C_R   0.933040 0.503429 0.527549 0.009698
C146  C     C_R   0.491581 0.866606 0.513408 0.251152
C147  C     C_R   0.066933 0.503946 0.472449 0.009623
C148  C     C_R   0.496208 0.933073 0.527553 0.009623
C149  C     C_R   0.496442 0.066961 0.472450 0.009685
C150  C     C_R   0.499927 0.000056 0.013783 -0.103217
C151  C     C_R   0.499916 0.000046 0.986215 -0.103375
C152  C     C_R   0.999994 0.500000 0.013785 -0.103342
C153  C     C_R   0.999986 0.499988 0.986217 -0.103153
C154  C     C_R   0.000013 0.500014 0.513783 -0.103222
C155  C     C_R   0.000012 0.500013 0.486215 -0.103275
C156  C     C_R   0.499996 0.000001 0.513785 -0.103281
C157  C     C_R   0.492070 0.133472 0.486595 0.251148
C158  C     C_R   0.499992 0.999996 0.486217 -0.103238
C159  C     C_R   0.998410 0.566612 0.390068 0.196948
C160  C     C_R   0.000588 0.566625 0.609930 0.196972
C161  C     C_R   0.433378 0.999255 0.390070 0.196994
C162  C     C_R   0.433392 0.001499 0.609931 0.196954
C163  C     C_R   0.001606 0.433395 0.390070 0.196949
C164  C     C_R   0.499998 0.000001 0.179880 0.513549
C165  C     C_R   0.999433 0.433388 0.609930 0.196996
C166  C     C_R   0.566611 0.000721 0.390070 0.196984
C167  C     C_R   0.566612 0.998526 0.609931 0.196978
C168  C     C_R   0.497532 0.066590 0.890066 0.196045
C169  C     C_R   0.499949 0.066650 0.109932 0.196993
C170  C     C_R   0.933384 0.498570 0.890069 0.196976
C171  C     C_R   0.933389 0.500865 0.109930 0.196938
C172  C     C_R   0.502310 0.933414 0.890070 0.196955
C173  C     C_R   0.499980 0.933404 0.109926 0.197015
C174  C     C_R   0.066593 0.501361 0.890071 0.196953
C175  C     C_R   0.500000 0.999999 0.820120 0.513501
C176  C     C_R   0.066629 0.499185 0.109931 0.196907
C177  C     C_R   0.998290 0.565881 0.362804 -0.129612
C178  C     C_R   0.000714 0.565896 0.637194 -0.129533
C179  C     C_R   0.434108 0.999131 0.362806 -0.129601
C180  C     C_R   0.434120 0.001618 0.637195 -0.129636
C181  C     C_R   0.001719 0.434121 0.362806 -0.129595
C182  C     C_R   0.999296 0.434114 0.637194 -0.129489
C183  C     C_R   0.565885 0.000856 0.362806 -0.129530
C184  C     C_R   0.565883 0.998397 0.637194 -0.129605
C185  C     C_R   0.497456 0.065856 0.862803 -0.130168
C186  C     C_R   0.500000 0.000000 0.679880 0.513555
C187  C     C_R   0.500122 0.065912 0.137196 -0.129604
C188  C     C_R   0.934118 0.498485 0.862805 -0.129537
C189  C     C_R   0.934114 0.501014 0.137193 -0.129822
C190  C     C_R   0.502462 0.934143 0.862806 -0.129765
C191  C     C_R   0.499836 0.934119 0.137190 -0.129508
C192  C     C_R   0.065868 0.501471 0.862807 -0.129467
C193  C     C_R   0.065898 0.499014 0.137194 -0.129690
C194  C     C_R   0.000003 0.500000 0.348963 -0.054036
C195  C     C_R   0.000002 0.500004 0.651037 -0.054129
C196  C     C_R   0.499997 0.999998 0.348963 -0.054124
C197  C     C_R   0.499999 1.000000 0.320120 0.513511
C198  C     C_R   0.500001 0.000003 0.651037 -0.054020
C199  C     C_R   0.499987 1.000000 0.848962 -0.053836
C200  C     C_R   0.499984 0.000009 0.151036 -0.054098
C201  C     C_R   0.999995 0.499988 0.848964 -0.054162
C202  C     C_R   0.000004 0.500005 0.151037 -0.053955
C203  C     C_R   0.000010 0.500005 0.403915 0.192716
C204  C     C_R   0.000011 0.500008 0.596083 0.192640
C205  C     C_R   0.499993 0.999988 0.403917 0.192676
C206  C     C_R   0.500002 0.000013 0.596084 0.192749
C207  C     C_R   0.499912 0.000004 0.903916 0.192817
C208  C     C_R   1.000000 0.500001 0.679880 0.513536
C209  C     C_R   0.499953 0.000033 0.096082 0.192689
C210  C     C_R   0.999986 0.499965 0.903918 0.192610
C211  C     C_R   0.000010 0.500025 0.096084 0.192842
C212  C     C_R   0.859922 0.640078 0.250000 0.487491
C213  C     C_R   0.140078 0.359922 0.750000 0.487816
C214  C     C_R   0.359867 0.859868 0.250000 0.487999
C215  C     C_R   0.640133 0.140133 0.750000 0.488601
C216  C     C_R   0.140078 0.359921 0.250000 0.487499
C217  C     C_R   0.859921 0.640078 0.750000 0.487824
C218  C     C_R   0.640132 0.140133 0.250000 0.488003
C219  C     C_R   0.000000 0.499999 0.320120 0.513531
C220  C     C_R   0.359867 0.859867 0.750000 0.488594
C221  C     C_R   0.859867 0.359867 0.750000 0.487976
C222  C     C_R   0.140133 0.640133 0.250000 0.488595
C223  C     C_R   0.359922 0.140078 0.750000 0.487478
C224  C     C_R   0.640078 0.859922 0.250000 0.487811
C225  C     C_R   0.140133 0.640133 0.750000 0.487978
C226  C     C_R   0.859867 0.359867 0.250000 0.488602
C227  C     C_R   0.640078 0.859922 0.750000 0.487489
C228  C     C_R   0.359922 0.140079 0.250000 0.487820
C229  C     C_R   0.285968 0.606877 0.266776 -0.077973
C230  C     C_R   0.633492 0.993757 0.013392 0.251266
C231  C     C_R   0.714005 0.393151 0.733261 -0.078663
C232  C     C_R   0.374028 0.266419 0.282374 -0.083921
C233  C     C_R   0.625927 0.733539 0.717650 -0.085316
C234  C     C_R   0.714068 0.393085 0.266825 -0.077969
C235  C     C_R   0.285998 0.606851 0.733261 -0.078665
C236  C     C_R   0.625964 0.733574 0.282371 -0.083943
C237  C     C_R   0.374076 0.266467 0.717651 -0.085320
C238  C     C_R   0.266468 0.374080 0.717652 -0.083936
C239  C     C_R   0.733581 0.625970 0.282375 -0.085309
C240  C     C_R   0.393150 0.714003 0.733262 -0.077946
H1    H     H_    0.035336 0.869776 0.218836 0.114114
H2    H     H_    0.928306 0.832984 0.189225 0.124818
H3    H     H_    0.344353 0.120788 0.589541 0.369047
H4    H     H_    0.121008 0.344642 0.410543 0.369087
H5    H     H_    0.881532 0.343658 0.589222 0.369549
H6    H     H_    0.656136 0.118856 0.410722 0.369470
H7    H     H_    0.655667 0.879295 0.589485 0.369117
H8    H     H_    0.376498 0.153501 0.909604 0.367648
H9    H     H_    0.617115 0.157588 0.089406 0.369494
H10   H     H_    0.845180 0.379432 0.910713 0.369287
H11   H     H_    0.842923 0.619381 0.089837 0.368876
H12   H     H_    0.622771 0.845691 0.910262 0.368658
H13   H     H_    0.130171 0.964717 0.781091 0.114097
H14   H     H_    0.382923 0.842517 0.089251 0.369660
H15   H     H_    0.154812 0.620377 0.910832 0.369415
H16   H     H_    0.157019 0.380852 0.089619 0.369121
H17   H     H_    0.869702 0.035408 0.218739 0.113972
H18   H     H_    0.928377 0.833056 0.810733 0.125043
H19   H     H_    0.071712 0.167027 0.189220 0.124803
H20   H     H_    0.869824 0.035279 0.781092 0.114095
H21   H     H_    0.130228 0.964668 0.218835 0.114014
H22   H     H_    0.535284 0.369831 0.718908 0.114102
H23   H     H_    0.464664 0.630225 0.281163 0.114001
H24   H     H_    0.666943 0.571624 0.689267 0.125121
H25   H     H_    0.964716 0.130169 0.781091 0.113993
H26   H     H_    0.332975 0.428301 0.310775 0.124758
H27   H     H_    0.464719 0.630173 0.718910 0.114103
H28   H     H_    0.535407 0.369703 0.281259 0.113960
H29   H     H_    0.333065 0.428389 0.689270 0.125115
H30   H     H_    0.667024 0.571704 0.310780 0.124732
H31   H     H_    0.571693 0.667014 0.310774 0.125114
H32   H     H_    0.428383 0.333065 0.689268 0.124760
H33   H     H_    0.630297 0.464592 0.281260 0.114059
H34   H     H_    0.369829 0.535282 0.718909 0.114002
H35   H     H_    0.428290 0.332975 0.310779 0.125092
H36   H     H_    0.167024 0.071699 0.189225 0.125182
H37   H     H_    0.571624 0.666947 0.689266 0.124765
H38   H     H_    0.369771 0.535333 0.281164 0.114102
H39   H     H_    0.630176 0.464721 0.718908 0.114003
H40   H     H_    0.246159 0.563606 0.267701 0.121049
H41   H     H_    0.753812 0.436423 0.732333 0.121001
H42   H     H_    0.417159 0.226074 0.283042 0.108218
H43   H     H_    0.582794 0.773884 0.716983 0.107986
H44   H     H_    0.753879 0.436355 0.267749 0.120987
H45   H     H_    0.246191 0.563579 0.732334 0.120998
H46   H     H_    0.582828 0.773916 0.283037 0.108215
H47   H     H_    0.833054 0.928374 0.810734 0.124667
H48   H     H_    0.417208 0.226122 0.716983 0.107985
H49   H     H_    0.226125 0.417215 0.716986 0.108211
H50   H     H_    0.773928 0.582839 0.283044 0.107981
H51   H     H_    0.436422 0.753810 0.732335 0.121090
H52   H     H_    0.563643 0.246122 0.267747 0.120897
H53   H     H_    0.773880 0.582793 0.716983 0.108213
H54   H     H_    0.226075 0.417166 0.283039 0.107982
H55   H     H_    0.563580 0.246192 0.732334 0.121087
H56   H     H_    0.436392 0.753838 0.267701 0.120955
H57   H     H_    0.746188 0.063578 0.767667 0.121088
H58   H     H_    0.964593 0.130297 0.218740 0.114070
H59   H     H_    0.253841 0.936395 0.232298 0.120967
H60   H     H_    0.917208 0.726120 0.783016 0.108209
H61   H     H_    0.082842 0.273929 0.216956 0.108004
H62   H     H_    0.253809 0.936420 0.767667 0.121081
H63   H     H_    0.746121 0.063645 0.232251 0.120903
H64   H     H_    0.082789 0.273875 0.783016 0.108202
H65   H     H_    0.917170 0.726081 0.216962 0.107998
H66   H     H_    0.726074 0.917162 0.216957 0.108218
H67   H     H_    0.273880 0.082788 0.783016 0.107923
H68   H     H_    0.936357 0.253878 0.232253 0.120991
H69   H     H_    0.035280 0.869826 0.781090 0.113993
H70   H     H_    0.063577 0.746190 0.767665 0.120992
H71   H     H_    0.273923 0.082832 0.216962 0.108224
H72   H     H_    0.726116 0.917204 0.783018 0.107949
H73   H     H_    0.063607 0.746162 0.232299 0.121050
H74   H     H_    0.936421 0.253808 0.767666 0.120988
H75   H     H_    0.996785 0.616979 0.352296 0.191279
H76   H     H_    0.001402 0.617004 0.647702 0.191365
H77   H     H_    0.383002 0.998314 0.352298 0.191339
H78   H     H_    0.383018 0.003041 0.647702 0.191264
H79   H     H_    0.003219 0.383022 0.352299 0.191283
H80   H     H_    0.832978 0.928297 0.189221 0.125147
H81   H     H_    0.998612 0.383004 0.647701 0.191382
H82   H     H_    0.616992 0.001665 0.352299 0.191367
H83   H     H_    0.616984 0.996977 0.647702 0.191275
H84   H     H_    0.495270 0.116933 0.852296 0.191024
H85   H     H_    0.500371 0.117023 0.147705 0.191327
H86   H     H_    0.883025 0.497169 0.852297 0.191372
H87   H     H_    0.883000 0.501963 0.147699 0.191178
H88   H     H_    0.504607 0.883064 0.852300 0.191133
H89   H     H_    0.499615 0.883000 0.147696 0.191353
H90   H     H_    0.116964 0.502782 0.852300 0.191393
H91   H     H_    0.166939 0.071613 0.810732 0.124635
H92   H     H_    0.117009 0.498080 0.147702 0.191234
H93   H     H_    0.812980 0.903828 0.013440 0.382184
H94   H     H_    0.190654 0.894478 0.986519 0.383086
H95   H     H_    0.097871 0.811901 0.013442 0.382240
H96   H     H_    0.102688 0.188880 0.986625 0.382928
H97   H     H_    0.187050 0.096683 0.013471 0.382228
H98   H     H_    0.808956 0.106072 0.986470 0.383177
H99   H     H_    0.901984 0.188154 0.013495 0.382225
H100  H     H_    0.895510 0.810261 0.986495 0.383140
H101  H     H_    0.311883 0.400243 0.513462 0.382536
H102  H     H_    0.071617 0.166932 0.810731 0.125039
H103  H     H_    0.689593 0.397700 0.486532 0.382694
H104  H     H_    0.601567 0.310679 0.513458 0.382611
H105  H     H_    0.600544 0.688396 0.486532 0.382629
H106  H     H_    0.688189 0.599882 0.513465 0.382558
H107  H     H_    0.310415 0.602363 0.486523 0.382718
H108  H     H_    0.398462 0.689301 0.513482 0.382612
H109  H     H_    0.399052 0.311413 0.486502 0.382687
H110  H     H_    0.878995 0.655390 0.410514 0.369067
H111  H     H_    0.118558 0.656351 0.589296 0.369464
H112  H     H_    0.343808 0.881027 0.410607 0.369350
N1    N     N_R   0.499944 0.000045 0.067996 -0.373139
N2    N     N_R   0.499904 0.000004 0.932001 -0.373321
N3    N     N_R   0.000013 0.500020 0.067998 -0.373267
N4    N     N_R   0.999983 0.499970 0.932004 -0.373065
N5    N     N_R   0.000013 0.500010 0.567997 -0.373099
N6    N     N_R   0.000011 0.500007 0.432001 -0.373163
N7    N     N_R   0.500003 0.000010 0.567998 -0.373175
N8    N     N_R   0.499992 0.999989 0.432003 -0.373115
O1    O     O_3   1.000000 0.500000 0.250000 -0.446104
O2    O     O_R   0.060810 0.500000 0.807590 -0.533746
O3    O     O_2   0.608951 0.191000 0.545612 -0.175039
O4    O     O_3   0.585176 0.266353 0.504173 -0.443403
O5    O     O_2   0.491270 0.744426 0.457939 -0.170677
O6    O     O_2   0.608213 0.807915 0.454386 -0.175192
O7    O     O_3   0.584155 0.732804 0.495827 -0.443315
O8    O     O_2   0.744467 0.490791 0.542068 -0.170683
O9    O     O_2   0.807718 0.607866 0.545612 -0.175137
O10   O     O_3   0.732655 0.583634 0.504173 -0.443468
O11   O     O_2   0.255666 0.492852 0.457924 -0.170706
O12   O     O_2   0.190747 0.609394 0.454379 -0.174983
O13   O     O_R   0.500000 0.939190 0.192410 -0.533797
O14   O     O_3   0.266167 0.585792 0.495815 -0.443287
O15   O     O_2   0.507732 0.744367 0.542080 -0.170690
O16   O     O_2   0.391045 0.809020 0.545632 -0.174959
O17   O     O_3   0.414796 0.733648 0.504196 -0.443480
O18   O     O_2   0.508656 0.255567 0.457925 -0.170469
O19   O     O_2   0.391735 0.192034 0.454382 -0.175466
O20   O     O_3   0.415789 0.267170 0.495818 -0.443305
O21   O     O_2   0.059419 0.656418 0.424851 -0.152468
O22   O     O_2   0.000437 0.713731 0.387451 -0.232309
O23   O     O_3   0.918447 0.659092 0.423594 -0.429748
O24   O     O_R   0.500000 0.060810 0.807590 -0.533726
O25   O     O_2   0.937956 0.655957 0.575245 -0.152397
O26   O     O_2   0.996620 0.713724 0.612549 -0.232515
O27   O     O_3   0.078896 0.659703 0.576277 -0.430020
O28   O     O_2   0.343946 0.061541 0.424804 -0.152473
O29   O     O_2   0.286275 0.003024 0.387452 -0.232483
O30   O     O_3   0.340422 0.920601 0.423659 -0.429907
O31   O     O_2   0.343734 0.940415 0.575115 -0.152612
O32   O     O_2   0.286281 0.999121 0.612542 -0.232309
O33   O     O_3   0.340740 0.081378 0.576441 -0.429624
O34   O     O_2   0.940561 0.343584 0.424844 -0.152455
O35   O     O_R   0.560810 0.000000 0.692410 -0.533744
O36   O     O_2   0.999616 0.286274 0.387458 -0.232307
O37   O     O_3   0.081535 0.340936 0.423615 -0.429811
O38   O     O_2   0.062205 0.344041 0.575285 -0.152326
O39   O     O_2   0.003330 0.286288 0.612551 -0.232559
O40   O     O_3   0.921258 0.340338 0.576226 -0.430147
O41   O     O_2   0.656075 0.938232 0.424744 -0.152366
O42   O     O_2   0.713716 0.997076 0.387450 -0.232519
O43   O     O_3   0.659520 0.079184 0.423737 -0.430097
O44   O     O_2   0.656284 0.059722 0.575145 -0.152547
O45   O     O_2   0.713724 0.000858 0.612544 -0.232351
O46   O     O_R   0.439190 0.000000 0.307590 -0.533790
O47   O     O_3   0.659252 0.918754 0.576403 -0.429708
O48   O     O_2   0.555957 0.156700 0.925350 -0.153483
O49   O     O_2   0.499091 0.213711 0.887479 -0.231084
O50   O     O_3   0.415092 0.158632 0.922943 -0.427896
O51   O     O_2   0.436629 0.155356 0.075196 -0.152692
O52   O     O_2   0.494434 0.213703 0.112556 -0.232654
O53   O     O_3   0.577511 0.160550 0.076353 -0.429617
O54   O     O_2   0.843217 0.560044 0.924744 -0.152075
O55   O     O_2   0.786248 0.500581 0.887445 -0.232366
O56   O     O_3   0.841344 0.419061 0.923729 -0.430296
O57   O     O_R   1.000000 0.560810 0.692410 -0.533785
O58   O     O_2   0.844519 0.439301 0.074953 -0.153197
O59   O     O_2   0.786328 0.496511 0.112528 -0.232347
O60   O     O_3   0.839727 0.580188 0.076640 -0.428898
O61   O     O_2   0.442616 0.843115 0.924994 -0.152730
O62   O     O_2   0.501419 0.786280 0.887467 -0.232045
O63   O     O_3   0.583577 0.841600 0.923426 -0.429386
O64   O     O_2   0.563544 0.844688 0.075257 -0.152612
O65   O     O_2   0.505336 0.786343 0.112539 -0.232709
O66   O     O_3   0.422647 0.839594 0.076243 -0.429890
O67   O     O_2   0.156769 0.439657 0.924687 -0.151879
O68   O     O_R   1.000000 0.439190 0.307590 -0.533748
O69   O     O_2   0.213731 0.499431 0.887449 -0.232338
O70   O     O_3   0.158602 0.580649 0.923811 -0.430500
O71   O     O_2   0.155560 0.561151 0.075072 -0.152961
O72   O     O_2   0.213698 0.503325 0.112540 -0.232410
O73   O     O_3   0.160226 0.420237 0.076496 -0.429123
O74   O     O_R   0.439190 0.000000 0.692410 -0.533741
O75   O     O_R   0.560810 0.000000 0.307590 -0.533784
O76   O     O_R   1.000000 0.439190 0.692410 -0.533777
O77   O     O_3   1.000000 0.500000 0.750000 -0.446065
O78   O     O_R   1.000000 0.560810 0.307590 -0.533747
O79   O     O_R   0.853910 0.585600 0.235240 -0.536597
O80   O     O_R   0.146090 0.414400 0.764760 -0.535881
O81   O     O_R   0.414400 0.853910 0.235240 -0.537584
O82   O     O_R   0.585600 0.146090 0.764760 -0.536853
O83   O     O_R   0.146090 0.414400 0.235240 -0.536600
O84   O     O_R   0.853910 0.585600 0.764760 -0.535875
O85   O     O_R   0.585600 0.146090 0.235240 -0.537580
O86   O     O_R   0.414400 0.853910 0.764760 -0.536868
O87   O     O_R   0.853910 0.414400 0.764760 -0.537629
O88   O     O_3   0.500000 0.000000 0.250000 -0.446053
O89   O     O_R   0.146090 0.585600 0.235240 -0.536923
O90   O     O_R   0.414400 0.146090 0.764760 -0.536657
O91   O     O_R   0.585600 0.853910 0.235240 -0.535957
O92   O     O_R   0.146090 0.585600 0.764760 -0.537616
O93   O     O_R   0.853910 0.414400 0.235240 -0.536901
O94   O     O_R   0.585600 0.853910 0.764760 -0.536627
O95   O     O_R   0.414400 0.146090 0.235240 -0.535932
O96   O     O_R   0.353910 0.085600 0.735240 -0.536591
O97   O     O_R   0.646090 0.914400 0.264760 -0.535877
O98   O     O_R   0.914400 0.353910 0.735240 -0.537606
O99   O     O_3   0.500000 0.000000 0.750000 -0.446111
O100  O     O_R   0.085600 0.646090 0.264760 -0.536880
O101  O     O_R   0.646090 0.914400 0.735240 -0.536593
O102  O     O_R   0.353910 0.085600 0.264760 -0.535896
O103  O     O_R   0.085600 0.646090 0.735240 -0.537617
O104  O     O_R   0.914400 0.353910 0.264760 -0.536863
O105  O     O_R   0.353910 0.914400 0.264760 -0.537607
O106  O     O_R   0.646090 0.085600 0.735240 -0.536912
O107  O     O_R   0.914400 0.646090 0.264760 -0.536590
O108  O     O_R   0.085600 0.353910 0.735240 -0.535922
O109  O     O_R   0.646090 0.085600 0.264760 -0.537574
O110  O     O_R   0.060810 0.500000 0.192410 -0.533783
O111  O     O_R   0.353910 0.914400 0.735240 -0.536908
O112  O     O_R   0.085600 0.353910 0.264760 -0.536574
O113  O     O_R   0.914400 0.646090 0.735240 -0.535923
O114  O     O_2   0.373344 0.991155 0.068951 -0.381574
O115  O     O_2   0.626743 0.994389 0.931055 -0.381393
O116  O     O_2   0.008464 0.373337 0.068952 -0.381205
O117  O     O_2   0.005947 0.626752 0.931049 -0.381888
O118  O     O_2   0.626540 0.008963 0.068943 -0.381361
O119  O     O_2   0.373070 0.005634 0.931059 -0.381169
O120  O     O_2   0.991558 0.626704 0.068941 -0.380919
O121  O     O_R   0.939190 0.500000 0.807590 -0.533759
O122  O     O_2   0.994003 0.373190 0.931059 -0.381725
O123  O     O_2   0.873328 0.492368 0.568948 -0.381691
O124  O     O_2   0.126793 0.493334 0.431051 -0.381513
O125  O     O_2   0.506958 0.873241 0.568952 -0.381432
O126  O     O_2   0.507397 0.126691 0.431051 -0.381655
O127  O     O_2   0.126696 0.507655 0.568947 -0.381603
O128  O     O_2   0.873229 0.506688 0.431052 -0.381467
O129  O     O_2   0.493050 0.126779 0.568945 -0.381369
O130  O     O_2   0.492572 0.873289 0.431056 -0.381481
O131  O     O_2   0.755354 0.012014 0.042049 -0.170603
O132  O     O_R   0.500000 0.060810 0.192410 -0.533820
O133  O     O_2   0.693426 0.894235 0.045612 -0.175054
O134  O     O_3   0.768197 0.919268 0.004167 -0.444424
O135  O     O_2   0.244181 0.004757 0.957942 -0.170480
O136  O     O_2   0.310279 0.888886 0.954370 -0.175305
O137  O     O_3   0.234652 0.911662 0.995819 -0.442471
O138  O     O_2   0.989353 0.755565 0.042058 -0.170353
O139  O     O_2   0.106754 0.692232 0.045615 -0.175156
O140  O     O_3   0.082157 0.767306 0.004170 -0.444408
O141  O     O_2   0.994041 0.244319 0.957958 -0.171907
O142  O     O_2   0.110298 0.309027 0.954379 -0.173701
O143  O     O_R   0.500000 0.939190 0.807590 -0.533723
O144  O     O_3   0.087101 0.233713 0.995833 -0.442103
O145  O     O_2   0.244494 0.988303 0.042072 -0.170680
O146  O     O_2   0.306576 0.106001 0.045629 -0.175033
O147  O     O_3   0.231755 0.081063 0.004189 -0.443788
O148  O     O_2   0.755659 0.995528 0.957925 -0.170677
O149  O     O_2   0.689385 0.111293 0.954332 -0.175471
O150  O     O_3   0.765058 0.088691 0.995784 -0.442393
O151  O     O_2   0.010575 0.244449 0.042085 -0.170801
O152  O     O_2   0.893212 0.307849 0.045653 -0.175007
O153  O     O_3   0.917719 0.232728 0.004214 -0.445016
O154  O     O_R   0.939190 0.500000 0.192410 -0.533782
O155  O     O_2   0.005759 0.755660 0.957925 -0.170808
O156  O     O_2   0.889569 0.690815 0.954376 -0.175226
O157  O     O_3   0.912757 0.766215 0.995813 -0.442231
O158  O     O_2   0.255551 0.509268 0.542068 -0.170674
O159  O     O_2   0.192329 0.392176 0.545609 -0.175108
O160  O     O_3   0.267394 0.416436 0.504173 -0.443596
O161  O     O_2   0.744355 0.507193 0.457930 -0.170666
O162  O     O_2   0.809260 0.390645 0.454384 -0.175006
O163  O     O_3   0.733851 0.414253 0.495822 -0.443317
O164  O     O_2   0.492259 0.255647 0.542065 -0.170553
S1    S     S_3+6 0.713966 0.954696 0.027319 0.155163
S2    S     S_3+6 0.787179 0.450705 0.472669 0.155442
S3    S     S_3+6 0.548843 0.212946 0.527326 0.155504
S4    S     S_3+6 0.548025 0.786568 0.472675 0.155284
S5    S     S_3+6 0.786492 0.547624 0.527328 0.155275
S6    S     S_3+6 0.212838 0.549336 0.472664 0.155450
S7    S     S_3+6 0.451143 0.787064 0.527343 0.155436
S8    S     S_3+6 0.451923 0.213409 0.472666 0.155260
S9    S     S_3+6 0.996087 0.651583 0.406441 0.098322
S10   S     S_3+6 0.001577 0.651608 0.593554 0.098169
S11   S     S_3+6 0.348397 0.998043 0.406445 0.098197
S12   S     S_3+6 0.287590 0.948691 0.972669 0.155561
S13   S     S_3+6 0.348421 0.003686 0.593556 0.098322
S14   S     S_3+6 0.003922 0.348427 0.406447 0.098308
S15   S     S_3+6 0.998490 0.348407 0.593553 0.098135
S16   S     S_3+6 0.651590 0.001872 0.406447 0.098154
S17   S     S_3+6 0.651584 0.996379 0.593555 0.098300
S18   S     S_3+6 0.493852 0.151536 0.906428 0.098953
S19   S     S_3+6 0.500162 0.151649 0.093561 0.098137
S20   S     S_3+6 0.848418 0.496467 0.906443 0.098264
S21   S     S_3+6 0.848400 0.502255 0.093556 0.098335
S22   S     S_3+6 0.505585 0.848468 0.906445 0.098476
S23   S     S_3+6 0.046415 0.713497 0.027324 0.155278
S24   S     S_3+6 0.499836 0.848420 0.093545 0.098059
S25   S     S_3+6 0.151554 0.503377 0.906449 0.098290
S26   S     S_3+6 0.151620 0.497924 0.093557 0.098296
S27   S     S_3+6 0.050366 0.287069 0.972681 0.155733
S28   S     S_3+6 0.285949 0.045567 0.027338 0.155266
S29   S     S_3+6 0.712170 0.051551 0.972642 0.155477
S30   S     S_3+6 0.953518 0.286538 0.027355 0.154828
S31   S     S_3+6 0.949504 0.712862 0.972663 0.155450
S32   S     S_3+6 0.213542 0.452427 0.527326 0.155270
Zn1   Zn    Zn3+2 1.000000 0.586890 0.272200 0.949047
Zn2   Zn    Zn3+2 0.500000 0.913110 0.227800 0.948897
Zn3   Zn    Zn3+2 0.913110 0.500000 0.772200 0.948952
Zn4   Zn    Zn3+2 0.086890 0.500000 0.227800 0.948997
Zn5   Zn    Zn3+2 0.500000 0.913110 0.772200 0.949040
Zn6   Zn    Zn3+2 0.500000 0.086890 0.227800 0.948904
Zn7   Zn    Zn3+2 0.086890 0.500000 0.772200 0.948961
Zn8   Zn    Zn3+2 0.913110 0.500000 0.227800 0.948992
Zn9   Zn    Zn3+2 1.000000 0.413110 0.727800 0.948927
Zn10  Zn    Zn3+2 0.413110 0.000000 0.272200 0.948928
Zn11  Zn    Zn3+2 0.586890 0.000000 0.727800 0.949044
Zn12  Zn    Zn3+2 1.000000 0.413110 0.272200 0.949070
Zn13  Zn    Zn3+2 1.000000 0.586890 0.727800 0.948923
Zn14  Zn    Zn3+2 0.586890 0.000000 0.272200 0.948951
Zn15  Zn    Zn3+2 0.413110 0.000000 0.727800 0.949030
Zn16  Zn    Zn3+2 0.500000 0.086890 0.772200 0.949006

loop_
_geom_bond_atom_site_label_1
_geom_bond_atom_site_label_2
_ccdc_geom_bond_type
O121  Zn3   S    
C184  H83   S    
C132  C150  A    
C124  S5    S    
C12   C91   A    
C133  C151  A    
C163  S14   S    
C60   H25   S    
O99   Zn11  S    
C109  C227  S    
O132  Zn6   S    
H9    O53   S    
O54   S20   D    
C163  C203  A    
O16   S7    D    
O7    S4    S    
O108  Zn9   S    
C108  C226  S    
C220  O86   A    
C63   C98   A    
C221  O87   A    
O89   Zn4   S    
O66   S24   S    
C141  C154  A    
O112  Zn12  S    
C28   C40   A    
O91   Zn2   S    
O88   Zn2   S    
C139  C152  A    
C96   C214  S    
C30   C38   A    
C120  C133  A    
C162  S13   S    
C23   H73   S    
C112  O121  A    
C66   C72   A    
C123  C145  A    
C121  N3    A    
O13   Zn2   S    
C25   C60   A    
C147  C155  A    
C175  O24   A    
O158  S32   D    
C225  O103  A    
H111  O27   S    
C221  O98   A    
C161  C205  A    
C3    C65   A    
C90   C124  A    
O105  Zn10  S    
C118  C140  A    
C1    C202  S    
C17   C52   A    
O22   S9    D    
C238  H49   S    
C190  C199  A    
C18   C85   A    
O3    S3    D    
C51   C52   A    
C169  C187  A    
O65   S24   D    
C44   H21   S    
C196  C197  S    
C73   C108  A    
C129  C142  A    
O143  Zn5   S    
C226  O93   A    
C172  C190  A    
O69   S25   D    
C173  C191  A    
O88   Zn14  S    
C31   C37   A    
O144  S27   S    
C113  C146  A    
O134  S1    S    
O161  S2    D    
O96   Zn15  S    
C165  S15   S    
O164  S3    D    
C157  S8    S    
C183  C196  A    
C189  H87   S    
C197  O75   A    
C94   C96   A    
C181  C194  A    
C129  O128  S    
C29   C233  A    
C73   C234  A    
O59   S21   D    
C87   C103  A    
C227  O94   A    
C184  C198  A    
O93   Zn8   S    
C208  O57   A    
C68   C140  A    
C51   H2    S    
O131  S1    D    
O30   S11   S    
C217  O113  A    
C122  O122  S    
C26   H38   S    
C117  O116  S    
C32   C236  A    
H10   O56   S    
C66   C240  A    
O45   S17   D    
O4    S3    S    
C42   H23   S    
C70   C105  A    
C186  O35   A    
C22   C58   A    
C27   H39   S    
C95   C97   A    
C115  O114  S    
C194  C219  S    
O156  S31   D    
C138  C151  A    
O5    S4    D    
C222  O89   A    
C83   C91   A    
H105  O7    S    
C77   C229  A    
C113  C144  A    
C187  C200  A    
C122  N4    A    
C156  C158  A    
O88   Zn10  S    
O75   Zn14  S    
C110  C228  S    
C5    H54   S    
C35   C137  A    
C118  O117  S    
C136  C153  A    
O138  S23   D    
C239  H50   S    
C187  H85   S    
O77   Zn7   S    
C72   C235  A    
C69   C70   A    
C34   C238  A    
C68   S31   S    
C180  C198  A    
O1    Zn8   S    
O35   Zn11  S    
C30   H33   S    
C146  S7    S    
C71   C106  A    
C36   H30   S    
C32   H31   S    
C48   H13   S    
C31   H34   S    
C29   H37   S    
O1    Zn4   S    
C119  O118  S    
O102  Zn10  S    
C163  C181  A    
O79   Zn8   S    
C16   C51   A    
O58   S21   D    
C61   C96   A    
C67   C103  A    
C45   H18   S    
C180  H78   S    
O63   S22   S    
C23   C59   A    
C181  H79   S    
C57   C139  A    
C112  O2    A    
O147  S28   S    
C32   C36   A    
C41   H22   S    
C165  C204  A    
C1    O154  A    
C120  O119  S    
O90   Zn16  S    
O107  Zn1   S    
H7    O47   S    
H104  O4    S    
O163  S2    S    
C7    C42   A    
C25   H74   S    
C44   C59   A    
H98   O150  S    
C81   C93   A    
O77   Zn3   S    
C228  O102  A    
C169  S19   S    
C49   H17   S    
C64   C99   A    
C195  C208  S    
C115  C137  A    
C61   C77   A    
C24   C57   A    
C205  N8    S    
C17   H66   S    
C56   H36   S    
C16   C87   A    
C46   S29   S    
C207  N2    S    
C115  N1    A    
C78   C111  A    
C166  C205  A    
C176  C193  A    
C161  C179  A    
H12   O63   S    
O149  S29   D    
C149  C158  A    
C28   C232  A    
C162  C180  A    
C123  N5    A    
C102  C220  S    
C24   C136  A    
C36   C239  A    
C100  C218  S    
C131  O130  S    
C167  S17   S    
O137  S12   S    
O34   S14   D    
C86   C106  A    
C8    C95   A    
C3    H52   S    
H97   O147  S    
O47   S17   S    
C43   H20   S    
C88   C104  A    
C33   C34   A    
O110  Zn4   S    
C215  O106  A    
C11   H61   S    
O146  S28   D    
C50   H102  S    
C25   C78   A    
C213  O108  A    
C4    H53   S    
O162  S2    D    
O9    S5    D    
C6    H55   S    
C28   H35   S    
C34   H29   S    
H95   O140  S    
C31   C235  A    
C212  O79   A    
O23   S9    S    
O80   Zn7   S    
C131  N8    A    
O17   S7    S    
C62   C97   A    
O153  S30   S    
O140  S23   S    
C167  C184  A    
C170  C210  A    
O40   S15   S    
H107  O14   S    
C176  S26   S    
O98   Zn9   S    
O159  S32   D    
C185  C199  A    
O151  S30   D    
O12   S6    D    
H11   O60   S    
C101  S3    S    
C175  C199  S    
C145  C154  A    
C19   C54   A    
C233  H43   S    
C234  H44   S    
O44   S17   D    
C161  S11   S    
C121  C134  A    
C137  C150  A    
H101  O160  S    
H4    O37   S    
C228  O95   A    
O42   S16   D    
O19   S8    D    
C26   C42   A    
C125  N6    A    
C69   C238  A    
C85   C88   A    
O145  S28   D    
C75   C110  A    
C191  H89   S    
C231  H41   S    
C218  O109  A    
C173  C209  A    
O36   S14   D    
O133  S1    D    
C7    H56   S    
C189  C202  A    
C135  C147  A    
O29   S11   D    
C35   S28   S    
C191  C200  A    
H108  O17   S    
C127  C149  A    
O43   S16   S    
C237  H48   S    
C53   H91   S    
C63   C75   A    
C219  O68   A    
O141  S27   D    
C76   C111  A    
C107  C225  S    
C67   C239  A    
C18   H67   S    
H106  O10   S    
C75   C232  A    
O99   Zn5   S    
C185  H84   S    
O15   S7    D    
C183  H82   S    
C21   C82   A    
C10   C45   A    
C170  C188  A    
C150  C151  A    
C117  N3    A    
O57   Zn13  S    
C182  C195  A    
O41   S16   D    
C9    C94   A    
C70   C237  A    
C174  C192  A    
O61   S22   D    
C13   C68   A    
C40   H26   S    
C2    C35   A    
C48   C55   A    
O70   S25   S    
O88   Zn6   S    
C11   C47   A    
O99   Zn16  S    
C177  H75   S    
C8    C43   A    
C12   C48   A    
C178  H76   S    
O53   S19   S    
C117  C139  A    
C116  O115  S    
C130  N7    A    
C165  C182  A    
C119  C132  A    
O78   Zn1   S    
C168  S18   S    
C104  C213  S    
C13   S23   S    
C39   H24   S    
O1    Zn12  S    
O60   S21   S    
C159  S9    S    
O48   S18   D    
C69   C104  A    
O74   Zn15  S    
C216  O112  A    
O142  S27   D    
C82   C92   A    
C5    C63   A    
C7    C61   A    
O27   S10   S    
C98   C216  S    
C18   C53   A    
C4    C39   A    
C121  O120  S    
C47   H19   S    
C79   S32   S    
C192  C201  A    
H109  O20   S    
C14   H63   S    
C168  C185  A    
C230  S1    S    
C23   C80   A    
C128  C141  A    
C93   C99   A    
C130  O129  S    
C140  C153  A    
C135  S6    S    
O157  S31   S    
C101  C157  A    
O73   S26   S    
C162  C206  A    
C46   C230  A    
C62   C76   A    
C4    C64   A    
C193  H92   S    
C172  S22   S    
C112  C201  S    
H15   O70   S    
O101  Zn11  S    
C213  O80   A    
C146  C148  A    
C179  C196  A    
C172  C207  A    
C26   C229  A    
O139  S23   D    
C217  O84   A    
C216  O83   A    
C45   C58   A    
C2    C133  A    
C177  C194  A    
C89   C100  A    
O82   Zn16  S    
O81   Zn2   S    
C50   C53   A    
C167  C206  A    
C120  N2    A    
O72   S26   D    
O8    S5    D    
O83   Zn4   S    
C125  C147  A    
C1    O110  A    
O84   Zn3   S    
C126  C148  A    
C86   C87   A    
C37   C240  A    
H112  O30   S    
C10   C93   A    
C105  C223  S    
C193  C202  A    
C17   C86   A    
O26   S10   D    
C22   C81   A    
C14   C89   A    
O152  S30   D    
C174  S25   S    
O38   S15   D    
C113  S4    S    
C166  S16   S    
C78   C95   A    
C134  C152  A    
C168  C207  A    
O1    Zn1   S    
C30   C234  A    
C74   C233  A    
C119  N1    A    
C90   C142  A    
O154  Zn8   S    
C127  N8    A    
C81   C109  A    
O64   S24   D    
C33   H32   S    
C2    S12   S    
H93   O134  S    
C236  H46   S    
C122  C136  A    
C80   C94   A    
C77   C114  A    
C171  S21   S    
O14   S6    S    
C214  O81   A    
C124  C145  A    
C240  H51   S    
O77   Zn13  S    
C16   H65   S    
O103  Zn13  S    
C118  N4    A    
O113  Zn13  S    
C173  S24   S    
C166  C183  A    
O155  S31   D    
C65   C100  A    
C218  O85   A    
C132  C230  A    
C160  C204  A    
C21   C56   A    
O111  Zn15  S    
O87   Zn3   S    
C128  N5    A    
C215  O82   A    
C125  O124  S    
C79   C135  A    
O68   Zn12  S    
O92   Zn7   S    
O39   S15   D    
C176  C211  A    
C188  H86   S    
C6    C62   A    
C175  O143  A    
C55   H69   S    
C212  O107  A    
C190  H88   S    
O150  S29   S    
O24   Zn16  S    
O11   S6    D    
C90   S2    S    
C197  O46   A    
H6    O43   S    
C84   C108  A    
H99   O153  S    
C67   C71   A    
O104  Zn12  S    
C9    H59   S    
C33   C237  A    
C10   H60   S    
O2    Zn7   S    
O62   S22   D    
C126  O125  S    
C160  S10   S    
C8    H57   S    
C220  O111  A    
C20   H70   S    
C97   C215  S    
C5    C40   A    
O49   S18   D    
C21   H71   S    
C64   C74   A    
C186  C198  S    
C22   H72   S    
C148  C156  A    
C232  H42   S    
C206  N7    S    
C149  C157  A    
O106  Zn11  S    
O52   S19   D    
C131  C144  A    
C164  C200  S    
O10   S5    S    
C210  N4    S    
O77   Zn9   S    
O20   S8    S    
C13   C134  A    
C66   C102  A    
O31   S13   D    
C24   S27   S    
O86   Zn5   S    
O33   S13   S    
C126  N7    A    
C92   C98   A    
O28   S11   D    
C79   C141  A    
H110  O23   S    
C226  O104  A    
C209  N1    S    
C82   C110  A    
O95   Zn6   S    
O100  Zn1   S    
C111  C221  S    
C14   C49   A    
C49   C54   A    
C188  C201  A    
H5    O40   S    
C65   C73   A    
C171  C189  A    
C37   H27   S    
C15   C50   A    
O109  Zn14  S    
C38   H28   S    
C192  H90   S    
C129  N6    A    
C106  C224  S    
C99   C217  S    
C74   C109  A    
C6    C41   A    
O136  S12   D    
C214  O105  A    
H14   O66   S    
C142  C155  A    
C179  H77   S    
C46   C138  A    
H8    O50   S    
C186  O74   A    
C182  H81   S    
O46   Zn10  S    
C159  C177  A    
C20   C55   A    
C85   C105  A    
C11   C92   A    
C223  O90   A    
C116  C138  A    
C58   H47   S    
O67   S25   D    
C170  S20   S    
H94   O137  S    
C222  O100  A    
C3    C38   A    
C116  N2    A    
C211  N3    S    
C114  C222  S    
O56   S20   S    
C203  N6    S    
O32   S13   D    
O18   S8    D    
C164  O132  A    
C171  C211  A    
C27   C41   A    
C159  C203  A    
C72   C107  A    
C160  C178  A    
O135  S12   D    
C29   C39   A    
C76   C231  A    
H96   O144  S    
O97   Zn14  S    
C154  C155  A    
O25   S10   D    
O94   Zn5   S    
C71   C236  A    
C152  C153  A    
C130  C143  A    
C43   C60   A    
C27   C231  A    
C47   C56   A    
C80   C114  A    
H100  O157  S    
C84   C89   A    
C91   C102  A    
C144  C158  A    
C19   C84   A    
C219  O78   A    
C54   H58   S    
C9    C44   A    
H16   O73   S    
C174  C210  A    
C19   H68   S    
O99   Zn15  S    
O148  S29   D    
O160  S32   S    
C103  C212  S    
C128  O127  S    
C178  C195  A    
C229  H40   S    
O55   S20   D    
C59   H1    S    
O85   Zn6   S    
O6    S4    D    
C164  O13   A    
C101  C143  A    
C143  C156  A    
O21   S9    D    
C15   H64   S    
C227  O101  A    
C208  O76   A    
C225  O92   A    
C224  O97   A    
C235  H45   S    
C83   C107  A    
O50   S18   S    
C224  O91   A    
O37   S14   S    
C123  O123  S    
O76   Zn9   S    
C12   H62   S    
C57   S30   S    
C52   H80   S    
C20   C83   A    
C204  N5    S    
O71   S26   D    
C169  C209  A    
C15   C88   A    
O51   S19   D    
C127  O126  S    
H3    O33   S    
H103  O163  S    
C223  O96   A    
