data_mof_unit_63224.cif
_audit_creation_date              2012-12-10T18:59:40-0500
_audit_creation_method            fapswitch 2.2
_symmetry_space_group_name_H-M    P1
_symmetry_Int_Tables_number       1
_space_group_crystal_system       triclinic
_cell_length_a                    26.184926
_cell_length_b                    34.561383
_cell_length_c                    34.547359
_cell_angle_alpha                 90.013516
_cell_angle_beta                  89.965744
_cell_angle_gamma                 90.008708
_cell_volume                      31264.9128159

loop_
_atom_site_label
_atom_site_type_symbol
_atom_type_description
_atom_site_fract_x
_atom_site_fract_y
_atom_site_fract_z
_atom_type_partial_charge
C1    C     C_R   0.611437 0.999851 0.249903 0.848164
C2    C     C_R   0.611433 0.999847 0.750120 0.855159
C3    C     C_R   0.388563 0.000089 0.250119 0.853602
C4    C     C_R   0.388568 0.000080 0.749875 0.857053
C5    C     C_R   0.111437 0.499849 0.249901 0.851682
C6    C     C_R   0.111432 0.499850 0.750115 0.856779
C7    C     C_R   0.888562 0.500085 0.250116 0.857018
C8    C     C_R   0.888567 0.500089 0.749863 0.850080
C9    C     C_R   0.111437 0.999852 0.749903 0.848228
C10   C     C_R   0.111433 0.999846 0.250121 0.856174
C11   C     C_R   0.888563 0.000090 0.750120 0.853123
C12   C     C_R   0.888568 0.000079 0.249875 0.857356
C13   C     C_R   0.611435 0.499841 0.749891 0.858154
C14   C     C_R   0.611432 0.499850 0.250116 0.854464
C15   C     C_R   0.388563 0.500088 0.750117 0.855542
C16   C     C_R   0.388567 0.500089 0.249864 0.850749
C17   C     C_R   0.770283 0.667848 0.218419 -0.184839
C18   C     C_R   0.770308 0.667877 0.781529 -0.184865
C19   C     C_R   0.229682 0.667854 0.218482 -0.184314
C20   C     C_R   0.229590 0.667887 0.781477 -0.185186
C21   C     C_R   0.270496 0.167866 0.218528 -0.185285
C22   C     C_R   0.291208 0.167908 0.765984 -0.183619
C23   C     C_R   0.708790 0.167890 0.234051 -0.185308
C24   C     C_R   0.708746 0.167899 0.765903 -0.183985
C25   C     C_R   0.270296 0.667848 0.718424 -0.184328
C26   C     C_R   0.270326 0.667879 0.281520 -0.184736
C27   C     C_R   0.729695 0.667854 0.718480 -0.184372
C28   C     C_R   0.729594 0.667887 0.281478 -0.185062
C29   C     C_R   0.791442 0.167878 0.734298 -0.185927
C30   C     C_R   0.791212 0.167905 0.265990 -0.183288
C31   C     C_R   0.208795 0.167889 0.734032 -0.185858
C32   C     C_R   0.229507 0.167877 0.281476 -0.185772
C33   C     C_R   0.749960 0.647488 0.249967 -0.000625
C34   C     C_R   0.750007 0.647485 0.750004 -0.000355
C35   C     C_R   0.250009 0.647485 0.250001 -0.000090
C36   C     C_R   0.249963 0.647488 0.749968 -0.000633
C37   C     C_R   0.250000 0.147491 0.250001 -0.000423
C38   C     C_R   0.250002 0.147508 0.750009 -0.000906
C39   C     C_R   0.750002 0.147507 0.250016 -0.001064
C40   C     C_R   0.750059 0.147503 0.750061 -0.001538
C41   C     C_R   0.749890 0.728647 0.249899 0.111028
C42   C     C_R   0.749983 0.728648 0.750005 0.110737
C43   C     C_R   0.249988 0.728648 0.249998 0.110551
C44   C     C_R   0.249896 0.728648 0.749901 0.111047
C45   C     C_R   0.250004 0.228650 0.250002 0.111571
C46   C     C_R   0.249999 0.228681 0.750001 0.112232
C47   C     C_R   0.750000 0.228679 0.250026 0.112767
C48   C     C_R   0.750180 0.228668 0.750189 0.112129
C49   C     C_2   0.528065 0.522804 0.271867 -0.161458
C50   C     C_2   0.528106 0.522747 0.728096 -0.161144
C51   C     C_2   0.471902 0.521841 0.272817 -0.161479
C52   C     C_2   0.471942 0.521810 0.727144 -0.161278
C53   C     C_2   0.028068 0.022773 0.271902 -0.158208
C54   C     C_2   0.028108 0.022788 0.728148 -0.160991
C55   C     C_2   0.971903 0.021820 0.272844 -0.161404
C56   C     C_2   0.971944 0.021863 0.727200 -0.162541
C57   C     C_2   0.028065 0.522812 0.771858 -0.160895
C58   C     C_2   0.028107 0.522744 0.228102 -0.159599
C59   C     C_2   0.971902 0.521851 0.772806 -0.160090
C60   C     C_2   0.971943 0.521818 0.227158 -0.159788
C61   C     C_2   0.528068 0.022787 0.771889 -0.159817
C62   C     C_2   0.528108 0.022778 0.228137 -0.161075
C63   C     C_2   0.471904 0.021832 0.772833 -0.161768
C64   C     C_2   0.471944 0.021850 0.227188 -0.161397
C65   C     C_2   0.556102 0.498306 0.250529 -0.290155
C66   C     C_2   0.556104 0.498296 0.749490 -0.290587
C67   C     C_2   0.443897 0.500507 0.248303 -0.291286
C68   C     C_2   0.443891 0.500487 0.751645 -0.289549
C69   C     C_2   0.056105 0.998296 0.250539 -0.289624
C70   C     C_2   0.056107 0.998332 0.749534 -0.289817
C71   C     C_2   0.943899 0.000471 0.248343 -0.290878
C72   C     C_2   0.943890 0.000488 0.751653 -0.290931
C73   C     C_2   0.056102 0.498308 0.750525 -0.288532
C74   C     C_2   0.056107 0.498323 0.249529 -0.288968
C75   C     C_2   0.943897 0.500508 0.748301 -0.289152
C76   C     C_2   0.943890 0.500475 0.251640 -0.287634
C77   C     C_2   0.556105 0.998299 0.750538 -0.289283
C78   C     C_2   0.556107 0.998328 0.249532 -0.290122
C79   C     C_2   0.443900 0.000474 0.748340 -0.291118
C80   C     C_2   0.443890 0.000485 0.251651 -0.291311
C81   C     C_R   0.705379 0.991500 0.459607 -0.140411
C82   C     C_R   0.739073 0.966053 0.540444 -0.140018
C83   C     C_R   0.231007 0.966237 0.457672 -0.141095
C84   C     C_R   0.262315 0.965302 0.540792 -0.142057
C85   C     C_R   0.205452 0.491379 0.459620 -0.137999
C86   C     C_R   0.239234 0.465966 0.540466 -0.140114
C87   C     C_R   0.760710 0.465955 0.459512 -0.140367
C88   C     C_R   0.794534 0.491341 0.540373 -0.138638
C89   C     C_R   0.205372 0.991507 0.959607 -0.140168
C90   C     C_R   0.239075 0.966062 0.040442 -0.140118
C91   C     C_R   0.730976 0.966240 0.957671 -0.140980
C92   C     C_R   0.762284 0.965290 0.040794 -0.141862
C93   C     C_R   0.737661 0.465254 0.959170 -0.142668
C94   C     C_R   0.768778 0.466097 0.042328 -0.141362
C95   C     C_R   0.260717 0.465961 0.959514 -0.140451
C96   C     C_R   0.294544 0.491360 0.040374 -0.140363
C97   C     C_R   0.702654 0.992512 0.419113 -0.023533
C98   C     C_R   0.740362 0.964031 0.580942 -0.022632
C99   C     C_R   0.231609 0.965488 0.417122 -0.023847
C100  C     C_R   0.260905 0.963721 0.581281 -0.021971
C101  C     C_R   0.202701 0.492422 0.419127 -0.026220
C102  C     C_R   0.240508 0.463970 0.580967 -0.018584
C103  C     C_R   0.759428 0.463963 0.419010 -0.018552
C104  C     C_R   0.797289 0.492381 0.580867 -0.026320
C105  C     C_R   0.202649 0.992514 0.919112 -0.023672
C106  C     C_R   0.240367 0.964038 0.080940 -0.022613
C107  C     C_R   0.731578 0.965494 0.917120 -0.023743
C108  C     C_R   0.760877 0.963713 0.081283 -0.021945
C109  C     C_R   0.739078 0.463687 0.918680 -0.018149
C110  C     C_R   0.768138 0.465362 0.082879 -0.021448
C111  C     C_R   0.259433 0.463966 0.919011 -0.019089
C112  C     C_R   0.297297 0.492399 0.080868 -0.023487
C113  C     C_R   0.747299 0.002058 0.397737 -0.093085
C114  C     C_R   0.752822 0.997903 0.602273 -0.093248
C115  C     C_R   0.248127 0.998816 0.397047 -0.064419
C116  C     C_R   0.247513 0.997591 0.602256 -0.093335
C117  C     C_R   0.247316 0.502035 0.397742 -0.092456
C118  C     C_R   0.252852 0.497878 0.602280 -0.092559
C119  C     C_R   0.747127 0.497879 0.397716 -0.092236
C120  C     C_R   0.752689 0.502018 0.602258 -0.092699
C121  C     C_R   0.247295 0.002062 0.897737 -0.093065
C122  C     C_R   0.252816 0.997910 0.102274 -0.092502
C123  C     C_R   0.748127 0.998814 0.897047 -0.065476
C124  C     C_R   0.747510 0.997589 0.102256 -0.093564
C125  C     C_R   0.752551 0.497552 0.897738 -0.093184
C126  C     C_R   0.751881 0.498771 0.102953 -0.065172
C127  C     C_R   0.247129 0.497881 0.897717 -0.092432
C128  C     C_R   0.252690 0.502022 0.102258 -0.093336
C129  C     C_R   0.792075 0.012602 0.417521 -0.176481
C130  C     C_R   0.766676 0.031828 0.582453 -0.177545
C131  C     C_R   0.263090 0.031939 0.417389 -0.179585
C132  C     C_R   0.233280 0.031142 0.582068 -0.177390
C133  C     C_R   0.292082 0.512612 0.417521 -0.178284
C134  C     C_R   0.266619 0.531813 0.582447 -0.178593
C135  C     C_R   0.733405 0.531820 0.417568 -0.178803
C136  C     C_R   0.707934 0.512616 0.582484 -0.178672
C137  C     C_R   0.292066 0.012614 0.917522 -0.176455
C138  C     C_R   0.266652 0.031840 0.082456 -0.178278
C139  C     C_R   0.763125 0.031926 0.917391 -0.177758
C140  C     C_R   0.733300 0.031145 0.082067 -0.176755
C141  C     C_R   0.766906 0.531067 0.917954 -0.178504
C142  C     C_R   0.737174 0.531945 0.082610 -0.179280
C143  C     C_R   0.233407 0.531823 0.917567 -0.178565
C144  C     C_R   0.207933 0.512610 0.082484 -0.177516
C145  C     C_R   0.793525 0.012623 0.457734 -0.170216
C146  C     C_R   0.766750 0.032887 0.542239 -0.170631
C147  C     C_R   0.263170 0.032026 0.457625 -0.155771
C148  C     C_R   0.233108 0.031725 0.541826 -0.168888
C149  C     C_R   0.293554 0.512605 0.457734 -0.172151
C150  C     C_R   0.266712 0.532850 0.542234 -0.169877
C151  C     C_R   0.733319 0.532853 0.457783 -0.170324
C152  C     C_R   0.706461 0.512612 0.542272 -0.172523
C153  C     C_R   0.293513 0.012641 0.957735 -0.170329
C154  C     C_R   0.266724 0.032903 0.042242 -0.170426
C155  C     C_R   0.763203 0.032011 0.957627 -0.155070
C156  C     C_R   0.733128 0.031726 0.041825 -0.168279
C157  C     C_R   0.767099 0.531627 0.958195 -0.168392
C158  C     C_R   0.737099 0.532014 0.042376 -0.155364
C159  C     C_R   0.233323 0.532858 0.957782 -0.170600
C160  C     C_R   0.206461 0.512608 0.042271 -0.170592
C161  C     C_R   0.749097 0.999166 0.144814 0.766438
C162  C     C_R   0.749805 0.999886 0.854948 0.755882
C163  C     C_R   0.250994 0.999180 0.144821 0.765616
C164  C     C_R   0.248933 0.000730 0.855183 0.766433
C165  C     C_R   0.251070 0.500723 0.144817 0.765674
C166  C     C_R   0.248993 0.499177 0.855174 0.765402
C167  C     C_R   0.750200 0.499872 0.145051 0.755759
C168  C     C_R   0.750919 0.499159 0.855185 0.766244
C169  C     C_R   0.249098 0.999166 0.644814 0.766146
C170  C     C_R   0.249805 0.999886 0.354947 0.755055
C171  C     C_R   0.750996 0.999178 0.644821 0.766143
C172  C     C_R   0.748933 0.000730 0.355183 0.766347
C173  C     C_R   0.751069 0.500723 0.644817 0.764281
C174  C     C_R   0.748992 0.499177 0.355174 0.765621
C175  C     C_R   0.251001 0.499174 0.644823 0.765902
C176  C     C_R   0.248934 0.500728 0.355184 0.765283
C177  C     C_R   0.750459 0.001512 0.478841 0.061516
C178  C     C_R   0.752201 0.000213 0.521170 0.061668
C179  C     C_R   0.247303 0.999147 0.478127 0.066261
C180  C     C_R   0.247900 0.998894 0.520851 0.069191
C181  C     C_R   0.250520 0.501429 0.478847 0.062010
C182  C     C_R   0.252270 0.500140 0.521177 0.061100
C183  C     C_R   0.747724 0.500135 0.478820 0.061411
C184  C     C_R   0.749479 0.501417 0.521152 0.061915
C185  C     C_R   0.250447 0.001526 0.978842 0.061483
C186  C     C_R   0.252188 0.000227 0.021171 0.061830
C187  C     C_R   0.747302 0.999141 0.978128 0.065765
C188  C     C_R   0.747895 0.998888 0.020851 0.069038
C189  C     C_R   0.752182 0.498816 0.979144 0.069123
C190  C     C_R   0.752741 0.499067 0.021871 0.065919
C191  C     C_R   0.247730 0.500141 0.978821 0.061441
C192  C     C_R   0.249485 0.501425 0.021152 0.061698
C193  C     C_R   0.750003 0.105126 0.250004 0.785073
C194  C     C_R   0.750006 0.105130 0.750008 0.785843
C195  C     C_R   0.250000 0.105126 0.250001 0.785680
C196  C     C_R   0.250002 0.105127 0.750004 0.784743
C197  C     C_R   0.250004 0.605119 0.250002 0.783176
C198  C     C_R   0.249995 0.605125 0.749996 0.787675
C199  C     C_R   0.749994 0.605125 0.249996 0.786186
C200  C     C_R   0.750004 0.605119 0.750002 0.785251
C201  C     C_R   0.749984 0.894844 0.249983 0.783399
C202  C     C_R   0.749994 0.894851 0.749997 0.779209
C203  C     C_R   0.249994 0.894851 0.249997 0.779178
C204  C     C_R   0.249984 0.894844 0.749983 0.783468
C205  C     C_R   0.250001 0.394844 0.249999 0.789556
C206  C     C_R   0.249995 0.394858 0.749998 0.776251
C207  C     C_R   0.749997 0.394857 0.249999 0.779213
C208  C     C_R   0.750025 0.394848 0.750021 0.783114
C209  C     C_R   0.708375 0.791833 0.265441 -0.173504
C210  C     C_R   0.708496 0.791826 0.734426 -0.168578
C211  C     C_R   0.291483 0.791842 0.265547 -0.171207
C212  C     C_R   0.291415 0.791826 0.734322 -0.170226
C213  C     C_R   0.208390 0.291828 0.265414 -0.172769
C214  C     C_R   0.230429 0.291851 0.718194 -0.170572
C215  C     C_R   0.769572 0.291875 0.281819 -0.170263
C216  C     C_R   0.770102 0.291820 0.718470 -0.174213
C217  C     C_R   0.208375 0.791833 0.765438 -0.173164
C218  C     C_R   0.208495 0.791826 0.234430 -0.168371
C219  C     C_R   0.791472 0.791841 0.765563 -0.171122
C220  C     C_R   0.791408 0.791825 0.234316 -0.170022
C221  C     C_R   0.730276 0.291874 0.781864 -0.169511
C222  C     C_R   0.730430 0.291844 0.218215 -0.169075
C223  C     C_R   0.269554 0.291872 0.781804 -0.170183
C224  C     C_R   0.291617 0.291831 0.234586 -0.174009
C225  C     C_R   0.708582 0.832097 0.265726 -0.179289
C226  C     C_R   0.708683 0.832091 0.734161 -0.173238
C227  C     C_R   0.291303 0.832105 0.265804 -0.175329
C228  C     C_R   0.291257 0.832090 0.734086 -0.174613
C229  C     C_R   0.208568 0.332092 0.265671 -0.177668
C230  C     C_R   0.230089 0.332118 0.718320 -0.177751
C231  C     C_R   0.769902 0.332141 0.281685 -0.177850
C232  C     C_R   0.770398 0.332083 0.718557 -0.177364
C233  C     C_R   0.208582 0.832096 0.765723 -0.179256
C234  C     C_R   0.208680 0.832091 0.234166 -0.173201
C235  C     C_R   0.791294 0.832104 0.765817 -0.175334
C236  C     C_R   0.791251 0.832089 0.234081 -0.174626
C237  C     C_R   0.729893 0.332141 0.781688 -0.178887
C238  C     C_R   0.730090 0.332110 0.218336 -0.171826
C239  C     C_R   0.269884 0.332138 0.781677 -0.177703
C240  C     C_R   0.291436 0.332095 0.234326 -0.178555
C241  C     C_R   0.749940 0.852476 0.249932 -0.005415
C242  C     C_R   0.749989 0.852482 0.749990 -0.002494
C243  C     C_R   0.249991 0.852482 0.249988 -0.002499
C244  C     C_R   0.249941 0.852476 0.749933 -0.005430
C245  C     C_R   0.250002 0.352476 0.249998 -0.005345
C246  C     C_R   0.249986 0.352502 0.749998 -0.006593
C247  C     C_R   0.749992 0.352500 0.250006 -0.006243
C248  C     C_R   0.750101 0.352489 0.750088 -0.006967
C249  C     C_R   0.749886 0.771313 0.249878 0.108522
C250  C     C_R   0.749981 0.771316 0.750000 0.108774
C251  C     C_R   0.249987 0.771317 0.249993 0.108838
C252  C     C_R   0.249890 0.771314 0.749880 0.108558
C253  C     C_R   0.250004 0.271315 0.250001 0.109077
C254  C     C_R   0.249995 0.271347 0.749999 0.103926
C255  C     C_R   0.750002 0.271345 0.250020 0.104103
C256  C     C_R   0.750199 0.271333 0.750183 0.105954
C257  C     C_R   0.769900 0.708111 0.218249 -0.173637
C258  C     C_R   0.769946 0.708142 0.781667 -0.172231
C259  C     C_R   0.230021 0.708118 0.218344 -0.174358
C260  C     C_R   0.229905 0.708152 0.781580 -0.174404
C261  C     C_R   0.270155 0.208130 0.218393 -0.174786
C262  C     C_R   0.291380 0.208176 0.765734 -0.174212
C263  C     C_R   0.708615 0.208157 0.234302 -0.174527
C264  C     C_R   0.708630 0.208165 0.765714 -0.174352
C265  C     C_R   0.269914 0.708111 0.718255 -0.173301
C266  C     C_R   0.269966 0.708144 0.281655 -0.172109
C267  C     C_R   0.730032 0.708118 0.718344 -0.174084
C268  C     C_R   0.729908 0.708152 0.281581 -0.174468
C269  C     C_R   0.791680 0.208142 0.734616 -0.174504
C270  C     C_R   0.791384 0.208172 0.265749 -0.172293
C271  C     C_R   0.208620 0.208155 0.734274 -0.174018
C272  C     C_R   0.229852 0.208141 0.281611 -0.175224
H1    H     H_    0.675437 0.776799 0.276977 0.134556
H2    H     H_    0.675586 0.776783 0.722879 0.135986
H3    H     H_    0.324398 0.776811 0.277086 0.134263
H4    H     H_    0.324340 0.776786 0.722774 0.135959
H5    H     H_    0.175390 0.276787 0.276840 0.135557
H6    H     H_    0.215967 0.276797 0.692991 0.139350
H7    H     H_    0.784043 0.276842 0.307021 0.139612
H8    H     H_    0.784853 0.276759 0.693357 0.136253
H9    H     H_    0.175436 0.776798 0.776970 0.134757
H10   H     H_    0.175580 0.776783 0.222889 0.136132
H11   H     H_    0.824382 0.776810 0.777110 0.134377
H12   H     H_    0.824330 0.776785 0.222764 0.136232
H13   H     H_    0.715548 0.276852 0.807002 0.139714
H14   H     H_    0.715963 0.276787 0.193016 0.138590
H15   H     H_    0.284017 0.276837 0.807007 0.139658
H16   H     H_    0.324617 0.276792 0.223160 0.134460
H17   H     H_    0.828609 0.020421 0.472401 0.141800
H18   H     H_    0.776971 0.059473 0.527541 0.142118
H19   H     H_    0.276416 0.057613 0.472668 0.136555
H20   H     H_    0.220976 0.057822 0.527140 0.136379
H21   H     H_    0.328627 0.520437 0.472397 0.140347
H22   H     H_    0.276857 0.559447 0.527524 0.142121
H23   H     H_    0.723210 0.559454 0.472507 0.141612
H24   H     H_    0.671397 0.520463 0.527614 0.140405
H25   H     H_    0.328594 0.020443 0.972404 0.141705
H26   H     H_    0.276932 0.059492 0.027546 0.141800
H27   H     H_    0.776473 0.057590 0.972672 0.137698
H28   H     H_    0.721015 0.057828 0.027138 0.137042
H29   H     H_    0.779333 0.557696 0.972898 0.136429
H30   H     H_    0.724036 0.557647 0.027339 0.137195
H31   H     H_    0.223213 0.559459 0.972506 0.141616
H32   H     H_    0.171395 0.520451 0.027613 0.141843
H33   H     H_    0.676080 0.847268 0.277816 0.162243
H34   H     H_    0.676198 0.847252 0.722069 0.164135
H35   H     H_    0.323799 0.847276 0.277883 0.161606
H36   H     H_    0.323776 0.847254 0.722012 0.164427
H37   H     H_    0.175980 0.347260 0.277632 0.163057
H38   H     H_    0.214950 0.347293 0.693409 0.167738
H39   H     H_    0.785046 0.347336 0.306592 0.167913
H40   H     H_    0.785820 0.347236 0.693719 0.164635
H41   H     H_    0.176076 0.847267 0.777809 0.162301
H42   H     H_    0.176190 0.847253 0.222083 0.164191
H43   H     H_    0.823786 0.847275 0.777902 0.161661
H44   H     H_    0.823769 0.847253 0.222003 0.164512
H45   H     H_    0.714456 0.347344 0.806498 0.167828
H46   H     H_    0.714943 0.347279 0.193426 0.166155
H47   H     H_    0.285021 0.347329 0.806589 0.167616
H48   H     H_    0.324023 0.347265 0.222365 0.162272
H49   H     H_    0.784691 0.723131 0.193131 0.137182
H50   H     H_    0.784712 0.723189 0.806771 0.136822
H51   H     H_    0.215237 0.723144 0.193242 0.136912
H52   H     H_    0.215088 0.723206 0.806674 0.134802
H53   H     H_    0.285082 0.223165 0.193330 0.134860
H54   H     H_    0.324199 0.223230 0.777418 0.134766
H55   H     H_    0.675791 0.223196 0.222625 0.133529
H56   H     H_    0.675719 0.223217 0.777270 0.134828
H57   H     H_    0.284712 0.723131 0.693139 0.136960
H58   H     H_    0.284744 0.723191 0.306755 0.137279
H59   H     H_    0.715259 0.723145 0.693239 0.136831
H60   H     H_    0.715097 0.723206 0.306677 0.134806
H61   H     H_    0.824631 0.223175 0.723097 0.134276
H62   H     H_    0.824207 0.223223 0.277429 0.135547
H63   H     H_    0.175799 0.223192 0.722588 0.134748
H64   H     H_    0.214926 0.223185 0.306674 0.135064
H65   H     H_    0.785805 0.652658 0.193635 0.158561
H66   H     H_    0.785791 0.652713 0.806322 0.157302
H67   H     H_    0.214192 0.652672 0.193694 0.158799
H68   H     H_    0.214085 0.652730 0.806281 0.156605
H69   H     H_    0.286126 0.152690 0.193774 0.156769
H70   H     H_    0.323623 0.152754 0.778190 0.158379
H71   H     H_    0.676371 0.152723 0.221849 0.157598
H72   H     H_    0.676202 0.152741 0.777946 0.158367
H73   H     H_    0.285824 0.652658 0.693642 0.157193
H74   H     H_    0.285822 0.652715 0.306308 0.158838
H75   H     H_    0.714217 0.652673 0.693688 0.158566
H76   H     H_    0.714096 0.652729 0.306285 0.156611
H77   H     H_    0.823944 0.152704 0.722212 0.157734
H78   H     H_    0.823631 0.152748 0.278187 0.158740
H79   H     H_    0.176380 0.152720 0.721827 0.157733
H80   H     H_    0.213876 0.152709 0.306229 0.158040
H81   H     H_    0.546721 0.544317 0.289915 0.176174
H82   H     H_    0.546798 0.544213 0.710009 0.175851
H83   H     H_    0.453216 0.539871 0.294344 0.175471
H84   H     H_    0.453297 0.539850 0.705630 0.176135
H85   H     H_    0.046724 0.044273 0.289965 0.176900
H86   H     H_    0.046802 0.044252 0.710057 0.175698
H87   H     H_    0.953216 0.039875 0.294349 0.175250
H88   H     H_    0.953301 0.039946 0.705721 0.175858
H89   H     H_    0.046721 0.544327 0.789902 0.176686
H90   H     H_    0.046800 0.544180 0.209978 0.176376
H91   H     H_    0.953217 0.539889 0.794327 0.176894
H92   H     H_    0.953299 0.539874 0.205658 0.177407
H93   H     H_    0.546725 0.044295 0.789942 0.175949
H94   H     H_    0.546802 0.044236 0.210040 0.175847
H95   H     H_    0.453217 0.039893 0.794333 0.175076
H96   H     H_    0.453301 0.039923 0.205702 0.176459
H97   H     H_    0.539146 0.475775 0.233043 0.154845
H98   H     H_    0.539127 0.475813 0.767027 0.155108
H99   H     H_    0.460873 0.483039 0.225753 0.156095
H100  H     H_    0.460829 0.482994 0.774167 0.155982
H101  H     H_    0.039155 0.975781 0.233031 0.154306
H102  H     H_    0.039134 0.975864 0.767094 0.154821
H103  H     H_    0.960876 0.982966 0.225823 0.155390
H104  H     H_    0.960822 0.982945 0.774138 0.155618
H105  H     H_    0.039146 0.475776 0.733042 0.156393
H106  H     H_    0.039136 0.475879 0.267119 0.156225
H107  H     H_    0.960873 0.483031 0.725758 0.157489
H108  H     H_    0.960821 0.482953 0.274141 0.157345
H109  H     H_    0.539154 0.975776 0.733040 0.154337
H110  H     H_    0.539135 0.975864 0.267096 0.154801
H111  H     H_    0.460876 0.982965 0.725824 0.155302
H112  H     H_    0.460822 0.982951 0.274142 0.155508
H113  H     H_    0.671844 0.984115 0.476487 0.182866
H114  H     H_    0.729413 0.940614 0.523594 0.182299
H115  H     H_    0.217087 0.941266 0.473405 0.176082
H116  H     H_    0.273855 0.939895 0.524637 0.179450
H117  H     H_    0.171939 0.483948 0.476505 0.184645
H118  H     H_    0.229653 0.440503 0.523627 0.182329
H119  H     H_    0.770259 0.440485 0.476336 0.182116
H120  H     H_    0.828037 0.483892 0.523483 0.184681
H121  H     H_    0.171836 0.984119 0.976486 0.182965
H122  H     H_    0.229425 0.940622 0.023591 0.182279
H123  H     H_    0.717033 0.941276 0.973403 0.176000
H124  H     H_    0.773804 0.939878 0.024640 0.179439
H125  H     H_    0.726024 0.439860 0.975296 0.179393
H126  H     H_    0.782534 0.441067 0.026602 0.176030
H127  H     H_    0.270269 0.440493 0.976339 0.182474
H128  H     H_    0.328051 0.483921 0.023484 0.182933
H129  H     H_    0.826447 0.020231 0.401805 0.161904
H130  H     H_    0.776647 0.057901 0.598141 0.162455
H131  H     H_    0.275682 0.057555 0.402012 0.138595
H132  H     H_    0.222563 0.057208 0.597489 0.162158
H133  H     H_    0.326432 0.520292 0.401802 0.160947
H134  H     H_    0.276502 0.557912 0.598125 0.160946
H135  H     H_    0.723555 0.557925 0.401903 0.160601
H136  H     H_    0.673594 0.520313 0.598207 0.161314
H137  H     H_    0.326439 0.020245 0.901808 0.161854
H138  H     H_    0.276612 0.057915 0.098146 0.160598
H139  H     H_    0.775744 0.057535 0.902016 0.140796
H140  H     H_    0.722602 0.057216 0.097488 0.162506
H141  H     H_    0.777701 0.557125 0.902556 0.160771
H142  H     H_    0.724769 0.557618 0.097985 0.139403
H143  H     H_    0.223555 0.557927 0.901902 0.160597
H144  H     H_    0.173588 0.520297 0.098206 0.162344
O1    O     O_3   0.750000 0.999990 0.250000 -0.479548
O2    O     O_3   0.750000 0.999990 0.750000 -0.481232
O3    O     O_3   0.250000 0.999990 0.250000 -0.481228
O4    O     O_3   0.250000 0.999990 0.750000 -0.479448
O5    O     O_3   0.250000 0.499990 0.250000 -0.479507
O6    O     O_3   0.250000 0.499990 0.750000 -0.480174
O7    O     O_3   0.750000 0.499990 0.250000 -0.481763
O8    O     O_3   0.750000 0.499990 0.750000 -0.479785
O9    O     O_R   0.635430 0.977260 0.272720 -0.646917
O10   O     O_R   0.635430 0.977260 0.727280 -0.637608
O11   O     O_R   0.364570 0.977260 0.272720 -0.639986
O12   O     O_R   0.364570 0.977260 0.727280 -0.637318
O13   O     O_R   0.135430 0.477260 0.272720 -0.645674
O14   O     O_R   0.135430 0.477260 0.727280 -0.634921
O15   O     O_R   0.864570 0.477260 0.272720 -0.634682
O16   O     O_R   0.864570 0.477260 0.727280 -0.644429
O17   O     O_R   0.135430 0.977260 0.772720 -0.646862
O18   O     O_R   0.135430 0.977260 0.227280 -0.637733
O19   O     O_R   0.864570 0.977260 0.772720 -0.639703
O20   O     O_R   0.864570 0.977260 0.227280 -0.637236
O21   O     O_R   0.635430 0.477260 0.772720 -0.635545
O22   O     O_R   0.635430 0.477260 0.227280 -0.638106
O23   O     O_R   0.364570 0.477260 0.772720 -0.636182
O24   O     O_R   0.364570 0.477260 0.227280 -0.646433
O25   O     O_R   0.719960 0.022730 0.163260 -0.635953
O26   O     O_R   0.719960 0.022730 0.836740 -0.634435
O27   O     O_R   0.280040 0.022730 0.163260 -0.638659
O28   O     O_R   0.280040 0.022730 0.836740 -0.636906
O29   O     O_R   0.219960 0.522730 0.163260 -0.638021
O30   O     O_R   0.219960 0.522730 0.836740 -0.638634
O31   O     O_R   0.780040 0.522730 0.163260 -0.636239
O32   O     O_R   0.780040 0.522730 0.836740 -0.637852
O33   O     O_R   0.219960 0.022730 0.663260 -0.635997
O34   O     O_R   0.219960 0.022730 0.336740 -0.636346
O35   O     O_R   0.780040 0.022730 0.663260 -0.637152
O36   O     O_R   0.780040 0.022730 0.336740 -0.636977
O37   O     O_R   0.719960 0.522730 0.663260 -0.638264
O38   O     O_R   0.719960 0.522730 0.336740 -0.639014
O39   O     O_R   0.280040 0.522730 0.663260 -0.639342
O40   O     O_R   0.280040 0.522730 0.336740 -0.638306
O41   O     O_R   0.719950 0.086720 0.227250 -0.646249
O42   O     O_R   0.719950 0.086720 0.772750 -0.645021
O43   O     O_R   0.280050 0.086720 0.227250 -0.645794
O44   O     O_R   0.280050 0.086720 0.772750 -0.645744
O45   O     O_R   0.219950 0.586720 0.227250 -0.646241
O46   O     O_R   0.219950 0.586720 0.772750 -0.645695
O47   O     O_R   0.780050 0.586720 0.227250 -0.644470
O48   O     O_R   0.780050 0.586720 0.772750 -0.645887
O49   O     O_R   0.219950 0.086720 0.727250 -0.646400
O50   O     O_R   0.219950 0.086720 0.272750 -0.644965
O51   O     O_R   0.780050 0.086720 0.727250 -0.645854
O52   O     O_R   0.780050 0.086720 0.272750 -0.645728
O53   O     O_R   0.719950 0.586720 0.727250 -0.645758
O54   O     O_R   0.719950 0.586720 0.272750 -0.646008
O55   O     O_R   0.280050 0.586720 0.727250 -0.645259
O56   O     O_R   0.280050 0.586720 0.272750 -0.646205
O57   O     O_R   0.719970 0.913260 0.272730 -0.639106
O58   O     O_R   0.719970 0.913260 0.727270 -0.648382
O59   O     O_R   0.280030 0.913260 0.272730 -0.644374
O60   O     O_R   0.280030 0.913260 0.727270 -0.648169
O61   O     O_R   0.219970 0.413260 0.272730 -0.639724
O62   O     O_R   0.219970 0.413260 0.727270 -0.647189
O63   O     O_R   0.780030 0.413260 0.272730 -0.646716
O64   O     O_R   0.780030 0.413260 0.727270 -0.638905
O65   O     O_R   0.219970 0.913260 0.772730 -0.639097
O66   O     O_R   0.219970 0.913260 0.227270 -0.648389
O67   O     O_R   0.780030 0.913260 0.772730 -0.644379
O68   O     O_R   0.780030 0.913260 0.227270 -0.648200
O69   O     O_R   0.719970 0.413260 0.772730 -0.648108
O70   O     O_R   0.719970 0.413260 0.227270 -0.645779
O71   O     O_R   0.280030 0.413260 0.772730 -0.647112
O72   O     O_R   0.280030 0.413260 0.227270 -0.639650
O73   O     O_R   0.780040 0.977250 0.163260 -0.651971
O74   O     O_R   0.780040 0.977250 0.836740 -0.638647
O75   O     O_R   0.219960 0.977250 0.163260 -0.650265
O76   O     O_R   0.219960 0.977250 0.836740 -0.650974
O77   O     O_R   0.280040 0.477250 0.163260 -0.651233
O78   O     O_R   0.280040 0.477250 0.836740 -0.651169
O79   O     O_R   0.719960 0.477250 0.163260 -0.639917
O80   O     O_R   0.719960 0.477250 0.836740 -0.652073
O81   O     O_R   0.280040 0.977250 0.663260 -0.652107
O82   O     O_R   0.280040 0.977250 0.336740 -0.638445
O83   O     O_R   0.719960 0.977250 0.663260 -0.650526
O84   O     O_R   0.719960 0.977250 0.336740 -0.650931
O85   O     O_R   0.780040 0.477250 0.663260 -0.652964
O86   O     O_R   0.780040 0.477250 0.336740 -0.650190
O87   O     O_R   0.219960 0.477250 0.663260 -0.649827
O88   O     O_R   0.219960 0.477250 0.336740 -0.651231
O89   O     O_R   0.635420 0.022730 0.227240 -0.643441
O90   O     O_R   0.635420 0.022730 0.772760 -0.643764
O91   O     O_R   0.364580 0.022730 0.227240 -0.642801
O92   O     O_R   0.364580 0.022730 0.772760 -0.644076
O93   O     O_R   0.135420 0.522730 0.227240 -0.641669
O94   O     O_R   0.135420 0.522730 0.772760 -0.643405
O95   O     O_R   0.864580 0.522730 0.227240 -0.642561
O96   O     O_R   0.864580 0.522730 0.772760 -0.642186
O97   O     O_R   0.135420 0.022730 0.727240 -0.643393
O98   O     O_R   0.135420 0.022730 0.272760 -0.642154
O99   O     O_R   0.864580 0.022730 0.727240 -0.644326
O100  O     O_R   0.864580 0.022730 0.272760 -0.643927
O101  O     O_R   0.635420 0.522730 0.727240 -0.643056
O102  O     O_R   0.635420 0.522730 0.272760 -0.643388
O103  O     O_R   0.364580 0.522730 0.727240 -0.643252
O104  O     O_R   0.364580 0.522730 0.272760 -0.641908
Zn1   Zn    Zn3+2 0.792920 0.967500 0.217510 0.978326
Zn2   Zn    Zn3+2 0.792920 0.967500 0.782490 0.975209
Zn3   Zn    Zn3+2 0.207080 0.967500 0.217510 0.974528
Zn4   Zn    Zn3+2 0.207080 0.967500 0.782490 0.973496
Zn5   Zn    Zn3+2 0.292920 0.467500 0.217510 0.977133
Zn6   Zn    Zn3+2 0.292920 0.467500 0.782490 0.974588
Zn7   Zn    Zn3+2 0.707080 0.467500 0.217510 0.974841
Zn8   Zn    Zn3+2 0.707080 0.467500 0.782490 0.979020
Zn9   Zn    Zn3+2 0.292920 0.967500 0.717510 0.978039
Zn10  Zn    Zn3+2 0.292920 0.967500 0.282490 0.975014
Zn11  Zn    Zn3+2 0.707080 0.967500 0.717510 0.974308
Zn12  Zn    Zn3+2 0.707080 0.967500 0.282490 0.973343
Zn13  Zn    Zn3+2 0.792920 0.467500 0.717510 0.973992
Zn14  Zn    Zn3+2 0.792920 0.467500 0.282490 0.977398
Zn15  Zn    Zn3+2 0.207080 0.467500 0.717510 0.976804
Zn16  Zn    Zn3+2 0.207080 0.467500 0.282490 0.978240
Zn17  Zn    Zn3+2 0.707080 0.032480 0.217500 0.964827
Zn18  Zn    Zn3+2 0.707080 0.032480 0.782500 0.970115
Zn19  Zn    Zn3+2 0.292920 0.032480 0.217500 0.966348
Zn20  Zn    Zn3+2 0.292920 0.032480 0.782500 0.968585
Zn21  Zn    Zn3+2 0.207080 0.532480 0.217500 0.965304
Zn22  Zn    Zn3+2 0.207080 0.532480 0.782500 0.968500
Zn23  Zn    Zn3+2 0.792920 0.532480 0.217500 0.970806
Zn24  Zn    Zn3+2 0.792920 0.532480 0.782500 0.965406
Zn25  Zn    Zn3+2 0.207080 0.032480 0.717500 0.964590
Zn26  Zn    Zn3+2 0.207080 0.032480 0.282500 0.969967
Zn27  Zn    Zn3+2 0.792920 0.032480 0.717500 0.966349
Zn28  Zn    Zn3+2 0.792920 0.032480 0.282500 0.968892
Zn29  Zn    Zn3+2 0.707080 0.532480 0.717500 0.968065
Zn30  Zn    Zn3+2 0.707080 0.532480 0.282500 0.965973
Zn31  Zn    Zn3+2 0.292920 0.532480 0.717500 0.968213
Zn32  Zn    Zn3+2 0.292920 0.532480 0.282500 0.964349
C273  C     C_2   0.652308 0.985892 0.400382 0.419345
H145  H     H_    0.644646 0.996558 0.371478 0.081231
O105  O     O_2   0.618066 0.969053 0.417502 -0.558672
C274  C     C_2   0.731713 0.925894 0.599730 0.419455
H146  H     H_    0.745715 0.920163 0.628669 0.081289
O106  O     O_2   0.709646 0.899874 0.582624 -0.560571
C275  C     C_2   0.213585 0.930381 0.396283 0.407981
H147  H     H_    0.210662 0.930118 0.364979 0.059149
O107  O     O_2   0.201520 0.901144 0.413910 -0.560289
C276  C     C_2   0.270332 0.925849 0.600409 0.423572
H148  H     H_    0.255399 0.919891 0.629050 0.081086
O108  O     O_2   0.294059 0.900281 0.583894 -0.558484
C277  C     C_2   0.152355 0.485768 0.400410 0.423343
H149  H     H_    0.144648 0.496464 0.371523 0.081052
O109  O     O_2   0.118161 0.468865 0.417522 -0.553027
C278  C     C_2   0.231962 0.425829 0.599785 0.416813
H150  H     H_    0.245913 0.420155 0.628751 0.075545
O110  O     O_2   0.210037 0.399743 0.582675 -0.561989
C279  C     C_2   0.767919 0.425819 0.400170 0.416698
H151  H     H_    0.753965 0.420159 0.371198 0.075335
O111  O     O_2   0.789801 0.399716 0.417265 -0.562062
C280  C     C_2   0.847628 0.485698 0.599578 0.421676
H152  H     H_    0.855359 0.496401 0.628464 0.081115
O112  O     O_2   0.881791 0.468765 0.582460 -0.553423
C281  C     C_2   0.152306 0.985887 0.900380 0.419746
H153  H     H_    0.144643 0.996551 0.871475 0.081270
O113  O     O_2   0.118067 0.969043 0.917499 -0.558437
C282  C     C_2   0.231734 0.925897 0.099726 0.419379
H154  H     H_    0.245736 0.920168 0.128666 0.081223
O114  O     O_2   0.209681 0.899872 0.082617 -0.560502
C283  C     C_2   0.713524 0.930397 0.896279 0.407916
H155  H     H_    0.710612 0.930135 0.864974 0.059047
O115  O     O_2   0.701424 0.901167 0.913904 -0.560673
C284  C     C_2   0.770280 0.925838 0.100415 0.423480
H156  H     H_    0.755355 0.919892 0.129061 0.080940
O116  O     O_2   0.793978 0.900257 0.083897 -0.558479
C285  C     C_2   0.729566 0.425828 0.899516 0.419944
H157  H     H_    0.744505 0.419857 0.870876 0.076147
O117  O     O_2   0.705762 0.400285 0.916001 -0.561709
C286  C     C_2   0.785864 0.430178 0.103716 0.402541
H158  H     H_    0.788826 0.429920 0.135018 0.057889
O118  O     O_2   0.797630 0.400865 0.086089 -0.562721
C287  C     C_2   0.267922 0.425822 0.900173 0.415839
H159  H     H_    0.253969 0.420161 0.871202 0.076592
O119  O     O_2   0.289804 0.399719 0.917270 -0.563614
C288  C     C_2   0.347638 0.485730 0.099581 0.419366
H160  H     H_    0.355357 0.496428 0.128471 0.080580
O120  O     O_2   0.381814 0.468814 0.082461 -0.558452

loop_
_geom_bond_atom_site_label_1
_geom_bond_atom_site_label_2
_ccdc_geom_bond_type
C29   H77   S    
O100  Zn28  S    
O29   Zn21  S    
C130  C146  A    
C273  H145  S    
O2    Zn18  S    
C213  C253  A    
O31   Zn23  S    
C117  C133  A    
C72   H104  S    
C213  C229  A    
C147  H19   S    
C285  H157  S    
C107  C283  S    
C24   H72   S    
C175  O39   A    
C2    O10   A    
C151  H23   S    
C152  H24   S    
C70   H102  S    
C205  C245  S    
C20   H68   S    
O35   Zn27  S    
C263  H55   S    
O1    Zn17  S    
C57   C59   S    
C33   C199  S    
C58   C60   S    
C22   C38   A    
C93   H125  S    
C278  H150  S    
O4    Zn20  S    
C173  O85   A    
C5    C74   S    
C84   C180  A    
O51   Zn27  S    
C230  H38   S    
C62   C64   S    
C4    O12   A    
C81   C97   A    
C171  O83   A    
C5    O13   A    
O8    Zn24  S    
C237  H45   S    
C282  H154  S    
C56   C72   D    
C100  C116  A    
C238  C247  A    
C50   C52   S    
C207  O70   A    
C217  C252  A    
C144  C160  A    
C25   H73   S    
O52   Zn28  S    
O13   Zn16  S    
O53   Zn29  S    
C138  C154  A    
C212  H4    S    
C221  C256  A    
C53   C69   D    
C82   C98   A    
C108  C124  A    
C136  C152  A    
C274  O106  D    
O8    Zn13  S    
C17   H65   S    
C69   H101  S    
C269  H61   S    
C264  H56   S    
C191  C192  S    
C150  H22   S    
C91   C107  A    
C125  C168  S    
C163  O75   A    
C9    C70   S    
C234  H42   S    
C43   C266  A    
O2    Zn27  S    
C217  C233  A    
O27   Zn19  S    
C288  H160  S    
C12   O100  A    
C181  C182  S    
O83   Zn11  S    
C60   C76   D    
C221  C237  A    
C16   O104  A    
C183  C184  S    
C94   C190  A    
C280  H152  S    
C54   C70   D    
C23   C263  A    
C61   H93   S    
C82   C178  A    
C276  H148  S    
C137  C153  A    
C168  O80   A    
C127  C143  A    
C143  C159  A    
C128  C144  A    
C172  O84   A    
C204  O60   A    
C75   H107  S    
C141  C157  A    
C12   C71   S    
O3    Zn19  S    
C28   C33   A    
C2    O90   A    
C34   C200  S    
O5    Zn32  S    
C240  C245  A    
C196  O44   A    
C194  O42   A    
O6    Zn15  S    
C103  C279  S    
C6    C73   S    
C163  O27   A    
C124  C161  S    
C153  H25   S    
C67   H99   S    
C110  C286  S    
C206  C246  S    
O46   Zn22  S    
C231  C247  A    
C36   C198  S    
C207  C247  S    
C157  H29   S    
C44   C265  A    
C226  H34   S    
O85   Zn13  S    
C114  C130  A    
C13   O21   A    
C29   C269  A    
O80   Zn8   S    
C100  C276  S    
C222  H14   S    
C223  C239  A    
C19   C259  A    
C47   C270  A    
C15   C68   S    
C22   C262  A    
C175  O87   A    
C238  H46   S    
C270  H62   S    
C51   H83   S    
C21   H69   S    
O88   Zn16  S    
C98   C114  A    
C25   C36   A    
C132  H132  S    
C10   C69   S    
C147  C179  A    
C26   C35   A    
C133  H133  S    
C56   H88   S    
C195  O50   A    
C170  O34   A    
C193  O52   A    
C155  C187  A    
O50   Zn26  S    
C158  H30   S    
C55   C71   D    
C200  O48   A    
C166  O30   A    
C26   C266  A    
O48   Zn24  S    
C92   H124  S    
C207  O63   A    
O57   Zn12  S    
C105  C281  S    
C112  C288  S    
C199  O47   A    
C200  O53   A    
C9    O17   A    
C28   H76   S    
C277  H149  S    
C154  C186  A    
O6    Zn6   S    
C284  O116  D    
C239  C246  A    
C91   H123  S    
C196  O49   A    
C37   C195  S    
C74   H106  S    
C176  O40   A    
C89   H121  S    
O8    Zn8   S    
C119  C174  S    
O47   Zn23  S    
O69   Zn8   S    
C111  C287  S    
C88   C184  A    
C130  H130  S    
O70   Zn7   S    
C202  C242  S    
O95   Zn23  S    
C161  O25   A    
C146  C178  A    
C61   C63   S    
C121  C137  A    
C19   C35   A    
O26   Zn18  S    
C136  H136  S    
C217  H9    S    
C54   H86   S    
O55   Zn31  S    
C61   C77   D    
C219  C250  A    
C280  O112  D    
O102  Zn30  S    
C131  C147  A    
O99   Zn27  S    
C118  C134  A    
O66   Zn3   S    
O21   Zn8   S    
C104  C280  S    
O23   Zn6   S    
C109  C285  S    
C210  C226  A    
C3    O11   A    
O9    Zn12  S    
C265  H57   S    
C115  C170  S    
C31   H79   S    
C1    O9    A    
C88   C104  A    
C236  H44   S    
C113  C172  S    
C125  C141  A    
C13   C66   S    
C22   H70   S    
O75   Zn3   S    
C114  C171  S    
O37   Zn29  S    
C18   C258  A    
C162  O74   A    
C219  C235  A    
O6    Zn22  S    
O17   Zn4   S    
C169  O81   A    
C19   H67   S    
C205  O72   A    
C51   C67   D    
C281  O113  D    
C52   C68   D    
O73   Zn1   S    
O44   Zn20  S    
C203  O66   A    
O45   Zn21  S    
C232  C248  A    
C212  C228  A    
C236  C241  A    
C201  O68   A    
C57   H89   S    
C208  C248  S    
C95   C111  A    
O1    Zn12  S    
C43   C251  S    
C198  O46   A    
C199  O54   A    
C50   C66   D    
C45   C261  A    
C287  H159  S    
C116  C132  A    
C139  C155  A    
C106  C122  A    
C215  C255  A    
C97   C273  S    
C17   C33   A    
C16   C67   S    
O91   Zn19  S    
C32   C37   A    
C41   C257  A    
C224  C240  A    
C88   H120  S    
C45   C253  S    
C110  C126  A    
C128  C165  S    
C26   H74   S    
C17   C257  A    
C134  H134  S    
C55   H87   S    
C6    O94   A    
O76   Zn4   S    
C109  C125  A    
C91   C187  A    
C85   C181  A    
C14   O102  A    
C194  O51   A    
C89   C185  A    
C62   C78   D    
C259  H51   S    
C286  H158  S    
C230  C246  A    
C48   C269  A    
O77   Zn5   S    
C92   C188  A    
O67   Zn2   S    
C151  C183  A    
C7    C76   S    
C145  C177  A    
C93   C189  A    
C82   H114  S    
O104  Zn32  S    
C83   C179  A    
C138  H138  S    
C268  H60   S    
C81   C177  A    
C42   C258  A    
C23   H71   S    
C266  H58   S    
C202  O58   A    
C29   C40   A    
C210  H2    S    
C14   C65   S    
C278  O110  D    
C30   C39   A    
O68   Zn1   S    
O43   Zn19  S    
C27   C267  A    
C154  H26   S    
C282  O114  D    
C89   C105  A    
O84   Zn12  S    
O61   Zn16  S    
C83   C99   A    
C58   H90   S    
O62   Zn15  S    
O25   Zn17  S    
C210  C250  A    
C93   C109  A    
O3    Zn10  S    
C86   C102  A    
C45   C272  A    
O28   Zn20  S    
C227  H35   S    
O101  Zn29  S    
C214  C254  A    
O40   Zn32  S    
C218  C251  A    
C30   C270  A    
C107  C123  A    
C102  C278  S    
O32   Zn24  S    
O20   Zn1   S    
C85   C101  A    
C150  C182  A    
C222  C255  A    
C219  H11   S    
C158  C190  A    
C35   C197  S    
C46   C271  A    
C209  C225  A    
C68   H100  S    
O24   Zn5   S    
C141  H141  S    
C32   H80   S    
C142  C158  A    
C87   H119  S    
C99   C115  A    
O4    Zn25  S    
C288  O120  D    
C172  O36   A    
C11   O19   A    
C225  C241  A    
C148  H20   S    
C155  H27   S    
C149  H21   S    
C174  O86   A    
O5    Zn21  S    
O78   Zn6   S    
C161  O73   A    
C106  C282  S    
O7    Zn23  S    
C206  O71   A    
C64   C80   D    
C170  O82   A    
C271  H63   S    
C164  O28   A    
C15   O23   A    
C276  O108  D    
C16   O24   A    
C58   C74   D    
C202  O67   A    
C212  C252  A    
C203  O59   A    
O3    Zn3   S    
C25   C265  A    
O98   Zn26  S    
O7    Zn30  S    
C285  O117  D    
O14   Zn15  S    
C201  O57   A    
C279  H151  S    
C216  C256  A    
O39   Zn31  S    
C220  C249  A    
C149  C181  A    
C1    C78   S    
C273  O105  D    
O49   Zn25  S    
C3    C80   S    
C204  C244  S    
C156  H28   S    
C224  C253  A    
O12   Zn9   S    
O94   Zn22  S    
C213  H5    S    
C137  H137  S    
C159  C191  A    
O1    Zn28  S    
C122  C138  A    
O33   Zn25  S    
C283  O115  D    
C133  C149  A    
C63   C79   D    
C49   C51   S    
C13   O101  A    
O2    Zn2   S    
C119  C135  A    
C7    O15   A    
C272  H64   S    
C84   C100  A    
O34   Zn26  S    
C239  H47   S    
C49   C65   D    
C240  H48   S    
C39   C193  S    
C233  C244  A    
C225  H33   S    
C140  H140  S    
O4    Zn4   S    
C159  H31   S    
C160  H32   S    
C90   C106  A    
O89   Zn17  S    
C231  H39   S    
C287  O119  D    
C3    O91   A    
C126  C167  S    
C31   C271  A    
C1    O89   A    
C32   C272  A    
C195  O43   A    
O5    Zn16  S    
C228  H36   S    
C235  H43   S    
C193  O41   A    
C274  H146  S    
O42   Zn18  S    
C260  H52   S    
C218  H10   S    
C24   C40   A    
C84   H116  S    
O60   Zn9   S    
C11   C72   S    
C124  C140  A    
C28   C268  A    
C10   O98   A    
C27   H75   S    
C144  H144  S    
C90   C186  A    
C129  H129  S    
C31   C38   A    
O79   Zn7   S    
C42   C250  S    
C101  C117  A    
O92   Zn20  S    
C187  C188  S    
C2    C77   S    
C94   C110  A    
C87   C183  A    
C223  C254  A    
C96   C192  A    
C185  C186  S    
O90   Zn18  S    
O82   Zn10  S    
C142  H142  S    
C127  C166  S    
C135  C151  A    
C167  O79   A    
C14   O22   A    
C126  C142  A    
C165  O77   A    
O87   Zn15  S    
C189  C190  S    
C10   O18   A    
C50   H82   S    
O3    Zn26  S    
C226  C242  A    
C18   H66   S    
C77   H109  S    
C173  O37   A    
C179  C180  S    
C76   H108  S    
C21   C37   A    
C4    O92   A    
C171  O35   A    
C177  C178  S    
C85   H117  S    
C86   C182  A    
O103  Zn31  S    
C41   C268  A    
C169  O33   A    
C6    O14   A    
C120  C136  A    
C52   H84   S    
C59   H91   S    
C209  C249  A    
C104  C120  A    
C152  C184  A    
C83   H115  S    
O58   Zn11  S    
C123  C139  A    
C96   H128  S    
C81   H113  S    
O15   Zn14  S    
C139  H139  S    
C286  O118  D    
C43   C259  A    
O97   Zn25  S    
C275  O107  D    
O63   Zn14  S    
C40   C194  S    
C47   C255  S    
C96   C112  A    
O8    Zn29  S    
C197  O56   A    
C113  C129  A    
C211  H3    S    
O7    Zn7   S    
C73   H105  S    
C46   C254  S    
C227  C243  A    
C115  C131  A    
O93   Zn21  S    
C135  H135  S    
C203  C243  S    
O59   Zn10  S    
O81   Zn9   S    
C134  C150  A    
O71   Zn6   S    
C174  O38   A    
C201  C241  S    
O96   Zn24  S    
C156  C188  A    
C233  H41   S    
O86   Zn14  S    
C79   H111  S    
C261  H53   S    
C216  C232  A    
O36   Zn28  S    
C65   H97   S    
C44   C252  S    
C112  C128  A    
O1    Zn1   S    
O56   Zn32  S    
C228  C244  A    
C257  H49   S    
C205  O61   A    
C8    O16   A    
C48   C256  S    
C66   H98   S    
O65   Zn4   S    
C168  O32   A    
C95   C191  A    
C234  C243  A    
C229  H37   S    
C7    O95   A    
C62   H94   S    
O22   Zn7   S    
C44   C260  A    
C30   H78   S    
C215  H7    S    
C216  H8    S    
C206  O62   A    
O10   Zn11  S    
C92   C108  A    
C53   C55   S    
C27   C34   A    
C63   H95   S    
O6    Zn31  S    
C54   C56   S    
C279  O111  D    
C15   O103  A    
C284  H156  S    
C277  O109  D    
C49   H81   S    
C132  C148  A    
O4    Zn9   S    
C101  C277  S    
C218  C234  A    
C4    C79   S    
C220  H12   S    
O41   Zn17  S    
C123  C162  S    
O18   Zn3   S    
C20   C36   A    
C108  C284  S    
C47   C263  A    
C204  O65   A    
O5    Zn5   S    
C121  C164  S    
C48   C264  A    
C8    C75   S    
C122  C163  S    
C237  C248  A    
C221  H13   S    
C131  H131  S    
C235  C242  A    
C95   H127  S    
C9    O97   A    
C164  O76   A    
O2    Zn11  S    
C99   C275  S    
C197  O45   A    
C275  H147  S    
O54   Zn30  S    
C98   C274  S    
C24   C264  A    
O30   Zn22  S    
C105  C121  A    
C176  O88   A    
C198  O55   A    
C94   H126  S    
C143  H143  S    
C18   C34   A    
O7    Zn14  S    
C145  H17   S    
C20   C260  A    
C223  H15   S    
C117  C176  S    
C21   C261  A    
C224  H16   S    
C140  C156  A    
C118  C175  S    
C209  H1    S    
C214  H6    S    
C111  C127  A    
C87   C103  A    
C208  O64   A    
C97   C113  A    
C59   C75   D    
C167  O31   A    
C162  O26   A    
C5    O93   A    
C262  H54   S    
C232  H40   S    
C57   C73   D    
C220  C236  A    
C103  C119  A    
C53   H85   S    
C258  H50   S    
C102  C118  A    
C148  C180  A    
C165  O29   A    
C71   H103  S    
C46   C262  A    
C80   H112  S    
C60   H92   S    
C86   H118  S    
C208  O69   A    
O38   Zn30  S    
C42   C267  A    
C229  C245  A    
C283  H155  S    
O11   Zn10  S    
C267  H59   S    
O16   Zn13  S    
C146  H18   S    
O74   Zn2   S    
C222  C238  A    
C153  C185  A    
C23   C39   A    
O64   Zn13  S    
C90   H122  S    
C8    O96   A    
C116  C169  S    
C129  C145  A    
C38   C196  S    
C157  C189  A    
C64   H96   S    
C160  C192  A    
O19   Zn2   S    
C120  C173  S    
C281  H153  S    
C41   C249  S    
O72   Zn5   S    
C215  C231  A    
C211  C227  A    
C12   O20   A    
C211  C251  A    
C166  O78   A    
C11   O99   A    
C78   H110  S    
C214  C230  A    
