data_mof_unit_63514.cif
_audit_creation_date              2013-03-05T16:10:25-0500
_audit_creation_method            fapswitch 2.2
_symmetry_space_group_name_H-M    P1
_symmetry_Int_Tables_number       1
_space_group_crystal_system       triclinic
_cell_length_a                    30.397637
_cell_length_b                    30.381322
_cell_length_c                    23.674462
_cell_angle_alpha                 90.043034
_cell_angle_beta                  90.000102
_cell_angle_gamma                 89.999984
_cell_volume                      21863.8423954

loop_
_atom_site_label
_atom_site_type_symbol
_atom_site_description
_atom_site_fract_x
_atom_site_fract_y
_atom_site_fract_z
_atom_type_partial_charge
O1    O     O_R   0.564260 0.037220 0.500020 -0.559569
O2    O     O_R   0.962780 0.564260 0.500020 -0.538185
O3    O     O_R   0.435740 0.962780 0.500020 -0.539337
O4    O     O_R   0.037220 0.435740 0.500020 -0.538218
O5    O     O_R   0.435740 0.037220 0.499980 -0.539338
O6    O     O_R   0.037220 0.564260 0.499980 -0.538266
O7    O     O_R   0.564260 0.962780 0.499980 -0.559565
O8    O     O_R   0.962780 0.435740 0.499980 -0.538138
O9    O     O_R   0.064260 0.537220 0.000020 -0.538425
O10   O     O_R   0.462780 0.064260 0.000020 -0.560173
O11   O     O_R   0.935740 0.462780 0.000020 -0.538486
O12   O     O_R   0.537220 0.935740 0.000020 -0.560353
O13   O     O_R   0.935740 0.537220 0.999980 -0.538491
O14   O     O_R   0.537220 0.064260 0.999980 -0.560339
O15   O     O_R   0.064260 0.462780 0.999980 -0.538420
O16   O     O_R   0.462780 0.935740 0.999980 -0.560186
C1    C     C_R   0.584907 0.000000 0.500000 0.866974
C2    C     C_R   0.999996 0.585201 0.500042 0.825562
C3    C     C_R   0.414795 0.000000 0.500000 0.824105
C4    C     C_R   0.999996 0.414797 0.499958 0.825569
C5    C     C_R   0.085205 0.500000 1.000000 0.825762
C6    C     C_R   0.500000 0.084887 0.999995 0.864838
C7    C     C_R   0.914799 0.500000 0.000000 0.825813
C8    C     C_R   0.500000 0.915113 0.000005 0.864863
O17   O     O_R   0.499990 0.037220 0.581420 -0.587382
O18   O     O_R   0.962780 0.499990 0.581420 -0.576756
O19   O     O_R   0.500010 0.962780 0.581420 -0.561468
O20   O     O_R   0.037220 0.500010 0.581420 -0.576767
O21   O     O_R   0.500010 0.037220 0.418580 -0.561471
O22   O     O_R   0.037220 0.499990 0.418580 -0.576911
O23   O     O_R   0.499990 0.962780 0.418580 -0.587380
O24   O     O_R   0.962780 0.500010 0.418580 -0.576611
O25   O     O_R   0.999990 0.537220 0.081420 -0.576535
O26   O     O_R   0.462780 0.999990 0.081420 -0.570892
O27   O     O_R   0.000010 0.462780 0.081420 -0.576614
O28   O     O_R   0.537220 0.000010 0.081420 -0.572072
O29   O     O_R   0.000010 0.537220 0.918580 -0.576628
O30   O     O_R   0.537220 0.999990 0.918580 -0.572063
O31   O     O_R   0.999990 0.462780 0.918580 -0.576520
O32   O     O_R   0.462780 0.000010 0.918580 -0.570900
C9    C     C_R   0.500045 0.000015 0.608150 0.797359
C10   C     C_R   1.000000 0.499998 0.608139 0.787418
C11   C     C_R   0.500045 0.999985 0.391850 0.797357
C12   C     C_R   1.000000 0.500004 0.391861 0.787419
C13   C     C_R   0.999999 0.500014 0.108147 0.787197
C14   C     C_R   0.500004 0.999998 0.108139 0.806208
C15   C     C_R   0.999999 0.499986 0.891852 0.787197
C16   C     C_R   0.500004 0.000002 0.891861 0.806210
Cu1   Cu    Cu3+1 0.500000 0.044070 0.500000 1.037893
Cu2   Cu    Cu3+1 0.955930 0.500000 0.500000 1.037165
Cu3   Cu    Cu3+1 0.500000 0.955930 0.500000 1.037902
Cu4   Cu    Cu3+1 0.044070 0.500000 0.500000 1.036623
Cu5   Cu    Cu3+1 1.000000 0.544070 0.000000 1.037927
Cu6   Cu    Cu3+1 0.455930 0.000000 0.000000 1.041098
Cu7   Cu    Cu3+1 1.000000 0.455930 0.000000 1.037958
Cu8   Cu    Cu3+1 0.544070 0.000000 0.000000 1.039673
C17   C     C_1   0.500105 0.000044 0.669005 -0.167612
C18   C     C_1   1.000000 0.499982 0.668991 -0.163059
C19   C     C_1   0.500105 0.999956 0.330995 -0.167612
C20   C     C_1   0.999999 0.500020 0.331009 -0.163058
C21   C     C_1   0.999998 0.500041 0.169000 -0.163687
C22   C     C_1   0.500032 0.999981 0.168988 -0.170964
C23   C     C_1   0.999998 0.499960 0.831000 -0.163687
C24   C     C_1   0.500032 0.000019 0.831012 -0.170963
C25   C     C_1   0.500121 0.000047 0.720073 0.004707
C26   C     C_1   0.999999 0.499968 0.720059 0.010461
C27   C     C_1   0.500121 0.999953 0.279927 0.004707
C28   C     C_1   0.999999 0.500034 0.279941 0.010461
C29   C     C_1   0.999998 0.500044 0.220067 0.010342
C30   C     C_1   0.500082 0.999965 0.220053 0.000644
C31   C     C_1   0.999998 0.499957 0.779933 0.010342
C32   C     C_1   0.500082 0.000034 0.779947 0.000644
C33   C     C_R   0.702142 0.021344 0.456746 -0.218387
C34   C     C_R   0.961845 0.703382 0.485507 -0.228489
C35   C     C_R   0.296631 0.961873 0.485274 -0.226454
C36   C     C_R   0.038002 0.296586 0.484877 -0.228687
C37   C     C_R   0.296631 0.038128 0.514723 -0.226461
C38   C     C_R   0.037946 0.703407 0.515362 -0.228521
C39   C     C_R   0.702142 0.978657 0.543254 -0.218381
C40   C     C_R   0.961790 0.296612 0.514251 -0.228651
C41   C     C_R   0.203369 0.537865 0.984281 -0.229262
C42   C     C_R   0.478558 0.202054 0.956750 -0.219522
C43   C     C_R   0.796644 0.462224 0.983853 -0.228801
C44   C     C_R   0.521440 0.797874 0.956857 -0.218300
C45   C     C_R   0.796644 0.537776 0.016148 -0.228798
C46   C     C_R   0.521450 0.202126 0.043135 -0.218300
C47   C     C_R   0.203369 0.462135 0.015718 -0.229266
C48   C     C_R   0.478568 0.797946 0.043258 -0.219520
H1    H     H_    0.719893 0.038206 0.423484 0.183538
H2    H     H_    0.932323 0.721203 0.473851 0.179897
H3    H     H_    0.278771 0.932301 0.473824 0.181839
H4    H     H_    0.067557 0.278742 0.473389 0.180031
H5    H     H_    0.278772 0.067699 0.526173 0.181833
H6    H     H_    0.067457 0.721252 0.527039 0.180138
H7    H     H_    0.719894 0.961795 0.576516 0.183539
H8    H     H_    0.932224 0.278791 0.525719 0.179792
H9    H     H_    0.221159 0.567243 0.971949 0.179245
H10   H     H_    0.461606 0.219783 0.923542 0.182644
H11   H     H_    0.778852 0.432918 0.971183 0.179436
H12   H     H_    0.538381 0.780090 0.923655 0.183619
H13   H     H_    0.778853 0.567082 0.028818 0.179439
H14   H     H_    0.538400 0.219910 0.076330 0.183623
H15   H     H_    0.221159 0.432757 0.028050 0.179242
H16   H     H_    0.461624 0.780218 0.076472 0.182642
C49   C     C_R   0.656115 0.021300 0.456308 0.425293
C50   C     C_R   0.961899 0.657438 0.483534 0.432731
C51   C     C_R   0.342561 0.961876 0.483440 0.430670
C52   C     C_R   0.038043 0.342538 0.483214 0.432268
C53   C     C_R   0.342561 0.038124 0.516558 0.430673
C54   C     C_R   0.037979 0.657455 0.517026 0.432261
C55   C     C_R   0.656115 0.978701 0.543693 0.425293
C56   C     C_R   0.961835 0.342555 0.516224 0.432736
C57   C     C_R   0.157430 0.537833 0.982506 0.432985
C58   C     C_R   0.478611 0.156022 0.956326 0.426480
C59   C     C_R   0.842584 0.462269 0.982077 0.433098
C60   C     C_R   0.521388 0.843905 0.956393 0.424825
C61   C     C_R   0.842584 0.537731 0.017924 0.433092
C62   C     C_R   0.521398 0.156095 0.043599 0.424826
C63   C     C_R   0.157430 0.462167 0.017493 0.432990
C64   C     C_R   0.478621 0.843978 0.043683 0.426476
C65   C     C_R   0.633004 0.000000 0.500000 -0.230059
C66   C     C_R   0.999966 0.633851 0.500184 -0.251766
C67   C     C_R   0.366156 0.000000 0.499999 -0.250614
C68   C     C_R   0.999966 0.366144 0.499816 -0.251787
C69   C     C_R   0.133845 0.500000 1.000000 -0.251546
C70   C     C_R   0.500001 0.132961 0.999974 -0.228652
C71   C     C_R   0.866164 0.500000 0.000000 -0.251536
C72   C     C_R   0.500001 0.867039 0.000025 -0.228642
C73   C     C_R   0.725160 0.000001 0.500000 -0.012094
C74   C     C_R   0.999876 0.726302 0.500499 -0.007972
C75   C     C_R   0.273774 0.000000 0.499999 -0.010712
C76   C     C_R   0.999877 0.273692 0.499500 -0.007735
C77   C     C_R   0.226316 0.500000 1.000000 -0.006530
C78   C     C_R   0.500002 0.225106 0.999934 -0.011076
C79   C     C_R   0.773697 0.500000 0.000000 -0.006957
C80   C     C_R   0.500002 0.774895 0.000065 -0.011068
C81   C     C_R   0.796339 0.020589 0.543678 -0.192839
C82   C     C_R   0.971012 0.797403 0.535343 -0.193235
C83   C     C_R   0.202945 0.973968 0.538602 -0.192058
C84   C     C_R   0.028599 0.202881 0.535183 -0.194590
C85   C     C_R   0.202944 0.026033 0.461397 -0.192064
C86   C     C_R   0.028612 0.797111 0.464835 -0.194503
C87   C     C_R   0.796339 0.979413 0.456322 -0.192833
C88   C     C_R   0.971025 0.202589 0.464638 -0.193321
C89   C     C_R   0.297366 0.530489 0.032888 -0.194529
C90   C     C_R   0.480480 0.296298 0.044393 -0.192826
C91   C     C_R   0.702648 0.469489 0.032794 -0.194236
C92   C     C_R   0.519480 0.703740 0.044536 -0.193437
C93   C     C_R   0.702648 0.530511 0.967206 -0.194243
C94   C     C_R   0.519480 0.296260 0.955464 -0.193435
C95   C     C_R   0.297366 0.469511 0.967112 -0.194522
C96   C     C_R   0.480479 0.703702 0.955607 -0.192828
H17   H     H_    0.778222 0.037231 0.576845 0.184333
H18   H     H_    0.948472 0.779369 0.562213 0.189552
H19   H     H_    0.221118 0.953607 0.568063 0.189091
H20   H     H_    0.050940 0.221155 0.562098 0.189315
H21   H     H_    0.221117 0.046395 0.431936 0.189088
H22   H     H_    0.050963 0.778835 0.437937 0.189349
H23   H     H_    0.778221 0.962771 0.423154 0.184335
H24   H     H_    0.948496 0.220621 0.437751 0.189517
H25   H     H_    0.279250 0.554216 0.057965 0.189407
H26   H     H_    0.464656 0.278194 0.078196 0.184006
H27   H     H_    0.720768 0.445744 0.057793 0.189648
H28   H     H_    0.535306 0.721873 0.078346 0.183527
H29   H     H_    0.720768 0.554256 0.942207 0.189645
H30   H     H_    0.535305 0.278127 0.921653 0.183529
H31   H     H_    0.279250 0.445784 0.942034 0.189410
H32   H     H_    0.464655 0.721806 0.921804 0.184003
C97   C     C_R   0.842353 0.022023 0.543432 0.310209
C98   C     C_R   0.970394 0.843386 0.535356 0.298700
C99   C     C_R   0.156986 0.973420 0.539084 0.304993
C100  C     C_R   0.029131 0.156901 0.535942 0.303026
C101  C     C_R   0.156986 0.026582 0.460918 0.304984
C102  C     C_R   0.029141 0.843093 0.464072 0.302997
C103  C     C_R   0.842353 0.977979 0.456567 0.310221
C104  C     C_R   0.970405 0.156608 0.464629 0.298729
C105  C     C_R   0.343344 0.531085 0.033196 0.298783
C106  C     C_R   0.479037 0.342313 0.044219 0.311768
C107  C     C_R   0.656668 0.468898 0.033109 0.298485
C108  C     C_R   0.520911 0.657723 0.044347 0.311968
C109  C     C_R   0.656668 0.531102 0.966891 0.298487
C110  C     C_R   0.520910 0.342277 0.955652 0.311967
C111  C     C_R   0.343344 0.468915 0.966804 0.298780
C112  C     C_R   0.479037 0.657687 0.955781 0.311768
C113  C     C_R   0.866002 0.000001 0.500000 -0.229742
C114  C     C_R   0.999909 0.866634 0.499800 -0.237489
C115  C     C_R   0.133509 0.000001 0.500000 -0.232465
C116  C     C_R   0.999908 0.133361 0.500200 -0.237469
C117  C     C_R   0.366697 0.500000 1.000000 -0.240244
C118  C     C_R   0.499978 0.365968 0.999946 -0.228050
C119  C     C_R   0.633311 0.500000 0.000000 -0.240343
C120  C     C_R   0.499978 0.634032 0.000054 -0.228051
C121  C     C_R   0.773397 0.000001 0.500000 0.020762
C122  C     C_R   0.999900 0.774404 0.500338 0.016106
C123  C     C_R   0.225748 0.000000 0.499999 0.014533
C124  C     C_R   0.999900 0.225589 0.499662 0.016216
C125  C     C_R   0.274471 0.500000 1.000000 0.017066
C126  C     C_R   0.499987 0.273340 0.999929 0.021653
C127  C     C_R   0.725543 0.500000 0.000000 0.016789
C128  C     C_R   0.499987 0.726660 0.000071 0.021661
O33   O     O_R   0.999990 0.935770 0.547120 -0.550507
O34   O     O_R   0.064230 0.999990 0.547120 -0.548229
O35   O     O_R   0.000010 0.064230 0.547120 -0.551210
O36   O     O_R   0.935770 0.000010 0.547120 -0.545730
O37   O     O_R   0.000010 0.935770 0.452880 -0.551210
O38   O     O_R   0.935770 0.999990 0.452880 -0.545726
O39   O     O_R   0.999990 0.064230 0.452880 -0.550503
O40   O     O_R   0.064230 0.000010 0.452880 -0.548233
O41   O     O_R   0.499990 0.435770 0.047120 -0.545328
O42   O     O_R   0.564230 0.499990 0.047120 -0.552743
O43   O     O_R   0.500010 0.564230 0.047120 -0.545485
O44   O     O_R   0.435770 0.500010 0.047120 -0.552744
O45   O     O_R   0.500010 0.435770 0.952880 -0.545485
O46   O     O_R   0.435770 0.499990 0.952880 -0.552742
O47   O     O_R   0.499990 0.564230 0.952880 -0.545329
O48   O     O_R   0.564230 0.500010 0.952880 -0.552745
C129  C     C_R   0.000041 0.914889 0.499946 0.930983
C130  C     C_R   0.085165 0.000000 0.500000 0.937822
C131  C     C_R   0.000041 0.085110 0.500054 0.930957
C132  C     C_R   0.914668 0.000000 0.500000 0.930484
C133  C     C_R   0.499993 0.414656 0.999981 0.933420
C134  C     C_R   0.585091 0.500000 0.000000 0.927855
C135  C     C_R   0.499993 0.585344 0.000018 0.933419
C136  C     C_R   0.414911 0.500000 1.000000 0.927838
Cu9   Cu    Cu3+1 0.000000 0.000000 0.555800 1.195006
Cu10  Cu    Cu3+1 0.000000 0.000000 0.444200 1.195006
Cu11  Cu    Cu3+1 0.500000 0.500000 0.055800 1.195232
Cu12  Cu    Cu3+1 0.500000 0.500000 0.944200 1.195232
O49   O     O_3   0.633780 0.043552 0.414247 -0.552591
C137  C     C_3   0.628755 0.015028 0.367698 -0.272245
H33   H     H_    0.609965 0.032472 0.334358 0.198737
H34   H     H_    0.609707 0.985062 0.379327 0.140847
H35   H     H_    0.661209 0.005679 0.349510 0.169294
O50   O     O_3   0.923955 0.635877 0.467112 -0.543278
C138  C     C_3   0.923489 0.633292 0.407640 -0.236475
H36   H     H_    0.893703 0.614890 0.394396 0.196314
H37   H     H_    0.952627 0.615021 0.391355 0.138875
H38   H     H_    0.921735 0.666590 0.388192 0.157415
O51   O     O_3   0.364098 0.923829 0.467286 -0.544235
C139  C     C_3   0.366765 0.923142 0.407824 -0.231361
H39   H     H_    0.385139 0.893266 0.394786 0.196775
H40   H     H_    0.385090 0.952213 0.391452 0.138592
H41   H     H_    0.333513 0.921358 0.388266 0.159217
O52   O     O_3   0.076099 0.364084 0.467234 -0.543542
C140  C     C_3   0.076916 0.366722 0.407777 -0.236178
H42   H     H_    0.106774 0.385146 0.394891 0.196251
H43   H     H_    0.047870 0.384997 0.391270 0.139059
H44   H     H_    0.078800 0.333442 0.388237 0.157612
O53   O     O_3   0.364098 0.076171 0.532712 -0.544238
C141  C     C_3   0.366763 0.076859 0.592175 -0.231376
H45   H     H_    0.385138 0.106735 0.605212 0.196773
H46   H     H_    0.385087 0.047788 0.608548 0.138596
H47   H     H_    0.333511 0.078645 0.611730 0.159219
O54   O     O_3   0.075967 0.635907 0.533264 -0.543549
C142  C     C_3   0.076492 0.633186 0.592721 -0.236278
H48   H     H_    0.106310 0.614785 0.605813 0.196252
H49   H     H_    0.047388 0.614846 0.608946 0.138917
H50   H     H_    0.078230 0.666441 0.612356 0.157618
O55   O     O_3   0.633780 0.956448 0.585753 -0.552587
C143  C     C_3   0.628756 0.984972 0.632303 -0.272245
H51   H     H_    0.609967 0.967527 0.665642 0.198740
H52   H     H_    0.609709 0.014938 0.620674 0.140844
H53   H     H_    0.661210 0.994320 0.650490 0.169292
O56   O     O_3   0.923823 0.364114 0.532387 -0.543269
C144  C     C_3   0.923065 0.366617 0.591860 -0.236367
H54   H     H_    0.893239 0.385043 0.604899 0.196313
H55   H     H_    0.952146 0.384823 0.608425 0.139014
H56   H     H_    0.921166 0.333294 0.611213 0.157406
O57   O     O_3   0.135867 0.575596 0.965423 -0.543431
C145  C     C_3   0.133045 0.575240 0.905970 -0.236965
H57   H     H_    0.114675 0.604900 0.892213 0.196497
H58   H     H_    0.114646 0.545913 0.890467 0.138504
H59   H     H_    0.166252 0.576637 0.886239 0.157473
O58   O     O_3   0.456283 0.133632 0.914335 -0.552818
C146  C     C_3   0.484681 0.128596 0.867698 -0.278224
H60   H     H_    0.467180 0.109755 0.834418 0.196810
H61   H     H_    0.514677 0.109574 0.879239 0.142410
H62   H     H_    0.493949 0.161063 0.849472 0.168595
O59   O     O_3   0.864150 0.424617 0.964527 -0.543353
C147  C     C_3   0.867130 0.425441 0.905096 -0.237184
H63   H     H_    0.885454 0.395839 0.890967 0.196451
H64   H     H_    0.885656 0.454838 0.890118 0.138305
H65   H     H_    0.833973 0.424299 0.885195 0.157434
O60   O     O_3   0.543716 0.866223 0.914384 -0.553188
C148  C     C_3   0.515309 0.871210 0.867757 -0.269576
H66   H     H_    0.532813 0.889989 0.834459 0.198785
H67   H     H_    0.485329 0.890270 0.879301 0.141448
H68   H     H_    0.506013 0.838723 0.849553 0.169927
O61   O     O_3   0.864150 0.575383 0.035473 -0.543358
C149  C     C_3   0.867131 0.574558 0.094905 -0.237180
H69   H     H_    0.885454 0.604161 0.109034 0.196441
H70   H     H_    0.885656 0.545161 0.109882 0.138308
H71   H     H_    0.833974 0.575700 0.114806 0.157445
O62   O     O_3   0.543736 0.133777 0.085600 -0.553179
C150  C     C_3   0.515339 0.128789 0.132237 -0.269558
H72   H     H_    0.532851 0.110010 0.165528 0.198784
H73   H     H_    0.485358 0.109728 0.120702 0.141432
H74   H     H_    0.506046 0.161276 0.150444 0.169921
O63   O     O_3   0.135867 0.424404 0.034577 -0.543426
C151  C     C_3   0.133047 0.424760 0.094029 -0.236967
H75   H     H_    0.114676 0.395099 0.107786 0.196506
H76   H     H_    0.114648 0.454086 0.109533 0.138501
H77   H     H_    0.166254 0.423362 0.113759 0.157462
O64   O     O_3   0.456303 0.866368 0.085681 -0.552827
C152  C     C_3   0.484712 0.871405 0.132308 -0.278241
H78   H     H_    0.467220 0.890246 0.165594 0.196810
H79   H     H_    0.514705 0.890428 0.120755 0.142425
H80   H     H_    0.493986 0.838939 0.150530 0.168603
N1    N     N_R   0.864206 0.047568 0.586154 0.145999
O65   O     O_R   0.893370 0.076865 0.571845 -0.320455
O66   O     O_R   0.849494 0.047323 0.637772 -0.318663
N2    N     N_R   0.938607 0.865696 0.570126 0.143340
O67   O     O_R   0.915488 0.898004 0.549679 -0.341305
O68   O     O_R   0.927823 0.849453 0.619055 -0.315171
N3    N     N_R   0.135022 0.944850 0.578462 0.144624
O69   O     O_R   0.103371 0.919197 0.561607 -0.326576
O70   O     O_R   0.151175 0.939244 0.628853 -0.318678
N4    N     N_R   0.060066 0.134984 0.572352 0.144111
O71   O     O_R   0.083115 0.101906 0.553881 -0.334197
O72   O     O_R   0.069978 0.152038 0.621163 -0.318656
N5    N     N_R   0.135020 0.055154 0.421543 0.144618
O73   O     O_R   0.103370 0.080807 0.438403 -0.326602
O74   O     O_R   0.151171 0.060764 0.371152 -0.318684
N6    N     N_R   0.060084 0.865009 0.427672 0.144112
O75   O     O_R   0.083119 0.898096 0.446142 -0.334204
O76   O     O_R   0.070015 0.847948 0.378870 -0.318679
N7    N     N_R   0.864205 0.952436 0.413843 0.146003
O77   O     O_R   0.893369 0.923138 0.428149 -0.320425
O78   O     O_R   0.849493 0.952684 0.362225 -0.318659
N8    N     N_R   0.938625 0.134298 0.429848 0.143340
O79   O     O_R   0.915493 0.101997 0.450293 -0.341303
O80   O     O_R   0.927858 0.150534 0.380910 -0.315151
N9    N     N_R   0.365528 0.564170 0.066102 0.142740
O81   O     O_R   0.398671 0.585701 0.045044 -0.344859
O82   O     O_R   0.348682 0.577418 0.113706 -0.316729
N10   N     N_R   0.454576 0.364142 0.087976 0.146202
O83   O     O_R   0.424461 0.392803 0.074848 -0.316420
O84   O     O_R   0.456558 0.349714 0.139654 -0.318176
N11   N     N_R   0.634485 0.435801 0.065935 0.142868
O85   O     O_R   0.601328 0.414293 0.044838 -0.344535
O86   O     O_R   0.651342 0.422524 0.113494 -0.315702
N12   N     N_R   0.545352 0.635930 0.088109 0.146125
O87   O     O_R   0.575479 0.607264 0.074986 -0.316277
O88   O     O_R   0.543344 0.650397 0.139794 -0.319741
N13   N     N_R   0.634485 0.564199 0.934065 0.142868
O89   O     O_R   0.601328 0.585707 0.955162 -0.344533
O90   O     O_R   0.651342 0.577475 0.886506 -0.315709
N14   N     N_R   0.545351 0.364070 0.911891 0.146124
O91   O     O_R   0.575479 0.392736 0.925013 -0.316281
O92   O     O_R   0.543342 0.349602 0.860205 -0.319749
N15   N     N_R   0.365528 0.435830 0.933898 0.142740
O93   O     O_R   0.398670 0.414299 0.954957 -0.344862
O94   O     O_R   0.348683 0.422582 0.886293 -0.316721
N16   N     N_R   0.454575 0.635858 0.912024 0.146203
O95   O     O_R   0.424460 0.607196 0.925152 -0.316416
O96   O     O_R   0.456556 0.650285 0.860347 -0.318169

loop_
_geom_bond_atom_site_label_1
_geom_bond_atom_site_label_2
_geom_bond_distance
_ccdc_geom_bond_type
C142  H49   1.113984 S    
C35   C51   1.396832 A    
C40   C76   1.395302 A    
C104  N8    1.438693 S    
C149  H71   1.113114 S    
O25   C13   1.295838 A    
C95   C125  1.395548 A    
C87   C103  1.399410 A    
C10   C18   1.440651 S    
C108  N12   1.436929 S    
N9    O81   1.300729 A    
O33   Cu9   1.962029 S    
C53   O53   1.382150 S    
C14   C22   1.440561 S    
C7    C71   1.478362 S    
O60   C148  1.409741 S    
C56   C68   1.417188 A    
O18   Cu2   1.938789 S    
C79   C127  1.463771 S    
C141  H46   1.114060 S    
O52   C140  1.410168 S    
C22   C30   1.208940 T    
O58   C146  1.409744 S    
C46   C78   1.399839 A    
O51   C139  1.410205 S    
N6    O75   1.300531 A    
Cu1   Cu3   2.677813 S    
O38   Cu10  1.963225 S    
Cu2   Cu4   2.679251 S    
C83   C99   1.397185 A    
C88   H24   1.083892 S    
C82   H18   1.083890 S    
C141  H47   1.113083 S    
C140  H42   1.109226 S    
C42   H10   1.083673 S    
O5    Cu1   1.964407 S    
C52   C68   1.417075 A    
C111  C117  1.418564 A    
C83   C123  1.393651 A    
C104  C116  1.418877 A    
O34   Cu9   1.963222 S    
C81   C121  1.394945 A    
N8    O79   1.300936 A    
C44   H12   1.083673 S    
O17   C9    1.295845 A    
N12   O87   1.301265 A    
C92   C128  1.394702 A    
C42   C78   1.399826 A    
O49   C137  1.409748 S    
Cu11  Cu12  2.642068 S    
O43   C135  1.286862 A    
C40   C56   1.396559 A    
C64   C72   1.408037 A    
C86   C122  1.394649 A    
C81   H17   1.083932 S    
O37   Cu10  1.962336 S    
C137  H34   1.113675 S    
C2    C66   1.478038 S    
C47   H15   1.083845 S    
C85   H21   1.083969 S    
C23   C31   1.208996 T    
O26   Cu6   1.938789 S    
C145  H58   1.113941 S    
O27   C13   1.295748 A    
O8    Cu2   1.963376 S    
O35   Cu9   1.962333 S    
C151  H75   1.109231 S    
O31   C15   1.295838 A    
C116  C131  1.465945 S    
O32   C16   1.296339 A    
C77   C125  1.463786 S    
C75   C123  1.459874 S    
C120  C135  1.479212 S    
C105  N9    1.439051 S    
N10   O83   1.301268 A    
C102  N6    1.439283 S    
C33   H1    1.083653 S    
C34   H2    1.083902 S    
C148  H67   1.113674 S    
O45   Cu12  1.962336 S    
C103  N7    1.437134 S    
C89   H25   1.083840 S    
C54   O54   1.382106 S    
C95   H31   1.083840 S    
O11   C7    1.297659 A    
N14   O91   1.301265 A    
C84   H20   1.083920 S    
C101  N5    1.438579 S    
O16   Cu6   1.963376 S    
C80   C128  1.465443 S    
C9    C17   1.440703 S    
O4    C4    1.298158 A    
C91   C107  1.397825 A    
C107  C119  1.418617 A    
N5    O73   1.300737 A    
C140  H44   1.113060 S    
C110  C118  1.421761 A    
O6    Cu4   1.963374 S    
O36   Cu9   1.963224 S    
O42   C134  1.283186 A    
N15   O93   1.300728 A    
O9    C5    1.297707 A    
C150  H73   1.113678 S    
O21   Cu1   1.938624 S    
C3    C67   1.478505 S    
O53   C141  1.410207 S    
O48   Cu12  1.963221 S    
O23   C11   1.295845 A    
C38   H6    1.083899 S    
O47   Cu12  1.962026 S    
C58   C70   1.408039 A    
C94   H30   1.083966 S    
N2    O67   1.300934 A    
O13   C7    1.297657 A    
C37   C75   1.394811 A    
C13   C21   1.440640 S    
N4    O72   1.301434 A    
O2    Cu2   1.963373 S    
C19   C27   1.209010 T    
O44   Cu11  1.963224 S    
O56   C144  1.410178 S    
O7    C1    1.293299 A    
O28   C14   1.296117 A    
O26   C14   1.296340 A    
C83   H19   1.083970 S    
O29   C15   1.295748 A    
O30   C16   1.296117 A    
C151  H77   1.113079 S    
C11   C19   1.440703 S    
O29   Cu5   1.938624 S    
C44   C60   1.398535 A    
C50   C66   1.417149 A    
C48   H16   1.083671 S    
O19   Cu3   1.938621 S    
N1    O66   1.301306 A    
C92   H28   1.083965 S    
C43   C59   1.397089 A    
C146  H62   1.113157 S    
C93   H29   1.083842 S    
C147  H63   1.109287 S    
N7    O78   1.301305 A    
C53   C67   1.417388 A    
C39   C55   1.399148 A    
O15   Cu7   1.964404 S    
C90   C126  1.394674 A    
C47   C63   1.397070 A    
C107  N11   1.439055 S    
O39   Cu10  1.962026 S    
C33   C49   1.399145 A    
C99   N3    1.438579 S    
O59   C147  1.410162 S    
C88   C104  1.397091 A    
O61   C149  1.410162 S    
C37   C53   1.396833 A    
C144  H55   1.113950 S    
C45   C79   1.396134 A    
O32   Cu6   1.938792 S    
C138  H38   1.113077 S    
N13   O90   1.301418 A    
C46   H14   1.083673 S    
O18   C10   1.296223 A    
O44   C136  1.283142 A    
O22   Cu4   1.938790 S    
C101  C115  1.420807 A    
C50   O50   1.382120 S    
C61   O61   1.382104 S    
C62   O62   1.382244 S    
O23   Cu3   1.938934 S    
C143  H51   1.109372 S    
C41   C77   1.396087 A    
C88   C124  1.394745 A    
C25   C32   1.417478 S    
O12   C8    1.293354 A    
O1    C1    1.293296 A    
C27   C30   1.417478 S    
O34   C130  1.284296 A    
C38   C74   1.395418 A    
C91   H27   1.083841 S    
C36   C76   1.395395 A    
C97   N1    1.437135 S    
C139  H39   1.109362 S    
C94   C126  1.394699 A    
C4    C68   1.478129 S    
O30   Cu8   1.938790 S    
C92   C108  1.398737 A    
N16   O95   1.301264 A    
C8    C72   1.460561 S    
O55   C143  1.409747 S    
C115  C130  1.469516 S    
C106  N10   1.436941 S    
C113  C132  1.479325 S    
O41   C133  1.286784 A    
C91   C127  1.395511 A    
C146  H60   1.109378 S    
C147  H65   1.113112 S    
C51   C67   1.417388 A    
C117  C136  1.465598 S    
C94   C110  1.398734 A    
O10   C6    1.293369 A    
C90   H26   1.083969 S    
N8    O80   1.301387 A    
O36   C132  1.286816 A    
C86   H22   1.083920 S    
C15   C23   1.440640 S    
O62   C150  1.409740 S    
C106  C118  1.421769 A    
N12   O88   1.301297 A    
C16   C24   1.440561 S    
O2    C2    1.297907 A    
C39   C73   1.399877 A    
C149  H69   1.109287 S    
C85   C123  1.393653 A    
O45   C133  1.286862 A    
O31   Cu7   1.938934 S    
C28   C29   1.417483 S    
C138  H36   1.109260 S    
C112  C120  1.421765 A    
C48   C64   1.398546 A    
N9    O82   1.301415 A    
C142  H50   1.113078 S    
N3    O69   1.300736 A    
C36   C52   1.396662 A    
C43   H11   1.083883 S    
O57   C145  1.410153 S    
O21   C11   1.295807 A    
C93   C109  1.397825 A    
C145  H59   1.113082 S    
O22   C12   1.296226 A    
C143  H53   1.113157 S    
C55   O55   1.382211 S    
C96   H32   1.083968 S    
C151  H76   1.113941 S    
O13   Cu5   1.964407 S    
C82   C122  1.394723 A    
O40   C130  1.284300 A    
C33   C73   1.399877 A    
C48   C80   1.399828 A    
N10   O84   1.301295 A    
C63   O63   1.382079 S    
C150  H72   1.109378 S    
O3    Cu3   1.964407 S    
C98   N2    1.438694 S    
C141  H45   1.109364 S    
C51   O51   1.382153 S    
C139  H41   1.113085 S    
C49   O49   1.382210 S    
O63   C151  1.410152 S    
C39   H7    1.083653 S    
C148  H66   1.109375 S    
O28   Cu8   1.938789 S    
C103  C113  1.421507 A    
N11   O85   1.300715 A    
O37   C129  1.282613 A    
C98   C114  1.418904 A    
N14   O92   1.301300 A    
C46   C62   1.398532 A    
O8    C4    1.297932 A    
C95   C111  1.397749 A    
C61   C71   1.416753 A    
C63   C69   1.416827 A    
C1    C65   1.462017 S    
C140  H43   1.113954 S    
C60   O60   1.382241 S    
O9    Cu5   1.964404 S    
O50   C138  1.410182 S    
C5    C69   1.478538 S    
O11   Cu7   1.964407 S    
C58   O58   1.382243 S    
C111  N15   1.439053 S    
C59   O59   1.382102 S    
C44   C80   1.399839 A    
C100  N4    1.439281 S    
C56   O56   1.382108 S    
C17   C25   1.209010 T    
C74   C122  1.461410 S    
N15   O94   1.301416 A    
C87   H23   1.083932 S    
O5    C3    1.297717 A    
O35   C131  1.282591 A    
O38   C132  1.286812 A    
O7    Cu3   1.964404 S    
N7    O77   1.301301 A    
C54   C66   1.417036 A    
C109  C119  1.418619 A    
O14   C6    1.293355 A    
C12   C20   1.440651 S    
C37   H5    1.083981 S    
N2    O68   1.301389 A    
C137  H33   1.109376 S    
O17   Cu1   1.938932 S    
O33   C129  1.284018 A    
C20   C28   1.208998 T    
C152  H78   1.109375 S    
C41   C57   1.397070 A    
C145  H57   1.109229 S    
O41   Cu11  1.962029 S    
C64   O64   1.382244 S    
O14   Cu8   1.963374 S    
C82   C98   1.397135 A    
O42   Cu11  1.963222 S    
C47   C77   1.396089 A    
C86   C102  1.397205 A    
N1    O65   1.301301 A    
C90   C106  1.398687 A    
O54   C142  1.410173 S    
O4    Cu4   1.963377 S    
C146  H61   1.113679 S    
C147  H64   1.113988 S    
C148  H68   1.113162 S    
C6    C70   1.460567 S    
C57   C69   1.416831 A    
C87   C121  1.394945 A    
C59   C71   1.416755 A    
C137  H35   1.113155 S    
C18   C26   1.208998 T    
C26   C31   1.417483 S    
C55   C65   1.408289 A    
N5    O74   1.301382 A    
C40   H8    1.083882 S    
O46   Cu12  1.963225 S    
C144  H54   1.109224 S    
C81   C97   1.399411 A    
C112  N16   1.436942 S    
O40   Cu10  1.963221 S    
O16   C8    1.293367 A    
O43   Cu11  1.962333 S    
C85   C101  1.397185 A    
C138  H37   1.113980 S    
C96   C128  1.394675 A    
C35   C75   1.394809 A    
C150  H74   1.113160 S    
Cu5   Cu7   2.677813 S    
O25   Cu5   1.938932 S    
O6    C2    1.298132 A    
C114  C129  1.466039 S    
Cu6   Cu8   2.679251 S    
N3    O70   1.301383 A    
C105  C117  1.418567 A    
O27   Cu7   1.938621 S    
C42   C58   1.398546 A    
C143  H52   1.113674 S    
C108  C120  1.421759 A    
C118  C133  1.479212 S    
C57   O57   1.382078 S    
C152  H79   1.113678 S    
C45   C61   1.397092 A    
C89   C125  1.395549 A    
N4    O71   1.300533 A    
C34   C50   1.396578 A    
O19   C9    1.295807 A    
C152  H80   1.113156 S    
O3    C3    1.297719 A    
C52   O52   1.382094 S    
C139  H40   1.114061 S    
Cu9   Cu10  2.642068 S    
O24   C12   1.296220 A    
C49   C65   1.408290 A    
C38   C54   1.396677 A    
C84   C124  1.394669 A    
C119  C134  1.465768 S    
O24   Cu2   1.938792 S    
O12   Cu8   1.963377 S    
O46   C136  1.283142 A    
C36   H4    1.083878 S    
N6    O76   1.301437 A    
O64   C152  1.409747 S    
N11   O86   1.301418 A    
C93   C127  1.395512 A    
N16   O96   1.301293 A    
C34   C74   1.395327 A    
C96   C112  1.398690 A    
C142  H48   1.109256 S    
C45   H13   1.083883 S    
C21   C29   1.208996 T    
C78   C126  1.465437 S    
C43   C79   1.396137 A    
O47   C135  1.286784 A    
C73   C121  1.466294 S    
C110  N14   1.436930 S    
C35   H3    1.083979 S    
O39   C131  1.283996 A    
C99   C115  1.420811 A    
C97   C113  1.421502 A    
C102  C114  1.419744 A    
O20   Cu4   1.938789 S    
C41   H9    1.083844 S    
C100  C116  1.419718 A    
O20   C10   1.296222 A    
C149  H70   1.113990 S    
C24   C32   1.208940 T    
C109  N13   1.439055 S    
O10   Cu6   1.963373 S    
C144  H56   1.113060 S    
O48   C134  1.283186 A    
O15   C5    1.297710 A    
C84   C100  1.397159 A    
C60   C72   1.408030 A    
C89   C105  1.397749 A    
C76   C124  1.461426 S    
C62   C70   1.408034 A    
N13   O89   1.300713 A    
O1    Cu1   1.964404 S    
