data_mof_unit_6963.cif
_audit_creation_date              2012-12-10T17:47:46-0500
_audit_creation_method            fapswitch 2.2
_symmetry_space_group_name_H-M    P1
_symmetry_Int_Tables_number       1
_space_group_crystal_system       triclinic
_cell_length_a                    10.656674
_cell_length_b                    10.734178
_cell_length_c                    9.919717
_cell_angle_alpha                 92.429129
_cell_angle_beta                  90.649425
_cell_angle_gamma                 91.909587
_cell_volume                      1132.98116503

loop_
_atom_site_label
_atom_site_type_symbol
_atom_type_description
_atom_site_fract_x
_atom_site_fract_y
_atom_site_fract_z
_atom_type_partial_charge
C1    C     C_R   0.506663 0.260208 0.497479 0.890986
C2    C     C_R   0.597088 0.070681 0.588175 0.083504
C3    C     C_R   0.518976 0.126882 0.492962 -0.178116
C4    C     C_R   0.258069 0.501038 0.499414 0.874580
C5    C     C_R   0.441548 0.054127 0.402149 0.013425
C6    C     C_R   0.416840 0.930257 0.428405 -0.086620
C7    C     C_R   0.503576 0.871820 0.510321 -0.182255
C8    C     C_R   0.324134 0.349318 0.130761 -0.114798
C9    C     C_R   0.233844 0.277956 0.056947 -0.169553
C10   C     C_R   0.235377 0.275094 0.917440 -0.208362
C11   C     C_R   0.325779 0.345271 0.851345 -0.138909
C12   C     C_3   0.878735 0.499621 0.497887 0.082166
C13   C     C_R   0.413683 0.424605 0.923253 0.181982
C14   C     C_R   0.413262 0.425582 0.067645 0.169821
C15   C     C_R   0.583056 0.571652 0.075834 -0.084261
C16   C     C_R   0.502317 0.739350 0.503164 0.843876
C17   C     C_R   0.582769 0.571861 0.932741 -0.104394
C18   C     C_R   0.742200 0.502141 0.500014 0.800793
C19   C     C_3   0.067316 0.375402 0.559736 -0.154093
C20   C     C_3   0.922366 0.368207 0.537295 -0.230263
C21   C     C_3   0.077074 0.610973 0.586840 -0.460482
C22   C     C_3   0.070280 0.512302 0.352348 -0.351342
C23   C     C_3   0.933681 0.601837 0.599259 -0.379198
C24   C     C_3   0.121680 0.498297 0.498323 0.118130
C25   C     C_2   0.405669 0.097715 0.268079 0.484413
C26   C     C_2   0.859757 0.893665 0.845728 0.372796
C27   C     C_2   0.300704 0.862354 0.373078 0.351743
C28   C     C_2   0.130837 0.254828 0.521149 0.435345
C29   C     C_2   0.874208 0.267046 0.434916 0.425173
C30   C     C_3   0.929076 0.529439 0.355243 -0.355232
C31   C     C_R   0.682764 0.140569 0.674426 -0.178090
C32   C     C_R   0.766242 0.082391 0.757862 -0.234870
C33   C     C_R   0.768964 0.952898 0.756783 0.063979
C34   C     C_R   0.685460 0.882058 0.671585 -0.168041
C35   C     C_R   0.595631 0.940095 0.590051 0.072435
H1    H     H_    0.105445 0.700137 0.540498 0.191420
H2    H     H_    0.894073 0.694045 0.579435 0.186184
H3    H     H_    0.308859 0.094025 0.234168 0.139147
H4    H     H_    0.830808 0.139177 0.821646 0.134977
H5    H     H_    0.927616 0.951121 0.905004 0.085132
H6    H     H_    0.693014 0.782082 0.669654 0.174169
H7    H     H_    0.291175 0.761676 0.371516 0.091179
H8    H     H_    0.650932 0.630265 0.132971 0.159798
H9    H     H_    0.117099 0.174956 0.583504 0.057550
H10   H     H_    0.164886 0.221465 0.108294 0.195302
H11   H     H_    0.167651 0.216400 0.859964 0.135323
H12   H     H_    0.691050 0.240796 0.675500 0.162198
H13   H     H_    0.650184 0.630675 0.882441 0.188577
H14   H     H_    0.783570 0.221772 0.448945 0.057634
H15   H     H_    0.120027 0.612957 0.689778 0.206267
H16   H     H_    0.909035 0.578071 0.704036 0.230214
H17   H     H_    0.884092 0.468574 0.273650 0.219805
H18   H     H_    0.325426 0.338959 0.236646 0.233525
H19   H     H_    0.324462 0.333365 0.744411 0.199808
H20   H     H_    0.880332 0.345589 0.635793 0.081740
H21   H     H_    0.115277 0.594699 0.305435 0.173205
H22   H     H_    0.091367 0.428622 0.287766 0.238847
H23   H     H_    0.084100 0.386340 0.670811 0.089527
H24   H     H_    0.908264 0.627373 0.332219 0.179948
N1    N     N_R   0.498810 0.498800 0.142780 -0.128517
N2    N     N_R   0.498760 0.498720 0.857170 -0.132217
O1    O     O_R   0.500000 0.316780 0.614690 -0.645301
O2    O     O_2   0.859330 0.780706 0.855376 -0.622551
O3    O     O_2   0.209625 0.918766 0.336549 -0.580597
O4    O     O_2   0.194809 0.244424 0.420554 -0.607909
O5    O     O_2   0.931322 0.240886 0.332069 -0.538295
O6    O     O_R   0.499990 0.316750 0.385360 -0.584287
O7    O     O_R   0.314800 0.499990 0.614670 -0.652397
O8    O     O_R   0.314790 0.499970 0.385330 -0.648132
O9    O     O_R   0.500010 0.683250 0.614640 -0.614850
O10   O     O_R   0.500000 0.683220 0.385310 -0.625708
O11   O     O_R   0.685210 0.500030 0.614670 -0.634842
O12   O     O_R   0.685200 0.500010 0.385330 -0.620991
O13   O     O_2   0.486941 0.131870 0.190702 -0.562792
Zn1   Zn    Zn3+2 0.500010 0.500020 0.653130 0.937285
Zn2   Zn    Zn3+2 0.499990 0.499980 0.346870 0.964356

loop_
_geom_bond_atom_site_label_1
_geom_bond_atom_site_label_2
_ccdc_geom_bond_type
C2    C35   A    
C9    H10   S    
C15   N1    A    
C19   C20   S    
C17   H13   S    
C1    O1    A    
C22   H22   S    
C21   H1    S    
C29   H14   S    
N2    Zn1   S    
O7    Zn1   S    
C16   O10   A    
C12   C23   S    
C34   C35   A    
C20   H20   S    
O10   Zn2   S    
C4    C24   S    
O8    Zn2   S    
C25   O13   D    
C32   H4    S    
C21   H15   S    
C17   N2    A    
C31   C32   A    
C8    C9    A    
C10   H11   S    
C9    C10   A    
C31   H12   S    
C13   C14   A    
C34   H6    S    
C7    C35   A    
O11   Zn1   S    
C4    O8    A    
C20   C29   S    
C19   H23   S    
C18   O11   A    
C16   O9    A    
C27   O3    D    
C4    O7    A    
C22   H21   S    
C23   H2    S    
N1    Zn2   S    
C2    C31   A    
C1    C3    S    
C26   O2    D    
C25   H3    S    
C26   C33   S    
C23   H16   S    
C6    C27   S    
C30   H24   S    
C12   C20   S    
C33   C34   A    
C19   C28   S    
C11   H19   S    
C5    C25   S    
C7    C16   S    
C18   O12   A    
C21   C23   S    
O12   Zn2   S    
C22   C24   S    
O1    Zn1   S    
C15   C17   A    
C30   H17   S    
C8    C14   A    
C22   C30   S    
C12   C30   S    
C19   C24   S    
C3    C5    A    
C8    H18   S    
C6    C7    A    
C14   N1    A    
C32   C33   A    
C2    C3    A    
C15   H8    S    
C11   C13   A    
C27   H7    S    
C26   H5    S    
C5    C6    A    
C1    O6    A    
C28   H9    S    
C28   O4    D    
C10   C11   A    
C29   O5    D    
C13   N2    A    
C21   C24   S    
C12   C18   S    
O9    Zn1   S    
O6    Zn2   S    
