data_mof_unit_66362.cif
_audit_creation_date              2012-12-10T17:17:15-0500
_audit_creation_method            fapswitch 2.2
_symmetry_space_group_name_H-M    P1
_symmetry_Int_Tables_number       1
_space_group_crystal_system       triclinic
_cell_length_a                    18.898129
_cell_length_b                    18.703876
_cell_length_c                    18.860394
_cell_angle_alpha                 109.252482
_cell_angle_beta                  109.686099
_cell_angle_gamma                 109.40219
_cell_volume                      5136.46747036

loop_
_atom_site_label
_atom_site_type_symbol
_atom_type_description
_atom_site_fract_x
_atom_site_fract_y
_atom_site_fract_z
_atom_type_partial_charge
C1    C     C_R   0.119054 0.119080 0.500405 0.804511
C2    C     C_R   0.264401 0.087336 0.754694 0.053279
C3    C     C_R   0.191365 0.006125 0.685777 -0.073298
C4    C     C_R   0.182162 0.928492 0.684262 -0.176230
C5    C     C_R   0.243963 0.930219 0.751156 -0.212463
C6    C     C_R   0.315140 0.009700 0.822321 -0.076410
C7    C     C_R   0.188441 0.170490 0.424243 -0.141879
C8    C     C_R   0.251449 0.233459 0.422525 0.393293
C9    C     C_R   0.314468 0.314433 0.500357 -0.225275
C10   C     C_R   0.311586 0.330403 0.578217 0.399557
C11   C     C_R   0.247148 0.265759 0.577076 -0.161370
C12   C     C_R   0.120391 0.001575 0.618613 0.791609
C13   C     C_R   0.185931 0.186230 0.500713 -0.199334
C14   C     C_R   0.749615 0.920295 0.234163 0.318618
C15   C     C_R   0.683327 0.921180 0.171433 0.278327
C16   C     C_R   0.684495 0.000644 0.187217 -0.204459
C17   C     C_R   0.747343 0.078199 0.267503 0.354623
C18   C     C_R   0.809730 0.075386 0.329890 -0.229104
C19   C     C_R   0.811609 0.997753 0.313954 -0.189132
C20   C     C_R   0.821706 0.742994 0.500347 0.282927
C21   C     C_R   0.759018 0.680154 0.504522 0.277476
C22   C     C_R   0.685218 0.685892 0.499171 -0.181614
C23   C     C_R   0.880586 0.880984 0.499060 0.876232
C24   C     C_R   0.675010 0.755297 0.493536 0.063768
C25   C     C_R   0.737693 0.818712 0.491203 0.311833
C26   C     C_R   0.812083 0.813321 0.496692 -0.225905
C27   C     C_R   0.499883 0.880863 0.881127 0.840246
C28   C     C_R   0.381454 0.004161 0.884985 0.840309
C29   C     C_R   0.500882 0.119717 0.119640 0.849109
C30   C     C_R   0.618497 0.000637 0.119559 0.862086
C31   C     C_R   0.499072 0.617931 0.618654 0.774142
C32   C     C_R   0.381369 0.381208 0.500124 0.718718
C33   C     C_R   0.498931 0.380370 0.381887 0.758177
C34   C     C_R   0.880139 0.999104 0.381052 0.854457
C35   C     C_R   0.618674 0.619184 0.500114 0.902774
C36   C     C_R   0.573133 0.831181 0.805544 -0.193977
C37   C     C_R   0.573306 0.766801 0.741621 0.138460
C38   C     C_R   0.497999 0.683932 0.685178 -0.126054
C39   C     C_R   0.422839 0.665800 0.693199 0.380030
C40   C     C_R   0.424914 0.730909 0.758039 -0.143539
C41   C     C_R   0.499349 0.813324 0.813982 -0.141047
C42   C     C_R   0.552872 0.278244 0.215749 0.136397
C43   C     C_R   0.551243 0.341652 0.279242 0.344736
C44   C     C_R   0.501289 0.315320 0.316631 -0.228535
C45   C     C_R   0.279138 0.165240 0.752008 -0.231686
C46   C     C_R   0.454980 0.226316 0.291879 0.380408
C47   C     C_R   0.454632 0.164259 0.226323 -0.198407
C48   C     C_R   0.502836 0.188683 0.187739 -0.199429
C49   C     C_R   0.346690 0.245703 0.822469 -0.114507
C50   C     C_R   0.399525 0.251263 0.898412 0.165450
C51   C     C_R   0.387747 0.174136 0.902343 0.090029
C52   C     C_R   0.324045 0.090528 0.827394 0.082129
Cu1   Cu    Cu3+1 0.999980 0.061790 0.561790 0.994245
Cu2   Cu    Cu3+1 0.000020 0.938210 0.438210 1.038755
Cu3   Cu    Cu3+1 0.438200 0.938230 0.000040 1.009527
Cu4   Cu    Cu3+1 0.561800 0.061850 0.000040 0.989835
Cu5   Cu    Cu3+1 0.438190 0.500100 0.438300 1.006177
Cu6   Cu    Cu3+1 0.561810 0.500080 0.561880 1.035371
H1    H     H_    0.126336 0.866159 0.631282 0.178334
H2    H     H_    0.245145 0.277835 0.636483 0.173744
H3    H     H_    0.857884 0.134944 0.391261 0.204290
H4    H     H_    0.630812 0.895029 0.849164 0.164044
H5    H     H_    0.239215 0.164754 0.694954 0.152402
H6    H     H_    0.367487 0.717010 0.764128 0.180873
H7    H     H_    0.417521 0.096183 0.206983 0.204787
H8    H     H_    0.356416 0.304525 0.818795 0.178204
H9    H     H_    0.236549 0.868654 0.746809 0.164558
H10   H     H_    0.140500 0.108850 0.364847 0.187664
O1    O     O_R   0.090150 0.142360 0.552170 -0.592355
O2    O     O_R   0.552230 0.962090 0.909900 -0.590032
O3    O     O_R   0.357630 0.947820 0.909860 -0.591261
O4    O     O_R   0.462000 0.052220 0.909860 -0.574768
O5    O     O_R   0.447770 0.037990 0.090190 -0.599915
O6    O     O_R   0.552150 0.142390 0.090190 -0.558830
O7    O     O_R   0.538000 0.947860 0.090220 -0.544269
O8    O     O_R   0.642370 0.052260 0.090230 -0.589669
O9    O     O_R   0.447810 0.590260 0.538090 -0.583746
O10   O     O_R   0.552200 0.590240 0.642450 -0.557843
O11   O     O_R   0.357640 0.409920 0.447920 -0.578390
O12   O     O_R   0.090180 0.037990 0.447810 -0.588090
O13   O     O_R   0.462030 0.409900 0.552280 -0.576860
O14   O     O_R   0.447800 0.409940 0.357730 -0.578273
O15   O     O_R   0.552190 0.409920 0.462090 -0.568138
O16   O     O_R   0.537970 0.590270 0.447900 -0.574607
O17   O     O_R   0.642360 0.590260 0.552260 -0.535972
O18   O     O_R   0.090170 0.052200 0.642360 -0.584402
O19   O     O_R   0.090200 0.947840 0.538010 -0.574949
O20   O     O_R   0.909820 0.962010 0.552190 -0.585129
O21   O     O_R   0.909850 0.857640 0.447830 -0.529939
O22   O     O_R   0.909800 0.052160 0.461990 -0.603824
O23   O     O_R   0.909830 0.947800 0.357640 -0.532413
O24   O     O_R   0.447850 0.857690 0.909890 -0.576428
O25   O     O_3   0.755020 0.845386 0.219627 -0.709264
H11   H     H_    0.731692 0.809014 0.156729 0.338674
O26   O     O_3   0.617121 0.846154 0.094303 -0.714667
H12   H     H_    0.605516 0.795513 0.103931 0.341521
O27   O     O_3   0.749418 0.157336 0.288964 -0.695932
H13   H     H_    0.694333 0.148574 0.247408 0.322180
O28   O     O_3   0.893137 0.738013 0.500532 -0.719520
H14   H     H_    0.877071 0.675737 0.471738 0.343743
O29   O     O_3   0.767798 0.612614 0.513370 -0.702507
H15   H     H_    0.830265 0.632758 0.547058 0.341318
N1    N     N_3   0.600828 0.761873 0.491345 -0.548972
H16   H     H_    0.622586 0.821748 0.543915 0.244999
H17   H     H_    0.567448 0.761356 0.434118 0.266200
O30   O     O_3   0.722875 0.883588 0.481950 -0.708161
H18   H     H_    0.754776 0.906843 0.455319 0.330594
N2    N     N_3   0.649196 0.785168 0.732897 -0.555111
H19   H     H_    0.634334 0.785341 0.674323 0.210121
H20   H     H_    0.700303 0.847781 0.782090 0.223812
O31   O     O_3   0.346787 0.586099 0.640876 -0.704809
H21   H     H_    0.353798 0.543381 0.600409 0.322020
N3    N     N_3   0.606380 0.305751 0.180552 -0.545120
H22   H     H_    0.670708 0.346388 0.231239 0.264424
H23   H     H_    0.587988 0.342304 0.154515 0.233848
O32   O     O_3   0.600318 0.428122 0.302949 -0.716520
H24   H     H_    0.597671 0.467836 0.350535 0.340933
O33   O     O_3   0.408999 0.196556 0.329226 -0.695092
H25   H     H_    0.425771 0.245858 0.384064 0.319464
N4    N     N_3   0.464911 0.336277 0.971329 -0.579333
H26   H     H_    0.525421 0.340427 0.988904 0.222672
H27   H     H_    0.453817 0.344347 0.023367 0.226875
N5    N     N_3   0.435522 0.181354 0.983807 -0.586514
H28   H     H_    0.420736 0.214503 0.028138 0.212877
H29   H     H_    0.501475 0.217769 0.005875 0.250953
O34   O     O_3   0.248587 0.211724 0.343660 -0.688738
H30   H     H_    0.299038 0.257556 0.349965 0.341823
O35   O     O_3   0.368604 0.407765 0.656278 -0.701210
H31   H     H_    0.403375 0.453263 0.647651 0.329657

loop_
_geom_bond_atom_site_label_1
_geom_bond_atom_site_label_2
_ccdc_geom_bond_type
Cu3   Cu4   S    
O25   H11   S    
Cu4   O8    S    
C51   N5    S    
Cu5   O11   S    
O26   H12   S    
C5    H9    S    
Cu1   O1    S    
O35   H31   S    
O27   H13   S    
C7    C8    A    
Cu1   Cu2   S    
O32   H24   S    
C32   O13   A    
O34   H30   S    
C50   N4    S    
C36   C37   A    
C15   O26   S    
C5    C6    A    
C10   O35   S    
N5    H29   S    
C29   O5    A    
O30   H18   S    
C16   C30   S    
C15   C16   A    
C11   C13   A    
N2    H19   S    
C46   O33   S    
C18   C19   A    
C23   C26   S    
O33   H25   S    
C3    C12   S    
C9    C32   S    
C7    H10   S    
C34   O23   A    
C6    C28   S    
O28   H14   S    
N4    H27   S    
C8    C9    A    
Cu4   O4    S    
C23   O21   A    
Cu1   O18   S    
C33   O14   A    
C14   O25   S    
C12   O19   A    
C21   O29   S    
C39   O31   S    
C21   C22   A    
C36   C41   A    
C28   O4    A    
C36   H4    S    
C44   C46   A    
C25   O30   S    
C31   O9    A    
Cu2   O12   S    
C2    C45   A    
C38   C39   A    
Cu4   O6    S    
C49   H8    S    
C29   C48   S    
C51   C52   A    
O29   H15   S    
Cu5   O9    S    
N5    H28   S    
C24   C25   A    
Cu2   O21   S    
Cu6   O13   S    
C39   C40   A    
C16   C17   A    
C29   O6    A    
C50   C51   A    
C25   C26   A    
C45   H5    S    
C1    O1    A    
C43   C44   A    
C34   O22   A    
C37   C38   A    
C22   C35   S    
C43   O32   S    
C30   O8    A    
C27   C41   S    
C42   N3    S    
C47   C48   A    
C45   C49   A    
C17   C18   A    
Cu5   O16   S    
C27   O24   A    
N1    H17   S    
C42   C48   A    
C33   O15   A    
C27   O2    A    
C2    C52   A    
C37   N2    S    
C8    O34   S    
C40   C41   A    
Cu3   O24   S    
Cu4   O2    S    
C23   O20   A    
C22   C24   A    
C28   O3    A    
C1    C13   S    
C42   C43   A    
C3    C4    A    
Cu6   O17   S    
N1    H16   S    
N4    H26   S    
C31   O10   A    
N3    H22   S    
C9    C10   A    
C46   C47   A    
O31   H21   S    
C14   C15   A    
C33   C44   S    
C14   C19   A    
C4    C5    A    
C19   C34   S    
C35   O16   A    
C18   H3    S    
C40   H6    S    
C31   C38   S    
C12   O18   A    
C24   N1    S    
C2    C3    A    
Cu3   O7    S    
Cu2   O23   S    
Cu6   O15   S    
C32   O11   A    
C30   O7    A    
C35   O17   A    
Cu5   Cu6   S    
Cu2   O19   S    
C20   O28   S    
C20   C26   A    
C4    H1    S    
N2    H20   S    
Cu1   O20   S    
C10   C11   A    
Cu6   O10   S    
Cu3   O5    S    
C7    C13   A    
C20   C21   A    
C49   C50   A    
Cu1   O22   S    
C1    O12   A    
Cu5   O14   S    
C6    C52   A    
C17   O27   S    
C47   H7    S    
Cu3   O3    S    
C11   H2    S    
N3    H23   S    
