data_mof_unit_46584.cif
_audit_creation_date              2013-03-05T16:34:18-0500
_audit_creation_method            fapswitch 2.2
_symmetry_space_group_name_H-M    P1
_symmetry_Int_Tables_number       1
_space_group_crystal_system       triclinic
_cell_length_a                    18.521054
_cell_length_b                    18.642611
_cell_length_c                    19.216373
_cell_angle_alpha                 109.841867
_cell_angle_beta                  109.538226
_cell_angle_gamma                 108.264851
_cell_volume                      5154.72243106

loop_
_atom_site_label
_atom_site_type_symbol
_atom_site_description
_atom_site_fract_x
_atom_site_fract_y
_atom_site_fract_z
_atom_type_partial_charge
O1    O     O_R   0.409800 0.552180 0.462000 -0.620627
O2    O     O_R   0.409830 0.447810 0.357640 -0.498410
C1    C     C_R   0.380982 0.500999 0.382061 0.889003
O3    O     O_R   0.590160 0.642370 0.552180 -0.593843
O4    O     O_R   0.590190 0.537990 0.447820 -0.535481
C2    C     C_R   0.618027 0.619067 0.499500 0.841722
Cu1   Cu    Cu3+1 0.499980 0.561800 0.561790 0.954607
Cu2   Cu    Cu3+1 0.500020 0.438200 0.438210 1.152927
O5    O     O_R   0.590170 0.552190 0.642360 -0.597294
O6    O     O_R   0.590200 0.447820 0.538000 -0.582753
O7    O     O_R   0.409810 0.462010 0.552180 -0.620485
O8    O     O_R   0.409840 0.357630 0.447820 -0.500637
C3    C     C_R   0.620591 0.500125 0.617202 0.767787
C4    C     C_R   0.380336 0.381378 0.499021 0.857728
H1    H     H_    0.763526 0.750061 0.852315 0.157630
C5    C     C_R   0.732221 0.803492 0.770825 -0.189911
H2    H     H_    0.703524 0.834063 0.803490 0.172204
C6    C     C_R   0.733206 0.810200 0.700402 0.376486
C7    C     C_R   0.770007 0.767306 0.658216 -0.136853
C8    C     C_R   0.811957 0.726043 0.692484 0.302608
C9    C     C_R   0.806958 0.718670 0.760891 -0.206199
H3    H     H_    0.832997 0.681542 0.782809 0.167953
C10   C     C_R   0.766945 0.756419 0.799437 -0.240326
C11   C     C_R   0.822834 0.815846 0.571813 -0.117023
H4    H     H_    0.881967 0.867141 0.630869 0.146707
C12   C     C_R   0.811248 0.811823 0.494777 -0.138864
C13   C     C_R   0.731671 0.747600 0.418056 -0.114119
C14   C     C_R   0.669563 0.681901 0.419207 0.291426
C15   C     C_R   0.682187 0.687145 0.497726 -0.133171
C16   C     C_R   0.756879 0.757531 0.574510 0.102858
C17   C     C_R   0.636723 0.770200 0.309226 -0.081722
H5    H     H_    0.597909 0.773028 0.340442 0.120902
C18   C     C_R   0.617645 0.785040 0.240280 -0.139479
H6    H     H_    0.563711 0.797831 0.217887 0.134108
C19   C     C_R   0.669751 0.785851 0.201900 -0.123587
H7    H     H_    0.656555 0.799651 0.149994 0.132535
C20   C     C_R   0.739542 0.769741 0.231224 -0.116341
H8    H     H_    0.781889 0.773303 0.203834 0.149651
C21   C     C_R   0.756358 0.751031 0.297532 -0.053405
H9    H     H_    0.810686 0.739148 0.319242 0.084326
C22   C     C_R   0.707110 0.754219 0.339248 0.181905
H10   H     H_    0.551955 0.904243 0.575000 0.173873
C23   C     C_R   0.446175 0.782804 0.536998 -0.079011
H11   H     H_    0.446317 0.806848 0.596841 0.144159
C24   C     C_R   0.385195 0.697480 0.471372 -0.038886
H12   H     H_    0.337515 0.656156 0.480380 0.136018
C25   C     C_R   0.384633 0.666090 0.393620 0.128416
C26   C     C_R   0.444722 0.721813 0.381799 -0.135633
H13   H     H_    0.443512 0.699507 0.321319 0.159687
C27   C     C_R   0.505464 0.807127 0.447432 -0.143261
H14   H     H_    0.551437 0.849957 0.437995 0.141023
C28   C     C_R   0.505801 0.837743 0.524759 -0.009103
C29   C     C_R   0.252802 0.575984 0.253477 -0.151194
H15   H     H_    0.255359 0.636281 0.257383 0.178136
C30   C     C_R   0.185565 0.496798 0.182268 -0.107984
C31   C     C_R   0.180407 0.417637 0.176227 -0.115119
C32   C     C_R   0.245448 0.419455 0.241931 0.277314
C33   C     C_R   0.311730 0.500201 0.315947 -0.175413
C34   C     C_R   0.315002 0.578907 0.321255 -0.027770
C35   C     C_R   0.052807 0.273079 0.116390 -0.059865
H16   H     H_    0.064026 0.293081 0.180521 0.111339
C36   C     C_R   0.986457 0.189458 0.048491 0.151546
C37   C     C_R   0.973827 0.167265 0.966216 -0.156148
H17   H     H_    0.922983 0.103672 0.912768 0.142301
C38   C     C_R   0.027483 0.225903 0.952273 -0.150629
H18   H     H_    0.017854 0.207076 0.888743 0.146968
C39   C     C_R   0.094183 0.307931 0.020144 -0.099162
H19   H     H_    0.136346 0.352188 0.008732 0.105720
C40   C     C_R   0.107058 0.332158 0.102611 0.132868
H20   H     H_    0.176035 0.575633 0.468749 0.173919
C41   C     C_R   0.234709 0.533903 0.554309 0.131263
C42   C     C_R   0.250644 0.466353 0.559286 -0.107966
H21   H     H_    0.284959 0.472322 0.620724 0.114721
C43   C     C_R   0.221791 0.390448 0.484999 0.141743
C44   C     C_R   0.175313 0.381596 0.405435 -0.072259
H22   H     H_    0.148725 0.321684 0.347748 0.177352
C45   C     C_R   0.160263 0.448896 0.400035 -0.162128
H23   H     H_    0.124619 0.441740 0.338365 0.169606
C46   C     C_R   0.189564 0.524671 0.474033 -0.097464
C47   C     C_R   0.171960 0.253009 0.490332 0.291354
C48   C     C_R   0.187044 0.186955 0.501840 -0.234107
C49   C     C_R   0.265401 0.184843 0.511230 -0.141087
C50   C     C_R   0.327412 0.247780 0.507785 0.295511
C51   C     C_R   0.313219 0.314632 0.498703 -0.217945
C52   C     C_R   0.236072 0.318193 0.491004 -0.139111
C53   C     C_R   0.318071 0.120117 0.598964 -0.053685
H24   H     H_    0.326372 0.171600 0.653827 0.127368
C54   C     C_R   0.344798 0.060159 0.608525 -0.181262
H25   H     H_    0.371912 0.064499 0.670111 0.130278
C55   C     C_R   0.338774 0.996132 0.539137 -0.062914
H26   H     H_    0.361291 0.950948 0.547033 0.173202
C56   C     C_R   0.304866 0.991264 0.459850 -0.065551
H27   H     H_    0.301961 0.942950 0.406514 0.171506
C57   C     C_R   0.276066 0.049698 0.449572 -0.068568
H28   H     H_    0.251762 0.046464 0.388305 0.174295
C58   C     C_R   0.282692 0.114727 0.519169 0.177097
C59   C     C_R   0.774829 0.498701 0.606236 -0.169689
H29   H     H_    0.731039 0.506082 0.559141 0.196289
C60   C     C_R   0.846013 0.493741 0.598283 0.443125
C61   C     C_R   0.907075 0.489013 0.660554 -0.212856
H30   H     H_    0.962158 0.484258 0.655701 0.183181
C62   C     C_R   0.897230 0.488611 0.729052 -0.227997
H31   H     H_    0.944349 0.480387 0.772485 0.175568
C63   C     C_R   0.825363 0.492512 0.737400 0.103670
C64   C     C_R   0.761669 0.495429 0.673918 -0.033974
C65   C     C_R   0.685967 0.493144 0.679103 -0.091901
C66   C     C_R   0.668720 0.475287 0.739241 0.081147
H32   H     H_    0.718787 0.458969 0.846999 0.156694
C67   C     C_R   0.732425 0.473009 0.801145 -0.263870
C68   C     C_R   0.812874 0.488439 0.804894 -0.101291
O9    O     O_R   0.052200 0.909800 0.461980 -0.587499
O10   O     O_R   0.947810 0.909820 0.357620 -0.560076
C69   C     C_R   0.001098 0.880729 0.382637 0.844913
O11   O     O_R   0.962020 0.909790 0.552160 -0.602360
O12   O     O_R   0.857630 0.909810 0.447800 -0.586775
C70   C     C_R   0.880517 0.879773 0.497964 0.782960
Cu3   Cu    Cu3+1 0.061810 0.999960 0.561770 0.956086
Cu4   Cu    Cu3+1 0.938190 0.999990 0.438190 1.059998
O13   O     O_R   0.052190 0.090140 0.642340 -0.590566
O14   O     O_R   0.947800 0.090160 0.537980 -0.561465
O15   O     O_R   0.142370 0.090150 0.552150 -0.607138
O16   O     O_R   0.037980 0.090170 0.447800 -0.503896
C71   C     C_R   0.000882 0.120772 0.617922 0.808586
C72   C     C_R   0.119254 0.118806 0.500279 0.904235
O17   O     O_R   0.052180 0.461950 0.909820 -0.595125
O18   O     O_R   0.947800 0.357590 0.909850 -0.590548
C73   C     C_R   0.997819 0.381179 0.879335 0.772281
O19   O     O_R   0.142360 0.552150 0.090150 -0.597875
O20   O     O_R   0.037980 0.447790 0.090180 -0.553795
C74   C     C_R   0.118880 0.498523 0.117100 0.855989
Cu5   Cu    Cu3+1 0.061790 0.561750 0.999970 0.965025
Cu6   Cu    Cu3+1 0.938180 0.438170 0.000010 0.998553
O21   O     O_R   0.052170 0.642340 0.090130 -0.581420
O22   O     O_R   0.947790 0.537980 0.090160 -0.559067
O23   O     O_R   0.962000 0.552140 0.909800 -0.586060
O24   O     O_R   0.857610 0.447780 0.909830 -0.589484
C75   C     C_R   0.001656 0.618764 0.120197 0.876907
C76   C     C_R   0.880876 0.496309 0.878139 0.786358
C77   C     C_R   0.137718 0.762090 0.542339 -0.265602
H33   H     H_    0.201986 0.776068 0.585590 0.168508
C78   C     C_R   0.121553 0.761564 0.465118 0.395273
C79   C     C_R   0.037177 0.745158 0.410110 0.076022
C80   C     C_R   0.971756 0.726670 0.432699 -0.172495
H34   H     H_    0.906638 0.710766 0.390452 0.131791
C81   C     C_R   0.989543 0.728808 0.509964 -0.058361
H35   H     H_    0.938354 0.716528 0.526438 0.204501
C82   C     C_R   0.072779 0.747311 0.565732 0.095153
C83   C     C_R   0.010806 0.679330 0.261483 0.360965
C84   C     C_R   0.004358 0.686401 0.189277 -0.248536
C85   C     C_R   0.000655 0.758414 0.182821 -0.166854
C86   C     C_R   0.002947 0.823569 0.248035 0.305275
C87   C     C_R   0.006689 0.815562 0.319162 -0.234619
C88   C     C_R   0.015389 0.745756 0.328375 -0.087717
C89   C     C_R   0.060774 0.819846 0.106443 -0.062983
H36   H     H_    0.123696 0.860123 0.164169 0.141133
C90   C     C_R   0.052253 0.823946 0.033262 -0.139041
H37   H     H_    0.108113 0.867276 0.034437 0.144053
C91   C     C_R   0.971952 0.771633 0.958344 -0.119205
H38   H     H_    0.966722 0.774872 0.901934 0.162582
C92   C     C_R   0.899432 0.715644 0.956566 -0.157173
H39   H     H_    0.837452 0.674620 0.898274 0.126352
C93   C     C_R   0.906597 0.711087 0.029686 0.134740
C94   C     C_R   0.988736 0.763164 0.104983 0.167541
H40   H     H_    0.396647 0.290909 0.819422 0.124554
C95   C     C_R   0.295843 0.258307 0.853180 -0.111154
H41   H     H_    0.331481 0.245921 0.901133 0.143859
C96   C     C_R   0.213179 0.249160 0.837523 -0.125215
H42   H     H_    0.185373 0.229760 0.873727 0.133134
C97   C     C_R   0.166553 0.264704 0.775043 0.117155
C98   C     C_R   0.204174 0.290816 0.729590 -0.123291
H43   H     H_    0.170213 0.305394 0.683125 0.167285
C99   C     C_R   0.286804 0.300015 0.745410 -0.150223
H44   H     H_    0.315380 0.320031 0.709985 0.130638
C100  C     C_R   0.332611 0.283690 0.807142 -0.125672
C101  C     C_R   0.076338 0.318395 0.822095 -0.246217
H45   H     H_    0.136372 0.369540 0.880375 0.150842
C102  C     C_R   0.996483 0.314543 0.811060 -0.073598
C103  C     C_R   0.918214 0.249190 0.734880 -0.004932
C104  C     C_R   0.921741 0.188346 0.671092 -0.197194
H46   H     H_    0.861668 0.137698 0.612655 0.163058
C105  C     C_R   0.001462 0.190416 0.683257 -0.060745
C106  C     C_R   0.079808 0.256574 0.759455 0.004313
C107  C     C_R   0.787757 0.211197 0.755644 -0.065725
H47   H     H_    0.815331 0.187831 0.796615 0.139068
C108  C     C_R   0.707192 0.208057 0.740370 -0.143993
H48   H     H_    0.673082 0.182748 0.769701 0.132165
C109  C     C_R   0.670616 0.237484 0.687192 -0.091902
H49   H     H_    0.608412 0.235270 0.675650 0.175880
C110  C     C_R   0.714179 0.269368 0.648599 -0.094792
H50   H     H_    0.685626 0.291780 0.607133 0.167860
C111  C     C_R   0.794909 0.272913 0.663989 -0.181468
H51   H     H_    0.828187 0.297825 0.633855 0.154903
C112  C     C_R   0.832750 0.245032 0.718607 0.081217
N1    N     N_R   0.245855 0.339173 0.230928 0.124300
O25   O     O_R   0.245558 0.289556 0.164018 -0.326939
O26   O     O_R   0.246707 0.315333 0.287271 -0.404777
C113  C     C_3   0.928460 0.121398 0.059891 -0.443305
C114  C     C_3   0.954398 0.144868 0.152664 -0.348779
C115  C     C_3   0.896840 0.069490 0.157339 -0.703766
H52   H     H_    0.827254 0.053204 0.124046 0.233067
H53   H     H_    0.903580 0.011183 0.127703 0.275191
H54   H     H_    0.917179 0.088184 0.224925 0.279442
H55   H     H_    0.023586 0.160490 0.187864 0.253045
H56   H     H_    0.947102 0.202342 0.183985 0.231014
H57   H     H_    0.860139 0.108628 0.026118 0.202677
H58   H     H_    0.930161 0.060090 0.028542 0.215717
C116  C     C_3   0.263299 0.614257 0.634111 -0.421116
C117  C     C_3   0.334603 0.695076 0.647264 -0.372162
C118  C     C_3   0.368751 0.775050 0.731435 -0.828385
H59   H     H_    0.314809 0.788414 0.733096 0.246104
H60   H     H_    0.398375 0.764930 0.785531 0.254943
H61   H     H_    0.419490 0.832477 0.738500 0.248318
H62   H     H_    0.389960 0.683742 0.646741 0.225558
H63   H     H_    0.307600 0.708337 0.594968 0.236461
H64   H     H_    0.205759 0.623595 0.629434 0.212791
H65   H     H_    0.288657 0.605927 0.690477 0.200410
N2    N     N_R   0.695438 0.859035 0.672457 0.115987
O27   O     O_R   0.715802 0.888848 0.625704 -0.399833
O28   O     O_R   0.648085 0.882807 0.702043 -0.421941
N3    N     N_R   0.091370 0.254231 0.477562 0.139133
O29   O     O_R   0.069820 0.264172 0.536650 -0.395593
O30   O     O_R   0.037629 0.241885 0.405161 -0.347643
N4    N     N_R   0.405938 0.244317 0.515031 0.106435
O31   O     O_R   0.411811 0.212304 0.446798 -0.330628
O32   O     O_R   0.461654 0.254396 0.585123 -0.436240
C119  C     C_3   0.580493 0.451329 0.735091 -0.331209
C120  C     C_3   0.580949 0.529790 0.796035 -0.379195
C121  C     C_3   0.493810 0.504500 0.795232 -0.839511
H66   H     H_    0.439831 0.478107 0.730436 0.256360
H67   H     H_    0.480504 0.454779 0.815378 0.251816
H68   H     H_    0.496279 0.562769 0.840132 0.245638
H69   H     H_    0.633638 0.556012 0.860609 0.225820
H70   H     H_    0.594684 0.582096 0.779361 0.248359
H71   H     H_    0.527447 0.423827 0.669621 0.220602
H72   H     H_    0.563999 0.399001 0.751761 0.207496
N5    N     N_R   0.856100 0.493393 0.527027 0.146447
O33   O     O_R   0.792956 0.483511 0.461999 -0.306960
O34   O     O_R   0.927867 0.501062 0.525675 -0.350780
N6    N     N_R   0.861646 0.693171 0.660655 0.087539
O35   O     O_R   0.839623 0.660669 0.580689 -0.394114
O36   O     O_R   0.927289 0.691273 0.711618 -0.418820
C122  C     C_3   0.092794 0.752512 0.650600 -0.366906
C123  C     C_3   0.097541 0.834897 0.711154 -0.320735
C124  C     C_3   0.134432 0.850299 0.801907 -0.787070
H73   H     H_    0.132495 0.907455 0.843055 0.240960
H74   H     H_    0.095592 0.792710 0.803784 0.289528
H75   H     H_    0.203380 0.863486 0.827549 0.237701
H76   H     H_    0.140389 0.892481 0.711603 0.208719
H77   H     H_    0.031125 0.828795 0.688962 0.246883
H78   H     H_    0.041493 0.693777 0.641343 0.264786
H79   H     H_    0.156126 0.753132 0.679615 0.181415
N7    N     N_R   0.191205 0.777354 0.444626 0.123657
O37   O     O_R   0.189955 0.800842 0.388018 -0.393158
O38   O     O_R   0.259046 0.771546 0.485549 -0.435442
N8    N     N_R   0.017543 0.607301 0.269244 0.128561
O39   O     O_R   0.965934 0.561837 0.288023 -0.338627
O40   O     O_R   0.079419 0.591086 0.263784 -0.362870
N9    N     N_R   0.006691 0.900519 0.244392 0.131495
O41   O     O_R   0.946473 0.894721 0.180183 -0.400448
O42   O     O_R   0.071609 0.976823 0.305004 -0.388190
C125  C     C_3   0.826717 0.649447 0.025225 -0.440725
C126  C     C_3   0.764579 0.686639 0.029582 -0.353464
C127  C     C_3   0.690257 0.628000 0.035378 -0.838732
H80   H     H_    0.655359 0.560025 0.982559 0.257851
H81   H     H_    0.716604 0.626600 0.095669 0.263628
H82   H     H_    0.642887 0.652946 0.033175 0.248662
H83   H     H_    0.800832 0.752266 0.086353 0.258198
H84   H     H_    0.737361 0.693550 0.972699 0.209448
H85   H     H_    0.791924 0.587047 0.965504 0.186671
H86   H     H_    0.844508 0.633331 0.076724 0.207206
N10   N     N_R   0.592936 0.611362 0.340632 0.123447
O43   O     O_R   0.600353 0.569412 0.276047 -0.324345
O44   O     O_R   0.515415 0.592011 0.331739 -0.404932

loop_
_geom_bond_atom_site_label_1
_geom_bond_atom_site_label_2
_geom_bond_distance
_ccdc_geom_bond_type
C47   C52   1.400512 A    
C127  H82   1.109985 S    
N1    O26   1.299879 A    
C30   C31   1.410110 A    
C37   C38   1.396548 A    
C44   H22   1.080945 S    
O21   C75   1.295566 A    
C117  H62   1.112296 S    
C123  H77   1.111941 S    
C47   C48   1.415119 A    
O23   C76   1.299783 A    
C42   C43   1.403674 A    
C97   C98   1.403019 A    
C56   C57   1.396456 A    
C113  H57   1.111778 S    
C7    C8    1.416099 A    
C4    C51   1.453905 S    
C107  H47   1.083386 S    
O22   C75   1.295963 A    
N3    O30   1.300807 A    
C103  C104  1.396257 A    
C32   C33   1.419977 A    
N3    O29   1.299830 A    
Cu1   Cu2   2.690077 S    
C21   C22   1.403153 A    
C107  C112  1.403851 A    
C29   H15   1.085549 S    
N5    O33   1.301675 A    
C121  H66   1.111346 S    
Cu1   O7    1.974105 S    
C85   C94   1.474850 S    
C77   C82   1.400924 A    
C12   C13   1.421803 A    
C95   H41   1.082264 S    
C50   C51   1.405386 A    
C122  H79   1.111998 S    
C14   C15   1.410821 A    
C19   C20   1.396267 A    
C20   H8    1.078792 S    
C11   C12   1.394678 A    
C93   C94   1.413791 A    
C116  H64   1.112198 S    
Cu5   O23   1.972321 S    
C107  C108  1.398833 A    
C126  H84   1.110534 S    
O4    C2    1.298746 A    
Cu2   O6    1.983816 S    
O7    C4    1.292809 A    
C53   C54   1.397724 A    
C23   C28   1.397200 A    
C108  C109  1.398077 A    
C12   C70   1.459616 S    
C5    H2    1.082354 S    
C65   C66   1.410583 A    
C54   H25   1.082282 S    
C123  C124  1.526667 S    
C66   C119  1.518930 S    
C80   C81   1.392486 A    
N8    O39   1.301077 A    
C118  H61   1.110444 S    
C31   C32   1.405149 A    
C35   C36   1.410210 A    
C6    C7    1.425599 A    
Cu4   O16   1.972232 S    
C79   C80   1.402484 A    
C110  C111  1.398730 A    
Cu3   O15   1.977477 S    
C116  H65   1.112447 S    
O15   C72   1.296781 A    
O5    C3    1.303743 A    
C41   C116  1.508728 S    
C81   C82   1.398119 A    
C114  H55   1.112214 S    
C90   C91   1.393281 A    
C13   C22   1.488901 S    
C57   H28   1.082913 S    
C79   C88   1.490187 S    
N6    O35   1.299459 A    
N5    O34   1.301692 A    
C117  C118  1.525344 S    
C38   C39   1.396374 A    
C115  H54   1.110550 S    
C27   C28   1.396281 A    
C86   C87   1.406005 A    
C17   C18   1.397750 A    
H40   C100  1.082407 S    
C114  C115  1.526419 S    
H32   C67   1.082911 S    
C124  H73   1.110350 S    
C125  H85   1.102150 S    
C95   C100  1.398384 A    
O14   C71   1.301974 A    
Cu6   O24   1.977523 S    
C57   C58   1.403458 A    
O20   Cu6   1.972343 S    
C59   C64   1.418189 A    
N8    O40   1.300679 A    
C30   C74   1.453409 S    
C24   C25   1.402548 A    
N10   O43   1.301244 A    
C115  H52   1.110792 S    
C95   C96   1.398942 A    
C14   N10   1.439529 S    
C9    H3    1.077204 S    
C91   C92   1.400351 A    
C66   C67   1.391380 A    
C69   C87   1.460079 S    
C75   C84   1.460951 S    
C113  H58   1.112673 S    
C62   H31   1.079456 S    
O3    Cu1   1.975335 S    
Cu3   Cu4   2.691940 S    
C121  H67   1.110875 S    
O10   C69   1.301719 A    
C59   C60   1.404170 A    
C99   C100  1.397653 A    
C59   H29   1.076699 S    
C11   C16   1.387422 A    
C29   C30   1.392511 A    
C29   C34   1.391165 A    
C120  H70   1.108770 S    
C103  C112  1.478136 S    
C49   C58   1.483087 S    
C43   C44   1.401863 A    
C48   C72   1.463035 S    
C116  C117  1.532646 S    
C122  H78   1.111756 S    
C25   C26   1.404977 A    
C6    N2    1.444422 S    
C89   C94   1.403091 A    
C68   C76   1.465318 S    
C18   H6    1.082294 S    
C11   H4    1.085029 S    
N4    O31   1.300805 A    
C101  C102  1.396739 A    
C96   H42   1.083391 S    
C119  H71   1.109288 S    
C53   H24   1.080951 S    
C3    C65   1.462345 S    
C93   C125  1.516334 S    
C27   H14   1.082067 S    
N2    O27   1.300963 A    
C45   H23   1.082691 S    
N6    O36   1.300975 A    
Cu6   O22   1.973055 S    
C48   C49   1.416230 A    
C41   C46   1.405430 A    
C39   H19   1.082665 S    
C96   C97   1.403844 A    
C35   H16   1.081265 S    
O1    C1    1.300906 A    
C19   H7    1.082307 S    
C92   C93   1.400913 A    
C105  C106  1.414858 A    
N9    O42   1.300870 A    
C23   H11   1.081974 S    
C111  C112  1.403431 A    
C15   C16   1.412523 A    
C101  H45   1.085058 S    
O17   C73   1.296397 A    
C23   C24   1.398425 A    
O17   Cu5   1.972940 S    
C55   C56   1.398003 A    
C120  C121  1.526000 S    
O18   Cu6   1.974225 S    
Cu2   O8    1.975336 S    
O12   Cu4   1.977236 S    
C36   C37   1.404800 A    
C61   C62   1.390086 A    
C118  H59   1.110481 S    
C125  H86   1.106327 S    
C45   C46   1.397064 A    
C110  H50   1.082501 S    
O9    C69   1.290925 A    
C51   C52   1.411598 A    
C62   C63   1.413604 A    
C26   C27   1.397714 A    
C44   C45   1.396720 A    
C89   H36   1.083436 S    
C53   C58   1.404554 A    
C102  C103  1.411223 A    
C101  C106  1.392024 A    
N1    O25   1.301367 A    
O24   C76   1.296223 A    
C26   H13   1.082956 S    
C54   C55   1.397033 A    
C31   C40   1.487746 S    
C5    C10   1.389543 A    
C49   C50   1.399658 A    
C9    C10   1.390449 A    
C114  H56   1.111709 S    
C91   H38   1.079789 S    
N9    O41   1.300551 A    
O3    C2    1.292808 A    
C83   C88   1.404834 A    
O16   C72   1.297438 A    
Cu5   Cu6   2.691712 S    
O19   Cu5   1.977407 S    
N10   O44   1.300071 A    
C81   H35   1.079514 S    
C126  H83   1.107644 S    
C99   H44   1.082756 S    
C63   C68   1.413500 A    
N7    O38   1.300417 A    
O20   C74   1.291640 A    
C73   C102  1.455257 S    
C39   C40   1.402153 A    
C111  H51   1.082952 S    
Cu1   O5    1.966092 S    
C90   H37   1.082372 S    
C117  H63   1.109560 S    
C17   C22   1.406455 A    
C122  C123  1.534403 S    
H20   C46   1.083237 S    
O1    Cu1   1.983814 S    
C89   C90   1.392989 A    
C17   H5    1.081725 S    
O2    Cu2   1.966091 S    
C119  C120  1.527709 S    
C36   C113  1.517729 S    
O8    C4    1.295457 A    
C42   H21   1.083870 S    
Cu5   O21   1.974317 S    
O6    C3    1.288237 A    
O19   C74   1.298613 A    
C63   C64   1.416134 A    
C47   N3    1.438312 S    
O4    Cu2   1.974107 S    
O11   C70   1.303744 A    
C77   H33   1.082760 S    
N4    O32   1.300511 A    
C126  C127  1.531097 S    
O13   C71   1.293481 A    
C104  H46   1.084661 S    
N2    O28   1.301902 A    
C8    N6    1.439486 S    
C64   C65   1.427057 A    
C108  H48   1.082260 S    
C82   C122  1.507392 S    
C60   C61   1.395553 A    
C32   N1    1.441563 S    
O9    Cu3   1.982469 S    
C92   H39   1.079571 S    
Cu3   O13   1.964826 S    
O2    C1    1.293388 A    
C33   C34   1.416164 A    
C50   N4    1.438151 S    
C41   C42   1.406387 A    
C20   C21   1.395210 A    
C124  H75   1.110876 S    
C127  H81   1.109708 S    
C84   C85   1.409784 A    
O10   Cu4   1.964711 S    
C60   N5    1.440727 S    
C77   C78   1.408115 A    
C55   H26   1.082177 S    
C125  C126  1.528892 S    
C98   C99   1.397442 A    
C35   C40   1.405352 A    
O18   C73   1.295565 A    
C127  H80   1.108368 S    
H1    C10   1.081965 S    
C56   H27   1.081987 S    
C18   C19   1.396419 A    
C124  H74   1.109487 S    
C120  H69   1.100137 S    
C83   C84   1.407169 A    
C38   H18   1.081512 S    
C43   C52   1.485312 S    
C113  C114  1.538300 S    
Cu4   O14   1.982560 S    
C97   C106  1.479377 S    
C109  C110  1.397570 A    
O11   Cu3   1.972135 S    
C119  H72   1.112845 S    
C25   C34   1.480161 S    
C37   H17   1.083439 S    
C21   H9    1.075768 S    
C1    C33   1.464482 S    
C24   H12   1.081506 S    
C109  H49   1.082240 S    
C2    C15   1.461214 S    
C8    C9    1.396994 A    
C83   N8    1.438553 S    
C5    C6    1.406148 A    
C123  H76   1.112408 S    
C98   H43   1.078420 S    
C67   C68   1.397685 A    
C13   C14   1.405743 A    
C115  H53   1.110787 S    
C78   N7    1.444412 S    
C118  H60   1.110758 S    
C85   C86   1.395141 A    
C71   C105  1.462120 S    
C61   H30   1.082622 S    
C87   C88   1.421138 A    
O12   C70   1.290127 A    
C78   C79   1.424454 A    
C7    C16   1.480327 S    
C121  H68   1.110299 S    
C80   H34   1.076614 S    
C86   N9    1.441081 S    
H10   C28   1.082111 S    
N7    O37   1.299400 A    
C104  C105  1.401257 A    
