data_mof_unit_18101.cif
_audit_creation_date              2013-03-05T16:34:52-0500
_audit_creation_method            fapswitch 2.2
_symmetry_space_group_name_H-M    P1
_symmetry_Int_Tables_number       1
_space_group_crystal_system       triclinic
_cell_length_a                    15.096638
_cell_length_b                    9.117802
_cell_length_c                    7.784354
_cell_angle_alpha                 90.184365
_cell_angle_beta                  90.000705
_cell_angle_gamma                 89.987131
_cell_volume                      1071.49640061

loop_
_atom_site_label
_atom_site_type_symbol
_atom_site_description
_atom_site_fract_x
_atom_site_fract_y
_atom_site_fract_z
_atom_type_partial_charge
O1    O     O_R   0.500000 0.288390 0.642760 -0.574560
O2    O     O_R   0.500000 0.711610 0.357240 -0.574584
O3    O     O_R   0.500000 0.711610 0.642760 -0.580523
O4    O     O_R   0.500000 0.288390 0.357240 -0.580533
C1    C     C_R   0.500220 0.219977 0.499831 0.828900
C2    C     C_R   0.500218 0.780022 0.500169 0.828861
O5    O     O_R   0.370260 0.500000 0.642800 -0.585996
O6    O     O_R   0.629740 0.500000 0.357200 -0.581951
O7    O     O_R   0.629740 0.500000 0.642800 -0.581919
O8    O     O_R   0.370260 0.500000 0.357200 -0.585919
C3    C     C_R   0.328485 0.500063 0.500012 0.792675
C4    C     C_R   0.671077 0.499954 0.500002 0.794488
Cu1   Cu    Cu3+1 0.500000 0.500000 0.669080 0.991840
Cu2   Cu    Cu3+1 0.500000 0.500000 0.330920 0.991902
N1    N     N_1   0.500000 0.500000 0.076820 -0.052672
N2    N     N_1   0.500000 0.500000 0.923180 -0.052846
C5    C     C_R   0.812407 0.630462 0.532991 0.211947
C6    C     C_R   0.186069 0.386973 0.414556 0.209888
C7    C     C_R   0.812437 0.369331 0.467235 0.211836
C8    C     C_R   0.186053 0.613042 0.585797 0.210189
C9    C     C_R   0.766960 0.499919 0.500025 -0.181347
C10   C     C_R   0.231772 0.500044 0.500090 -0.194646
C11   C     C_R   0.905227 0.373142 0.445587 -0.036400
C12   C     C_R   0.092663 0.621498 0.572266 -0.046532
C13   C     C_R   0.905168 0.626574 0.554976 -0.036340
C14   C     C_R   0.092717 0.378345 0.428444 -0.046207
C15   C     C_R   0.952288 0.499865 0.500324 -0.116487
C16   C     C_R   0.045996 0.499896 0.500369 -0.104580
C17   C     C_R   0.951837 0.254142 0.372585 0.375639
C18   C     C_R   0.044264 0.746093 0.630947 0.369912
C19   C     C_R   0.951684 0.745488 0.628280 0.375653
C20   C     C_R   0.044417 0.253620 0.370024 0.369350
C21   C     C_1   0.500422 0.065319 0.499767 -0.171701
C22   C     C_1   0.500421 0.934680 0.500233 -0.171708
Cl1   Cl    Cl    0.896412 0.112479 0.258557 -0.505926
Cl2   Cl    Cl    0.095174 0.913200 0.696234 -0.451627
Cl3   Cl    Cl    0.896102 0.886882 0.742567 -0.506205
Cl4   Cl    Cl    0.095512 0.086460 0.305335 -0.451766
N3    N     N_2   0.765704 0.766332 0.528370 -0.396280
H1    H     H_    0.708225 0.768562 0.599892 0.250000
C23   C     C_3   0.753664 0.823669 0.356832 -0.523541
H2    H     H_    0.724792 0.935337 0.363789 0.238452
H3    H     H_    0.707851 0.752918 0.281977 0.204901
H4    H     H_    0.818242 0.829384 0.288915 0.289515
N4    N     N_2   0.234384 0.282494 0.314778 -0.370162
H5    H     H_    0.293980 0.247911 0.365091 0.256021
C24   C     C_3   0.237393 0.312783 0.132377 -0.522420
H6    H     H_    0.268426 0.218851 0.064068 0.238223
H7    H     H_    0.277132 0.412527 0.107470 0.202667
H8    H     H_    0.169508 0.328596 0.080418 0.237443
N5    N     N_2   0.765718 0.233509 0.471683 -0.396305
H9    H     H_    0.708269 0.231362 0.400070 0.249939
C25   C     C_3   0.753619 0.176082 0.643155 -0.523598
H10   H     H_    0.818182 0.170184 0.711105 0.289520
H11   H     H_    0.724695 0.064477 0.636076 0.238402
H12   H     H_    0.707828 0.246881 0.718040 0.204873
N6    N     N_2   0.234398 0.717926 0.684882 -0.370130
H13   H     H_    0.293811 0.752714 0.633994 0.255769
C26   C     C_3   0.237820 0.688335 0.867424 -0.522385
H14   H     H_    0.266963 0.784169 0.935387 0.239770
H15   H     H_    0.279563 0.590839 0.892909 0.203159
H16   H     H_    0.170199 0.669105 0.919333 0.236062

loop_
_geom_bond_atom_site_label_1
_geom_bond_atom_site_label_2
_geom_bond_distance
_ccdc_geom_bond_type
O3    Cu1   1.940921 S    
C13   C19   1.410910 A    
C7    C11   1.411366 A    
C17   C20   1.397790 A    
C14   C20   1.424360 A    
N5    H9    1.031151 S    
C11   C15   1.420748 A    
C13   C15   1.420643 A    
C12   C16   1.426623 A    
C23   H2    1.108617 S    
C17   Cl1   1.774677 S    
C3    C10   1.460044 S    
C14   C16   1.426499 A    
C24   H6    1.110246 S    
C6    C14   1.415673 A    
C18   Cl2   1.779331 S    
O6    C4    1.274807 A    
O3    C2    1.274996 A    
C5    C13   1.411249 A    
C23   H4    1.110355 S    
N4    C24   1.448071 S    
C21   C22   1.191161 T    
Cu1   N2    1.978004 S    
C26   H14   1.110931 S    
C24   H7    1.107240 S    
N4    H5    1.030980 S    
O5    C3    1.277958 A    
C23   H3    1.109858 S    
N6    H13   1.030998 S    
O2    C2    1.273784 A    
O1    C1    1.273784 A    
C11   C17   1.411037 A    
C7    C9    1.397109 A    
C8    C10   1.406515 A    
C24   H8    1.111281 S    
C20   Cl4   1.779353 S    
C25   H11   1.108616 S    
O4    Cu2   1.940922 S    
C18   C19   1.397813 A    
O2    Cu2   1.939610 S    
O7    C4    1.274791 A    
C12   C18   1.424571 A    
C26   H15   1.107963 S    
N6    C26   1.448134 S    
O8    C3    1.278129 A    
N1    N2    1.195989 T    
C6    N4    1.427486 S    
C7    N5    1.425818 S    
O5    Cu1   1.969291 S    
O1    Cu1   1.939611 S    
N3    C23   1.447011 S    
C5    N3    1.425838 S    
C25   H12   1.109853 S    
N3    H1    1.031158 S    
O7    Cu1   1.969295 S    
Cu2   N1    1.978004 S    
C26   H16   1.112070 S    
O6    Cu2   1.969290 S    
Cu1   Cu2   2.632358 S    
N5    C25   1.446985 S    
C8    N6    1.427475 S    
C6    C10   1.406460 A    
C4    C9    1.447500 S    
C8    C12   1.415900 A    
C5    C9    1.397032 A    
C2    C22   1.410143 S    
C25   H10   1.110334 S    
C19   Cl3   1.774754 S    
O4    C1    1.274996 A    
C15   C16   1.414665 A    
O8    Cu2   1.969296 S    
C1    C21   1.410143 S    
