data_mof_unit_37073.cif
_audit_creation_date              2012-12-11T15:20:33-0500
_audit_creation_method            fapswitch 2.2
_symmetry_space_group_name_H-M    P1
_symmetry_Int_Tables_number       1
_space_group_crystal_system       triclinic
_cell_length_a                    21.544259
_cell_length_b                    7.244759
_cell_length_c                    19.939008
_cell_angle_alpha                 90.001064
_cell_angle_beta                  87.647504
_cell_angle_gamma                 90.001675
_cell_volume                      3109.51657886

loop_
_atom_site_label
_atom_site_type_symbol
_atom_type_description
_atom_site_fract_x
_atom_site_fract_y
_atom_site_fract_z
_atom_type_partial_charge
O1    O     O_R   0.688010 0.379840 0.189360 -0.532987
O2    O     O_R   0.311990 0.620160 0.810640 -0.538311
O3    O     O_R   0.811990 0.879840 0.310640 -0.532982
O4    O     O_R   0.188010 0.120160 0.689360 -0.538297
O5    O     O_R   0.808630 0.708850 0.184280 -0.519902
O6    O     O_R   0.191370 0.291150 0.815720 -0.524704
O7    O     O_R   0.691370 0.208850 0.315720 -0.519901
O8    O     O_R   0.308630 0.791150 0.684280 -0.524677
C1    C     C_R   0.830262 0.540934 0.166490 0.701193
C2    C     C_R   0.169556 0.459056 0.833296 0.702233
C3    C     C_R   0.669738 0.040933 0.333510 0.701191
C4    C     C_R   0.330444 0.959057 0.666704 0.702187
O9    O     O_R   0.688260 0.709510 0.181570 -0.535115
O10   O     O_R   0.311740 0.290490 0.818430 -0.535529
O11   O     O_R   0.811740 0.209510 0.318430 -0.535120
O12   O     O_R   0.188260 0.790490 0.681570 -0.535532
O13   O     O_R   0.690760 0.880550 0.307920 -0.520844
O14   O     O_R   0.309240 0.119450 0.692080 -0.518352
O15   O     O_R   0.809240 0.380550 0.192080 -0.520843
O16   O     O_R   0.190760 0.619450 0.807920 -0.518341
C5    C     C_R   0.668317 0.541229 0.165903 0.694459
C6    C     C_R   0.332102 0.458530 0.833198 0.703985
C7    C     C_R   0.831684 0.041235 0.334097 0.694460
C8    C     C_R   0.167902 0.958523 0.666796 0.703937
O17   O     O_3   0.750960 0.546580 0.291460 -0.365952
O18   O     O_3   0.249040 0.453420 0.708540 -0.366300
O19   O     O_3   0.749040 0.046580 0.208540 -0.365952
O20   O     O_3   0.250960 0.953420 0.791460 -0.366328
V1    V     V_3+5 0.749820 0.821150 0.242310 1.379903
V2    V     V_3+5 0.250180 0.178850 0.757690 1.369303
V3    V     V_3+5 0.750180 0.321150 0.257690 1.379900
V4    V     V_3+5 0.249820 0.678850 0.742310 1.369341
C9    C     C_R   0.057950 0.907230 0.634586 0.003080
C10   C     C_R   0.941518 0.097194 0.367929 -0.026439
C11   C     C_R   0.442058 0.407353 0.865409 0.002972
C12   C     C_R   0.558480 0.597155 0.132077 -0.026445
C13   C     C_R   0.119324 0.964876 0.616263 -0.103622
C14   C     C_R   0.880796 0.029795 0.384530 -0.123499
C15   C     C_R   0.380677 0.464902 0.883737 -0.103676
C16   C     C_R   0.619202 0.529770 0.115472 -0.123490
C17   C     C_R   0.134977 0.019006 0.549222 0.006323
C18   C     C_R   0.868864 0.935618 0.446353 0.022842
C19   C     C_R   0.365017 0.518943 0.950787 0.006351
C20   C     C_R   0.631131 0.435586 0.053648 0.022855
C21   C     C_R   0.087840 0.020587 0.501103 0.051514
C22   C     C_R   0.918561 0.906722 0.490312 0.055913
C23   C     C_R   0.412154 0.520534 0.998906 0.051520
C24   C     C_R   0.581435 0.406702 0.009688 0.055899
C25   C     C_R   0.027383 0.955996 0.519052 -0.007896
C26   C     C_R   0.979107 0.969116 0.472321 -0.000493
C27   C     C_R   0.472614 0.455987 0.980951 -0.007923
C28   C     C_R   0.520889 0.469091 0.027682 -0.000486
C29   C     C_R   0.014955 0.877191 0.583164 0.049490
C30   C     C_R   0.991848 0.043555 0.407793 0.046082
C31   C     C_R   0.485046 0.377251 0.916828 0.049528
C32   C     C_R   0.508148 0.543508 0.092214 0.046087
C33   C     C_R   0.100705 0.069064 0.433522 -0.210728
C34   C     C_R   0.910578 0.803036 0.549698 -0.237804
C35   C     C_R   0.399288 0.568976 0.066490 -0.210717
C36   C     C_R   0.589416 0.303034 0.950295 -0.237809
C37   C     C_R   0.055052 0.058281 0.385690 0.079737
C38   C     C_R   0.959651 0.771450 0.592179 0.072203
C39   C     C_R   0.444944 0.558208 0.114319 0.079739
C40   C     C_R   0.540347 0.271518 0.907799 0.072238
H1    H     H_    0.147187 0.102481 0.415368 0.129573
H2    H     H_    0.867189 0.734309 0.562262 0.144501
H3    H     H_    0.352805 0.602363 0.084646 0.129572
H4    H     H_    0.632798 0.234267 0.937734 0.144565
C41   C     C_1   0.382514 0.969340 0.614412 -0.217787
C42   C     C_1   0.617271 0.031030 0.385364 -0.217280
C43   C     C_1   0.117486 0.469339 0.885588 -0.217831
C44   C     C_1   0.882729 0.531035 0.114636 -0.217278
C45   C     C_1   0.426013 0.980367 0.571505 -0.013803
C46   C     C_1   0.573504 0.020460 0.427978 -0.010721
C47   C     C_1   0.073987 0.480369 0.928496 -0.013843
C48   C     C_1   0.926496 0.520466 0.072022 -0.010717
C49   C     C_1   0.477831 0.994465 0.520977 -0.005453
C50   C     C_1   0.521609 0.006536 0.478426 -0.003627
C51   C     C_1   0.022169 0.494469 0.979024 -0.005452
C52   C     C_1   0.978392 0.506542 0.021574 -0.003622
C53   C     C_3   0.036542 0.903266 0.708905 -0.386570
C54   C     C_3   0.043822 0.090967 0.744164 -0.309816
C55   C     C_3   0.002382 0.104605 0.808040 -0.779751
H5    H     H_    0.952674 0.090260 0.796298 0.223964
H6    H     H_    0.014796 0.994972 0.844071 0.237642
H7    H     H_    0.008930 0.241218 0.831909 0.225695
H8    H     H_    0.092180 0.109690 0.759309 0.210184
H9    H     H_    0.032339 0.205493 0.709782 0.200440
H10   H     H_    0.986521 0.869854 0.714284 0.193445
H11   H     H_    0.062502 0.795288 0.735733 0.165028
C56   C     C_3   0.949678 0.255278 0.317591 -0.354781
C57   C     C_3   0.934131 0.440613 0.351520 -0.275848
C58   C     C_3   0.948719 0.600790 0.303836 -0.748568
H12   H     H_    0.998534 0.599826 0.287218 0.219306
H13   H     H_    0.919777 0.592257 0.259321 0.221227
H14   H     H_    0.938734 0.732293 0.329963 0.223679
H15   H     H_    0.884336 0.446295 0.368062 0.210714
H16   H     H_    0.962323 0.457300 0.396651 0.188893
H17   H     H_    0.997632 0.268907 0.297162 0.171882
H18   H     H_    0.921225 0.233404 0.273135 0.172921
C59   C     C_3   0.463486 0.403678 0.791098 -0.386453
C60   C     C_3   0.456310 0.591625 0.755988 -0.309985
C61   C     C_3   0.497672 0.605309 0.692057 -0.779621
H19   H     H_    0.547386 0.590441 0.703703 0.223956
H20   H     H_    0.485094 0.496024 0.655959 0.237640
H21   H     H_    0.491226 0.742139 0.668315 0.225627
H22   H     H_    0.407943 0.610834 0.740950 0.210191
H23   H     H_    0.467947 0.705863 0.790431 0.200584
H24   H     H_    0.513490 0.370080 0.785703 0.193388
H25   H     H_    0.437483 0.295960 0.764182 0.165043
C62   C     C_3   0.550320 0.755241 0.182416 -0.354777
C63   C     C_3   0.565865 0.940577 0.148486 -0.275843
C64   C     C_3   0.551279 0.100755 0.196171 -0.748576
H26   H     H_    0.501465 0.099779 0.212793 0.219310
H27   H     H_    0.580225 0.092234 0.240684 0.221229
H28   H     H_    0.561261 0.232259 0.170044 0.223678
H29   H     H_    0.615659 0.946269 0.131940 0.210718
H30   H     H_    0.537670 0.957254 0.103358 0.188880
H31   H     H_    0.502367 0.768858 0.202847 0.171880
H32   H     H_    0.578775 0.733378 0.226870 0.172921
C65   C     C_3   0.201440 0.078852 0.530173 -0.350383
C66   C     C_3   0.206748 0.290152 0.528249 -0.288560
C67   C     C_3   0.273473 0.351336 0.512132 -0.745548
H33   H     H_    0.304636 0.300595 0.551156 0.235995
H34   H     H_    0.289801 0.297318 0.462332 0.221851
H35   H     H_    0.275719 0.504456 0.510951 0.211546
H36   H     H_    0.176327 0.347968 0.489818 0.185749
H37   H     H_    0.191375 0.348163 0.577803 0.214692
H38   H     H_    0.235118 0.024617 0.565803 0.158599
H39   H     H_    0.217526 0.016686 0.481683 0.157640
C68   C     C_3   0.802499 0.879154 0.467753 -0.347738
C69   C     C_3   0.775577 0.007080 0.523127 -0.324715
C70   C     C_3   0.712779 0.937293 0.550717 -0.765842
H40   H     H_    0.679566 0.925911 0.509847 0.236751
H41   H     H_    0.718117 0.799900 0.574534 0.225922
H42   H     H_    0.693613 0.035237 0.589072 0.218874
H43   H     H_    0.807358 0.017886 0.565361 0.203456
H44   H     H_    0.769669 0.147853 0.502092 0.193036
H45   H     H_    0.770203 0.884568 0.426136 0.175075
H46   H     H_    0.801318 0.732355 0.483658 0.164132
C71   C     C_3   0.298548 0.578697 0.969843 -0.350379
C72   C     C_3   0.293213 0.789989 0.971784 -0.288611
C73   C     C_3   0.226483 0.851080 0.987921 -0.745578
H47   H     H_    0.195319 0.800319 0.948900 0.235998
H48   H     H_    0.210171 0.797016 0.037719 0.221869
H49   H     H_    0.224218 0.004197 0.989115 0.211558
H50   H     H_    0.323634 0.847827 0.010212 0.185763
H51   H     H_    0.308569 0.848041 0.922231 0.214691
H52   H     H_    0.264876 0.524435 0.934207 0.158596
H53   H     H_    0.282471 0.516487 0.018328 0.157655
C74   C     C_3   0.697495 0.379112 0.032248 -0.347747
C75   C     C_3   0.724423 0.507041 0.976880 -0.324727
C76   C     C_3   0.787219 0.437245 0.949289 -0.765836
H54   H     H_    0.820430 0.425839 0.990161 0.236750
H55   H     H_    0.781875 0.299862 0.925464 0.225921
H56   H     H_    0.806392 0.535197 0.910940 0.218879
H57   H     H_    0.692644 0.517859 0.934644 0.203460
H58   H     H_    0.730337 0.647810 0.997919 0.193043
H59   H     H_    0.729789 0.384511 0.073867 0.175084
H60   H     H_    0.698669 0.232317 0.016338 0.164142
C77   C     C_3   0.076419 0.024852 0.312942 -0.379640
C78   C     C_3   0.119499 0.855921 0.305773 -0.296845
C79   C     C_3   0.133808 0.808909 0.232112 -0.783424
H61   H     H_    0.090413 0.773241 0.206798 0.229824
H62   H     H_    0.156601 0.927781 0.205938 0.231661
H63   H     H_    0.165636 0.688412 0.228654 0.215995
H64   H     H_    0.164120 0.883261 0.329955 0.189756
H65   H     H_    0.097053 0.734599 0.330853 0.199435
H66   H     H_    0.036054 0.995317 0.281734 0.183755
H67   H     H_    0.101031 0.149368 0.292970 0.168829
C80   C     C_3   0.953018 0.607654 0.639803 -0.376221
C81   C     C_3   0.944593 0.423826 0.601881 -0.282424
C82   C     C_3   0.907305 0.285083 0.644708 -0.788643
H68   H     H_    0.927083 0.270506 0.694844 0.239464
H69   H     H_    0.858299 0.331561 0.651223 0.222647
H70   H     H_    0.908000 0.148652 0.619570 0.229510
H71   H     H_    0.920176 0.442842 0.554378 0.196304
H72   H     H_    0.991035 0.364404 0.588269 0.192306
H73   H     H_    0.994631 0.588548 0.669921 0.163998
H74   H     H_    0.912572 0.634142 0.674976 0.178403
C83   C     C_3   0.423582 0.524775 0.187068 -0.379642
C84   C     C_3   0.380506 0.355829 0.194239 -0.296847
C85   C     C_3   0.366202 0.308811 0.267899 -0.783423
H75   H     H_    0.409599 0.273161 0.293210 0.229823
H76   H     H_    0.343408 0.427675 0.294077 0.231658
H77   H     H_    0.334377 0.188302 0.271358 0.215997
H78   H     H_    0.335882 0.383153 0.170060 0.189754
H79   H     H_    0.402952 0.234514 0.169155 0.199436
H80   H     H_    0.463949 0.495256 0.218274 0.183755
H81   H     H_    0.398968 0.649283 0.207043 0.168830
C86   C     C_3   0.546973 0.107769 0.860150 -0.376171
C87   C     C_3   0.555341 0.923875 0.898050 -0.282372
C88   C     C_3   0.592839 0.785360 0.855332 -0.788705
H82   H     H_    0.573284 0.770907 0.805078 0.239423
H83   H     H_    0.641852 0.831970 0.849084 0.222649
H84   H     H_    0.592071 0.648836 0.880404 0.229502
H85   H     H_    0.579564 0.942868 0.945676 0.196370
H86   H     H_    0.508883 0.864243 0.911445 0.192167
H87   H     H_    0.505374 0.088776 0.829999 0.163870
H88   H     H_    0.587438 0.134251 0.825003 0.178428

loop_
_geom_bond_atom_site_label_1
_geom_bond_atom_site_label_2
_ccdc_geom_bond_type
C81   H71   S    
C34   C38   A    
C73   H49   S    
C43   C47   T    
C80   C81   S    
O1    C5    A    
C58   H12   S    
C39   C83   S    
O19   V1    S    
O13   V1    S    
O3    C7    A    
C62   C63   S    
C1    C44   S    
C65   H39   S    
C44   C48   T    
O15   V3    S    
C77   C78   S    
C3    C42   S    
C57   H16   S    
C67   H33   S    
C82   H68   S    
O7    C3    A    
C38   C80   S    
C21   C33   A    
O5    C1    A    
C59   C60   S    
C37   C77   S    
C62   H31   S    
C79   H62   S    
C86   H87   S    
C14   C18   A    
C85   H76   S    
C63   H29   S    
O4    C8    A    
C54   H9    S    
C67   H34   S    
C69   H44   S    
C54   H8    S    
C83   C84   S    
O1    V3    S    
C57   H15   S    
O2    V4    S    
C18   C22   A    
C17   C65   S    
C66   H36   S    
O3    V1    S    
C10   C56   S    
C68   H46   S    
C35   H3    S    
C84   C85   S    
C83   H80   S    
C1    O15   A    
C79   H61   S    
C2    O16   A    
C69   C70   S    
C88   H83   S    
C42   C46   T    
C70   H42   S    
C74   C75   S    
C41   C45   T    
C18   C68   S    
O14   V2    S    
C87   H86   S    
C56   H18   S    
C76   H55   S    
C19   C23   A    
C16   C20   A    
C88   H82   S    
C64   H28   S    
C77   H66   S    
C2    C43   S    
O11   C7    A    
O12   C8    A    
C22   C34   A    
C66   H37   S    
C80   H73   S    
O10   V2    S    
C78   H64   S    
C63   C64   S    
C34   H2    S    
C71   H53   S    
C24   C36   A    
O5    V1    S    
C66   C67   S    
C82   H69   S    
C9    C29   A    
C75   H58   S    
C20   C74   S    
O7    V3    S    
C11   C31   A    
C27   C28   A    
O8    V4    S    
C72   H51   S    
C12   C16   A    
C79   H63   S    
C86   H88   S    
C85   H77   S    
C65   H38   S    
C56   C57   S    
O18   V4    S    
C67   H35   S    
C15   C19   A    
C59   H25   S    
C49   C50   T    
O11   V3    S    
C53   C54   S    
C86   C87   S    
C62   H32   S    
C74   H59   S    
C11   C15   A    
C85   H75   S    
O2    C6    A    
C12   C32   A    
C83   H81   S    
C55   H5    S    
C21   C25   A    
O8    C4    A    
C88   H84   S    
C31   C40   A    
C12   C62   S    
C8    C13   S    
C32   C39   A    
O9    C5    A    
C60   H22   S    
C61   H20   S    
C84   H79   S    
C87   H85   S    
C76   H56   S    
C60   H23   S    
C65   C66   S    
C78   H65   S    
C53   H11   S    
C81   H72   S    
C55   H6    S    
C4    C41   S    
C9    C53   S    
C10   C30   A    
C58   H14   S    
C70   H40   S    
C25   C26   A    
C80   H74   S    
C19   C71   S    
O12   V4    S    
C77   H67   S    
C68   C69   S    
C40   C86   S    
C81   C82   S    
O17   V3    S    
C64   H26   S    
O16   V4    S    
C82   H70   S    
O9    V1    S    
C73   H48   S    
C75   H57   S    
C3    O13   A    
C45   C49   S    
O6    V2    S    
C10   C14   A    
C72   H50   S    
C48   C52   S    
C33   H1    S    
C11   C59   S    
O6    C2    A    
C23   C27   A    
C33   C37   A    
C30   C37   A    
C78   C79   S    
C7    C14   S    
C22   C26   A    
C35   C39   A    
C36   C40   A    
C74   H60   S    
O10   C6    A    
O20   V2    S    
C73   H47   S    
C69   H43   S    
C53   H10   S    
C26   C30   A    
C71   C72   S    
C87   C88   S    
C63   H30   S    
C71   H52   S    
C5    C16   S    
C47   C51   S    
C25   C29   A    
C6    C15   S    
C57   C58   S    
C61   H21   S    
C27   C31   A    
C84   H78   S    
C13   C17   A    
C60   C61   S    
C9    C13   A    
C68   H45   S    
C23   C35   A    
C51   C52   T    
C28   C32   A    
C24   C28   A    
C55   H7    S    
C75   C76   S    
C36   H4    S    
C29   C38   A    
C58   H13   S    
C54   C55   S    
C46   C50   S    
C4    O14   A    
C61   H19   S    
C70   H41   S    
C17   C21   A    
C72   C73   S    
C56   H17   S    
C76   H54   S    
C59   H24   S    
O4    V2    S    
C20   C24   A    
C64   H27   S    
