data_mof_unit_5062.cif
_audit_creation_date              2012-12-10T16:54:53-0500
_audit_creation_method            fapswitch 2.2
_symmetry_space_group_name_H-M    P1
_symmetry_Int_Tables_number       1
_space_group_crystal_system       triclinic
_cell_length_a                    7.77241
_cell_length_b                    8.577371
_cell_length_c                    15.720544
_cell_angle_alpha                 90.831376
_cell_angle_beta                  85.864606
_cell_angle_gamma                 93.63153
_cell_volume                      1043.15941254

loop_
_atom_site_label
_atom_site_type_symbol
_atom_type_description
_atom_site_fract_x
_atom_site_fract_y
_atom_site_fract_z
_atom_type_partial_charge
C1    C     C_R   0.545766 0.794723 0.497799 0.960395
C2    C     C_2   0.430145 0.041796 0.503403 -0.382129
C3    C     C_R   0.502026 0.500017 0.661592 0.905254
C4    C     C_R   0.454232 0.205275 0.502177 0.960941
C5    C     C_R   0.497966 0.500095 0.338413 0.906361
C6    C     C_3   0.351288 0.600106 0.954084 -0.386356
C7    C     C_3   0.674232 0.578920 0.946724 -0.402786
C8    C     C_3   0.672636 0.574976 0.044823 -0.394346
C9    C     C_1   0.493875 0.502320 0.249695 -0.184363
C10   C     C_3   0.501862 0.503709 0.917287 0.329709
C11   C     C_3   0.344522 0.601518 0.052855 -0.041387
C12   C     C_3   0.494444 0.506600 0.082859 0.325126
C13   C     C_3   0.468425 0.336357 0.049423 -0.438272
C14   C     C_3   0.474561 0.334673 0.951092 -0.404836
C15   C     C_1   0.492815 0.504474 0.174408 -0.132660
C16   C     C_1   0.506039 0.501767 0.825720 -0.117143
C17   C     C_1   0.506185 0.500595 0.750351 -0.182006
C18   C     C_2   0.569850 0.958201 0.496532 -0.381990
H1    H     H_    0.226320 0.548349 0.932772 0.147649
H2    H     H_    0.693214 0.702083 0.924852 0.166554
H3    H     H_    0.703832 0.694000 0.070489 0.162661
H4    H     H_    0.776490 0.501130 0.063257 0.170411
H5    H     H_    0.351728 0.278386 0.929786 0.169337
H6    H     H_    0.581716 0.263628 0.925112 0.173746
H7    H     H_    0.341886 0.282391 0.075562 0.168064
H8    H     H_    0.335021 0.762823 0.152208 0.192798
H9    H     H_    0.463536 0.824012 0.066007 0.191653
H10   H     H_    0.219087 0.541960 0.076788 0.143396
H11   H     H_    0.570914 0.263956 0.070796 0.177742
H12   H     H_    0.701804 0.009236 0.489978 0.180679
H13   H     H_    0.298191 0.990761 0.509952 0.180605
H14   H     H_    0.013413 0.381959 0.436578 0.191827
H15   H     H_    0.986588 0.618045 0.563420 0.191833
H16   H     H_    0.368000 0.721207 0.928830 0.176265
H17   H     H_    0.785026 0.514971 0.918241 0.170077
N1    N     N_2   0.950340 0.457950 0.477370 -0.173477
N2    N     N_2   0.049660 0.542050 0.522630 -0.173460
N3    N     N_3   0.347225 0.762972 0.085567 -0.473939
O1    O     O_R   0.389240 0.738570 0.505550 -0.613112
O2    O     O_R   0.678400 0.711630 0.491050 -0.631026
O3    O     O_R   0.355360 0.513470 0.630110 -0.613262
O4    O     O_R   0.644510 0.486530 0.615610 -0.621969
O5    O     O_R   0.321600 0.288370 0.508950 -0.630988
O6    O     O_R   0.610760 0.261430 0.494450 -0.612994
O7    O     O_R   0.355490 0.513470 0.384390 -0.623090
O8    O     O_R   0.644640 0.486530 0.369890 -0.612572
Zn1   Zn    Zn3+2 0.306930 0.517990 0.509680 0.942231
Zn2   Zn    Zn3+2 0.693070 0.482010 0.490320 0.942850

loop_
_geom_bond_atom_site_label_1
_geom_bond_atom_site_label_2
_ccdc_geom_bond_type
C14   H5    S    
C6    C10   S    
C11   N3    S    
C8    H4    S    
C11   C12   S    
C3    O4    A    
C5    C9    S    
C18   H12   S    
C4    O5    A    
N2    Zn1   S    
C5    O8    A    
C2    H13   S    
C2    C4    S    
C12   C15   S    
C8    C12   S    
H8    N3    S    
C8    H3    S    
O3    Zn1   S    
C7    C8    S    
O4    Zn2   S    
C13   C14   S    
C6    H1    S    
C13   H7    S    
C1    C18   S    
C5    O7    A    
C11   H10   S    
H14   N1    S    
C13   H11   S    
N1    N2    D    
C3    C17   S    
N1    Zn2   S    
O7    Zn1   S    
C9    C15   T    
O8    Zn2   S    
C2    C18   D    
C1    O1    A    
H9    N3    S    
C6    H16   S    
C7    H17   S    
C12   C13   S    
O1    Zn1   S    
C7    H2    S    
C10   C14   S    
C7    C10   S    
C14   H6    S    
C6    C11   S    
O2    Zn2   S    
C3    O3    A    
C10   C16   S    
C4    O6    A    
C1    O2    A    
O5    Zn1   S    
H15   N2    S    
O6    Zn2   S    
C16   C17   T    
