data_mof_unit_39804.cif
_audit_creation_date              2012-12-10T18:23:57-0500
_audit_creation_method            fapswitch 2.2
_symmetry_space_group_name_H-M    P1
_symmetry_Int_Tables_number       1
_space_group_crystal_system       triclinic
_cell_length_a                    15.705848
_cell_length_b                    14.955262
_cell_length_c                    14.139961
_cell_angle_alpha                 90.289765
_cell_angle_beta                  89.997212
_cell_angle_gamma                 89.847138
_cell_volume                      3321.21145419

loop_
_atom_site_label
_atom_site_type_symbol
_atom_type_description
_atom_site_fract_x
_atom_site_fract_y
_atom_site_fract_z
_atom_type_partial_charge
C1    C     C_R   0.499381 0.326758 0.499838 0.871516
C2    C     C_R   0.498196 0.673144 0.499949 0.879261
C3    C     C_R   0.493312 0.768800 0.498511 -0.091344
C4    C     C_R   0.496987 0.230885 0.499447 -0.082213
C5    C     C_R   0.525381 0.814050 0.420105 -0.225890
C6    C     C_R   0.462884 0.185990 0.577134 -0.223224
C7    C     C_R   0.523863 0.906344 0.418516 0.102429
C8    C     C_R   0.459490 0.093461 0.576498 0.102802
C9    C     C_R   0.489947 0.953316 0.496735 0.064936
C10   C     C_R   0.491496 0.046290 0.497394 0.063999
C11   C     C_R   0.455583 0.907273 0.574777 0.113086
C12   C     C_R   0.525955 0.092095 0.419318 0.114367
C13   C     C_R   0.557250 0.952244 0.340967 -0.218145
C14   C     C_R   0.424953 0.047437 0.653429 -0.215565
C15   C     C_R   0.558151 0.045062 0.341286 -0.214499
C16   C     C_R   0.422736 0.954466 0.652425 -0.224228
C17   C     C_R   0.491252 0.578705 0.800414 0.438251
C18   C     C_R   0.524974 0.424933 0.200260 0.467829
C19   C     C_R   0.516827 0.422178 0.798614 0.439189
C20   C     C_R   0.470974 0.573817 0.201925 0.437818
C21   C     C_R   0.512225 0.419493 0.899156 -0.086320
C22   C     C_R   0.474480 0.576781 0.101461 -0.092753
C23   C     C_R   0.338001 0.500187 0.499956 0.883199
C24   C     C_R   0.661979 0.499790 0.500016 0.872538
C25   C     C_R   0.494040 0.498234 0.949907 0.022053
C26   C     C_R   0.494083 0.498350 0.050678 0.011096
C27   C     C_R   0.481177 0.578097 0.900293 -0.085858
C28   C     C_R   0.516022 0.420624 0.100483 -0.062546
C29   C     C_R   0.527387 0.340300 0.950132 -0.194707
C30   C     C_R   0.459105 0.655992 0.050779 -0.187823
C31   C     C_R   0.530383 0.341127 0.049207 -0.165493
C32   C     C_R   0.463678 0.656905 0.951772 -0.172171
C33   C     C_3   0.972283 0.457780 0.578573 -0.325086
C34   C     C_3   0.027630 0.541844 0.420310 -0.323783
C35   C     C_3   0.028352 0.416909 0.500058 0.587014
C36   C     C_3   0.971544 0.582708 0.498826 0.584000
C37   C     C_1   0.249066 0.500682 0.499797 -0.177674
C38   C     C_1   0.750878 0.499144 0.499949 -0.200917
C39   C     C_3   0.027660 0.543663 0.577891 -0.321313
C40   C     C_3   0.972220 0.455960 0.420989 -0.323612
C41   C     C_3   0.082853 0.501173 0.499398 0.075750
C42   C     C_3   0.917057 0.498445 0.499507 0.077364
C43   C     C_1   0.173737 0.501016 0.499557 0.002127
C44   C     C_1   0.826192 0.498685 0.499746 -0.004644
C45   C     C_R   0.456250 0.814667 0.574324 -0.268775
C46   C     C_R   0.528142 0.184388 0.420919 -0.263899
H1    H     H_    0.543997 0.279122 0.085453 0.184758
H2    H     H_    0.453346 0.719635 0.915519 0.173634
H3    H     H_    0.429659 0.778341 0.633518 0.202493
H4    H     H_    0.555186 0.219787 0.361638 0.202584
H5    H     H_    0.553213 0.777469 0.361231 0.184407
H6    H     H_    0.438228 0.223034 0.637389 0.189864
N1    N     N_R   0.500040 0.500070 0.750030 -0.187830
N2    N     N_R   0.499960 0.499930 0.249970 -0.191245
O1    O     O_R   0.500020 0.367860 0.580280 -0.562104
O2    O     O_R   0.499980 0.632140 0.419720 -0.565002
O3    O     O_R   0.500020 0.367840 0.419730 -0.583437
O4    O     O_R   0.499980 0.632160 0.580270 -0.568335
O5    O     O_R   0.376770 0.500000 0.580260 -0.606600
O6    O     O_R   0.623230 0.500000 0.419740 -0.637437
O7    O     O_R   0.376780 0.499980 0.419710 -0.618087
O8    O     O_R   0.623220 0.500020 0.580290 -0.633173
Zn1   Zn    Zn3+2 0.499990 0.500020 0.607200 0.994413
Zn2   Zn    Zn3+2 0.500010 0.499980 0.392800 0.988958
O9    O     O_3   0.065672 0.331013 0.500697 -0.602761
C47   C     C_3   0.001009 0.265781 0.501161 0.093891
H7    H     H_    0.960511 0.270943 0.436793 0.132825
H8    H     H_    0.960431 0.272442 0.565384 0.132458
C48   C     C_3   0.041662 0.173375 0.501899 -0.807179
H9    H     H_    0.081820 0.165532 0.565997 0.257761
H10   H     H_    0.991332 0.121354 0.502269 0.200292
H11   H     H_    0.081885 0.164037 0.437977 0.258764
O10   O     O_3   0.934148 0.668567 0.498229 -0.605939
C49   C     C_3   0.998739 0.733863 0.497341 0.094679
H12   H     H_    0.038880 0.727328 0.432767 0.133783
H13   H     H_    0.039681 0.728659 0.561358 0.135036
C50   C     C_3   0.957977 0.826223 0.497095 -0.813912
H14   H     H_    0.918153 0.835404 0.561350 0.256145
H15   H     H_    0.008243 0.878307 0.496418 0.202855
H16   H     H_    0.917397 0.834119 0.433333 0.257215
H17   H     H_    0.538753 0.277566 0.913653 0.174045
H18   H     H_    0.445773 0.718170 0.087512 0.170253
H19   H     H_    0.947558 0.422882 0.641962 0.150276
H20   H     H_    0.052383 0.576738 0.356931 0.150346
H21   H     H_    0.947430 0.419617 0.358165 0.150611
H22   H     H_    0.052371 0.580039 0.640727 0.154017
H23   H     H_    0.583156 0.916398 0.280639 0.149531
H24   H     H_    0.400091 0.083281 0.714286 0.151526
H25   H     H_    0.584563 0.080015 0.281107 0.147156
H26   H     H_    0.396407 0.919495 0.712619 0.149405
O11   O     O_3   0.505512 0.659420 0.756353 -0.594956
C51   C     C_3   0.593375 0.679354 0.766362 0.107197
H27   H     H_    0.633071 0.629331 0.727622 0.155341
H28   H     H_    0.613027 0.680062 0.842133 0.122312
C52   C     C_3   0.612593 0.771542 0.726904 -0.816520
H29   H     H_    0.565739 0.821251 0.753862 0.256332
H30   H     H_    0.677419 0.792506 0.748994 0.204799
H31   H     H_    0.611070 0.769692 0.648615 0.258240
O12   O     O_3   0.558069 0.352264 0.247545 -0.612338
C53   C     C_3   0.646451 0.364714 0.263241 0.162530
H32   H     H_    0.660176 0.348112 0.338151 0.165435
H33   H     H_    0.669663 0.434395 0.251602 0.132295
C54   C     C_3   0.698074 0.300647 0.201734 -0.964901
H34   H     H_    0.694059 0.320694 0.126439 0.257449
H35   H     H_    0.765956 0.302478 0.223624 0.226256
H36   H     H_    0.673970 0.231329 0.209675 0.261179
O13   O     O_3   0.543944 0.347171 0.749823 -0.585760
C55   C     C_3   0.634090 0.345426 0.750424 0.113897
H37   H     H_    0.658805 0.333560 0.823009 0.117153
H38   H     H_    0.661465 0.409186 0.724079 0.149324
C56   C     C_3   0.665813 0.269642 0.687313 -0.812949
H39   H     H_    0.649695 0.283244 0.612387 0.247045
H40   H     H_    0.736092 0.263732 0.693414 0.192758
H41   H     H_    0.636393 0.205464 0.708970 0.256923
O14   O     O_3   0.440242 0.646409 0.252166 -0.585432
C57   C     C_3   0.350215 0.644441 0.250510 0.123267
H42   H     H_    0.324802 0.577262 0.269033 0.151553
H43   H     H_    0.325924 0.662923 0.179368 0.122076
C58   C     C_3   0.315554 0.711887 0.321774 -0.806309
H44   H     H_    0.340853 0.779560 0.306385 0.256708
H45   H     H_    0.244960 0.713779 0.317707 0.190673
H46   H     H_    0.334271 0.692542 0.394542 0.249343

loop_
_geom_bond_atom_site_label_1
_geom_bond_atom_site_label_2
_ccdc_geom_bond_type
C7    C13   A    
C47   H8    S    
C42   C44   S    
C16   H26   S    
O7    Zn2   S    
C41   C43   S    
O10   C49   S    
C36   C42   S    
C52   H29   S    
C17   O11   S    
C52   H31   S    
C39   C41   S    
C4    C46   A    
C50   H14   S    
C57   H42   S    
C23   O5    A    
C33   C39   S    
C36   C39   S    
C49   H13   S    
C34   C40   S    
C33   C42   S    
C19   C21   A    
C50   H16   S    
C47   C48   S    
C35   O9    S    
O14   C57   S    
C55   H37   S    
C48   H10   S    
C51   H27   S    
C56   H40   S    
C56   H39   S    
C57   H43   S    
C49   C50   S    
O1    Zn1   S    
C24   C38   S    
O13   C55   S    
O2    Zn2   S    
C56   H41   S    
C9    C10   A    
C19   N1    A    
C40   C42   S    
C47   H7    S    
C31   H1    S    
C24   O8    A    
C32   H2    S    
C34   C41   S    
C34   H20   S    
C53   H33   S    
C58   H45   S    
C49   H12   S    
C17   C27   A    
C18   C28   A    
C12   C46   A    
O11   C51   S    
C5    C7    A    
C6    C8    A    
C25   C26   A    
C23   C37   S    
C21   C29   A    
C3    C45   A    
C53   C54   S    
C40   H21   S    
C30   H18   S    
C48   H11   S    
C38   C44   T    
O8    Zn1   S    
C1    O3    A    
C15   H25   S    
C33   H19   S    
C11   C16   A    
O12   C53   S    
C12   C15   A    
C45   H3    S    
C24   O6    A    
C13   H23   S    
C51   H28   S    
C50   H15   S    
C54   H35   S    
C55   C56   S    
C9    C11   A    
C10   C12   A    
C20   N2    A    
C20   C22   A    
C29   H17   S    
C13   C15   A    
C14   C16   A    
C37   C43   T    
C11   C45   A    
C4    C6    A    
C18   O12   S    
C17   N1    A    
O3    Zn2   S    
C58   H46   S    
O4    Zn1   S    
C7    C9    A    
C21   C25   A    
C52   H30   S    
C8    C14   A    
C22   C30   A    
C27   C32   A    
C26   C28   A    
C28   C31   A    
C3    C5    A    
C20   O14   S    
C58   H44   S    
C2    O4    A    
C25   C27   A    
C46   H4    S    
O5    Zn1   S    
C57   C58   S    
O6    Zn2   S    
C1    C4    S    
C2    C3    S    
C1    O1    A    
C14   H24   S    
C29   C31   A    
C2    O2    A    
C30   C32   A    
N1    Zn1   S    
N2    Zn2   S    
C53   H32   S    
C33   C35   S    
C55   H38   S    
C35   C40   S    
C54   H36   S    
C34   C36   S    
C51   C52   S    
C48   H9    S    
C35   C41   S    
C36   O10   S    
C18   N2    A    
C23   O7    A    
C8    C10   A    
O9    C47   S    
C22   C26   A    
C54   H34   S    
C5    H5    S    
C39   H22   S    
C6    H6    S    
C19   O13   S    
