data_mof_unit_31260.cif
_audit_creation_date              2012-12-10T17:36:34-0500
_audit_creation_method            fapswitch 2.2
_symmetry_space_group_name_H-M    P1
_symmetry_Int_Tables_number       1
_space_group_crystal_system       triclinic
_cell_length_a                    12.129633
_cell_length_b                    12.691336
_cell_length_c                    15.686348
_cell_angle_alpha                 91.819791
_cell_angle_beta                  87.992725
_cell_angle_gamma                 96.35225
_cell_volume                      2397.5326581

loop_
_atom_site_label
_atom_site_type_symbol
_atom_type_description
_atom_site_fract_x
_atom_site_fract_y
_atom_site_fract_z
_atom_type_partial_charge
C1    C     C_R   0.524655 0.700488 0.497745 0.912832
C2    C     C_R   0.532919 0.025774 0.466629 -0.010603
C3    C     C_R   0.943324 0.402231 0.417515 -0.332797
C4    C     C_R   0.056676 0.597768 0.582486 -0.332797
C5    C     C_R   0.830503 0.412326 0.425671 -0.011156
C6    C     C_R   0.169496 0.587672 0.574330 -0.011156
C7    C     C_R   0.863378 0.541115 0.538547 0.248824
C8    C     C_R   0.136621 0.458885 0.461453 0.248824
C9    C     C_R   0.979780 0.535232 0.530814 0.056966
C10   C     C_R   0.020220 0.464767 0.469186 0.056965
C11   C     C_R   0.501625 0.500515 0.661654 0.896437
C12   C     C_R   0.475345 0.299512 0.502255 0.912830
C13   C     C_R   0.498375 0.499485 0.338347 0.896443
C14   C     C_3   0.394861 0.494390 0.028000 0.234662
C15   C     C_3   0.605142 0.505610 0.972000 0.234667
C16   C     C_3   0.453492 0.585032 0.974218 -0.209927
C17   C     C_3   0.546513 0.414967 0.025782 -0.209922
C18   C     C_1   0.504808 0.500766 0.750537 -0.189309
C19   C     C_1   0.495192 0.499233 0.249463 -0.189307
C20   C     C_3   0.443376 0.409952 0.969383 -0.213467
C21   C     C_3   0.556626 0.590047 0.030618 -0.213467
C22   C     C_3   0.503211 0.500650 0.916950 0.118689
C23   C     C_R   0.618795 0.974396 0.424615 0.184321
C24   C     C_3   0.496792 0.499349 0.083051 0.118688
C25   C     C_1   0.505278 0.500886 0.825924 -0.078448
C26   C     C_1   0.494724 0.499113 0.174077 -0.078449
C27   C     C_R   0.454847 0.186088 0.505639 -0.112271
C28   C     C_R   0.545151 0.813911 0.494361 -0.112273
C29   C     C_3   0.275401 0.487500 0.063329 -0.420334
C30   C     C_3   0.193083 0.486769 0.991973 -0.871063
C31   C     C_3   0.724604 0.512524 0.936672 -0.420334
C32   C     C_3   0.806925 0.513291 0.008028 -0.871072
C33   C     C_3   0.530913 0.168617 0.355307 -0.946375
C34   C     C_R   0.381203 0.025604 0.575387 0.184321
C35   C     C_3   0.469085 0.831381 0.644694 -0.946373
C36   C     C_3   0.329726 0.201997 0.637901 -0.868607
C37   C     C_3   0.670275 0.798004 0.362102 -0.868615
C38   C     C_3   0.723114 0.037157 0.386984 -0.397245
C39   C     C_3   0.828244 0.012854 0.430272 -0.865443
C40   C     C_3   0.276884 0.962844 0.613020 -0.397245
C41   C     C_3   0.171753 0.987145 0.569733 -0.865440
C42   C     C_3   0.181637 0.387070 0.392649 -0.383209
C43   C     C_3   0.181846 0.434903 0.304196 -0.867800
C44   C     C_3   0.818363 0.612929 0.607351 -0.383209
C45   C     C_R   0.611305 0.863337 0.428176 0.115182
C46   C     C_3   0.818152 0.565096 0.695804 -0.867800
C47   C     C_R   0.388693 0.136663 0.571826 0.115182
C48   C     C_R   0.489470 0.872925 0.555071 0.106994
C49   C     C_R   0.510527 0.127073 0.444930 0.106991
C50   C     C_R   0.467078 0.974225 0.533373 -0.010605
H1    H     H_    0.415272 0.653973 0.951189 0.141666
H2    H     H_    0.200372 0.417641 0.947717 0.259829
H3    H     H_    0.107266 0.481040 0.019809 0.249580
H4    H     H_    0.257149 0.413663 0.099746 0.205001
H5    H     H_    0.266149 0.556430 0.107413 0.210606
H6    H     H_    0.799537 0.582357 0.052330 0.259837
H7    H     H_    0.791484 0.439032 0.044241 0.257519
H8    H     H_    0.892747 0.519156 0.980195 0.249581
H9    H     H_    0.733877 0.443594 0.892592 0.210604
H10   H     H_    0.742832 0.586358 0.900249 0.205001
H11   H     H_    0.598700 0.234837 0.353654 0.244197
H12   H     H_    0.584733 0.346027 0.048812 0.141674
H13   H     H_    0.550592 0.105389 0.308604 0.242169
H14   H     H_    0.454244 0.198496 0.333482 0.234984
H15   H     H_    0.545752 0.801496 0.666516 0.234981
H16   H     H_    0.449413 0.894610 0.691398 0.242170
H17   H     H_    0.401294 0.765164 0.646349 0.244195
H18   H     H_    0.292061 0.154488 0.691546 0.231860
H19   H     H_    0.390017 0.264416 0.666299 0.227801
H20   H     H_    0.263218 0.239964 0.607880 0.254640
H21   H     H_    0.707943 0.845513 0.308457 0.231862
H22   H     H_    0.736783 0.760039 0.392124 0.254641
H23   H     H_    0.603234 0.663040 0.057583 0.142174
H24   H     H_    0.609986 0.735584 0.333702 0.227803
H25   H     H_    0.818786 0.024264 0.500565 0.262163
H26   H     H_    0.847036 0.930708 0.415362 0.266933
H27   H     H_    0.900049 0.067715 0.407206 0.241834
H28   H     H_    0.730809 0.022336 0.317056 0.195349
H29   H     H_    0.721157 0.123498 0.397690 0.226532
H30   H     H_    0.152959 0.069290 0.584644 0.266932
H31   H     H_    0.181211 0.975735 0.499439 0.262163
H32   H     H_    0.099950 0.932282 0.592799 0.241832
H33   H     H_    0.278841 0.876503 0.602316 0.226531
H34   H     H_    0.396763 0.336962 0.942419 0.142180
H35   H     H_    0.269190 0.977667 0.682948 0.195349
H36   H     H_    0.096412 0.438475 0.282501 0.249311
H37   H     H_    0.225419 0.516567 0.304782 0.279357
H38   H     H_    0.225320 0.385234 0.257353 0.239220
H39   H     H_    0.265649 0.370867 0.404970 0.264834
H40   H     H_    0.134493 0.307012 0.392784 0.164841
H41   H     H_    0.774579 0.483431 0.695217 0.279358
H42   H     H_    0.903586 0.561523 0.717499 0.249311
H43   H     H_    0.774679 0.614764 0.742647 0.239219
H44   H     H_    0.865508 0.692987 0.607216 0.164840
H45   H     H_    0.227171 0.635070 0.614900 0.137652
H46   H     H_    0.734351 0.629133 0.595029 0.264833
H47   H     H_    0.772829 0.364929 0.385101 0.137653
H48   H     H_    0.967820 0.345104 0.370200 0.162329
H49   H     H_    0.032179 0.654894 0.629802 0.162328
H50   H     H_    0.208623 0.560983 0.955711 0.257523
N1    N     N_R   0.207800 0.519340 0.515560 -0.118748
N2    N     N_R   0.792200 0.480660 0.484440 -0.118748
O1    O     O_R   0.421700 0.658830 0.504150 -0.609594
O2    O     O_R   0.578300 0.341170 0.495850 -0.609596
O3    O     O_R   0.609310 0.646410 0.494170 -0.645243
O4    O     O_R   0.390690 0.353590 0.505830 -0.645243
O5    O     O_R   0.406210 0.506220 0.628210 -0.614626
O6    O     O_R   0.593790 0.493780 0.371790 -0.614630
O7    O     O_R   0.593830 0.493800 0.618230 -0.621213
O8    O     O_R   0.406170 0.506200 0.381770 -0.621216
Zn1   Zn    Zn3+2 0.374730 0.508290 0.506660 0.920189
Zn2   Zn    Zn3+2 0.625270 0.491710 0.493340 0.920188

loop_
_geom_bond_atom_site_label_1
_geom_bond_atom_site_label_2
_ccdc_geom_bond_type
C31   H10   S    
C37   H24   S    
C11   C18   S    
C16   C21   S    
C23   C45   A    
C21   H23   S    
C11   O7    A    
N2    Zn2   S    
C16   H1    S    
C32   H8    S    
C41   H30   S    
C4    H49   S    
C13   O8    A    
C34   C40   S    
C43   H38   S    
C39   H27   S    
C24   C26   S    
C12   O2    A    
C38   C39   S    
C46   H42   S    
C38   H29   S    
C35   H15   S    
C14   C24   S    
C30   H50   S    
C17   C20   S    
C36   C47   S    
O1    Zn1   S    
C6    N1    A    
C31   H9    S    
C19   C26   T    
O8    Zn1   S    
C2    C50   A    
C15   C22   S    
C36   H20   S    
C22   C25   S    
C1    C28   S    
C39   H25   S    
C9    C10   A    
C1    O1    A    
C48   C50   A    
C40   H33   S    
C18   C25   T    
C32   H7    S    
C13   O6    A    
C35   C48   S    
C44   C46   S    
O4    Zn1   S    
C30   H3    S    
C28   C45   A    
C34   C50   A    
C17   C24   S    
C13   C19   S    
C12   C27   S    
C14   C20   S    
C4    C6    A    
O7    Zn2   S    
O2    Zn2   S    
C46   H41   S    
C29   H5    S    
C35   H16   S    
C7    C44   S    
C7    N2    A    
O6    Zn2   S    
C42   H40   S    
C40   H35   S    
C29   C30   S    
C44   H46   S    
C2    C49   A    
C17   H12   S    
C31   C32   S    
C35   H17   S    
C33   H13   S    
C41   H31   S    
C39   H26   S    
C33   H11   S    
C40   C41   S    
O3    Zn2   S    
C20   C22   S    
C20   H34   S    
C11   O5    A    
C14   C16   S    
C37   H22   S    
C42   C43   S    
C14   C29   S    
C37   C45   S    
C36   H19   S    
C8    N1    A    
C27   C47   A    
C15   C17   S    
C30   H2    S    
C5    N2    A    
C28   C48   A    
C16   C22   S    
C43   H36   S    
O5    Zn1   S    
C8    C42   S    
C3    C5    A    
C36   H18   S    
C15   C31   S    
N1    Zn1   S    
C23   C38   S    
C38   H28   S    
C42   H39   S    
C43   H37   S    
C37   H21   S    
C3    C10   A    
C12   O4    A    
C3    H48   S    
C46   H43   S    
C33   H14   S    
C41   H32   S    
C5    H47   S    
C44   H44   S    
C7    C9    A    
C15   C21   S    
C8    C10   A    
C6    H45   S    
C29   H4    S    
C21   C24   S    
C2    C23   A    
C34   C47   A    
C4    C9    A    
C33   C49   S    
C32   H6    S    
C27   C49   A    
C1    O3    A    
