data_mof_unit_50785.cif
_audit_creation_date              2012-12-10T17:31:22-0500
_audit_creation_method            fapswitch 2.2
_symmetry_space_group_name_H-M    P1
_symmetry_Int_Tables_number       1
_space_group_crystal_system       monoclinic
_cell_length_a                    19.054114
_cell_length_b                    18.43129
_cell_length_c                    12.366007
_cell_angle_alpha                 90.0
_cell_angle_beta                  129.134722
_cell_angle_gamma                 90.0
_cell_volume                      3368.58610204

loop_
_atom_site_label
_atom_site_type_symbol
_atom_type_description
_atom_site_fract_x
_atom_site_fract_y
_atom_site_fract_z
_atom_type_partial_charge
C1    C     C_R   0.612402 0.898324 0.653155 0.781426
C2    C     C_R   0.612351 0.101709 0.653073 0.782173
C3    C     C_R   0.112351 0.398291 0.653072 0.782174
C4    C     C_R   0.112402 0.601676 0.653155 0.781426
C5    C     C_R   0.243157 0.777871 0.035981 0.089268
C6    C     C_R   0.242046 0.220562 0.033388 0.079259
C7    C     C_R   0.742046 0.279437 0.033389 0.079260
C8    C     C_R   0.743157 0.722129 0.035982 0.089268
C9    C     C_R   0.660168 0.279212 0.013931 0.165613
C10   C     C_R   0.661263 0.722297 0.016507 0.162639
C11   C     C_R   0.161263 0.777703 0.016507 0.162639
C12   C     C_R   0.160168 0.220789 0.013932 0.165614
C13   C     C_R   0.583334 0.246231 0.896761 -0.237400
C14   C     C_R   0.584321 0.755035 0.899160 -0.234417
C15   C     C_R   0.084321 0.744965 0.899160 -0.234418
C16   C     C_R   0.083334 0.253769 0.896762 -0.237400
C17   C     C_R   0.587659 0.210215 0.802769 -0.195087
C18   C     C_R   0.588392 0.790541 0.804535 -0.190892
C19   C     C_R   0.088392 0.709459 0.804535 -0.190892
C20   C     C_R   0.087659 0.289785 0.802769 -0.195087
C21   C     C_R   0.318430 0.812764 0.154077 -0.207909
C22   C     C_R   0.317318 0.185718 0.151524 -0.240397
C23   C     C_R   0.817318 0.314281 0.151525 -0.240398
C24   C     C_R   0.818430 0.687236 0.154077 -0.207908
C25   C     C_R   0.231164 0.849540 0.225510 -0.189084
C26   C     C_R   0.230313 0.149495 0.223722 -0.187407
C27   C     C_R   0.730313 0.350505 0.223722 -0.187408
C28   C     C_R   0.731164 0.650459 0.225510 -0.189084
C29   C     C_R   0.678270 0.159183 0.741011 -0.101954
C30   C     C_R   0.678511 0.841026 0.741504 -0.100611
C31   C     C_R   0.178511 0.658975 0.741504 -0.100611
C32   C     C_R   0.178270 0.340816 0.741010 -0.101954
C33   C     C_R   0.683343 0.988244 0.286274 -0.286361
C34   C     C_R   0.183343 0.511756 0.286274 -0.286361
C35   C     C_R   0.343802 0.998982 0.624991 0.006869
C36   C     C_R   0.843802 0.501017 0.624991 0.006869
C37   C     C_R   0.307288 0.990441 0.692381 -0.110535
C38   C     C_R   0.807288 0.509559 0.692381 -0.110535
C39   C     C_R   0.384215 0.098673 0.342437 0.798401
C40   C     C_R   0.384469 0.901099 0.342841 0.800385
C41   C     C_R   0.884469 0.598901 0.342841 0.800385
C42   C     C_R   0.884215 0.401327 0.342437 0.798401
C43   C     C_R   0.364707 0.984486 0.839007 -0.056338
C44   C     C_R   0.864707 0.515514 0.839007 -0.056338
C45   C     C_R   0.460365 0.993508 0.919477 -0.076530
C46   C     C_R   0.960365 0.506492 0.919477 -0.076530
C47   C     C_R   0.493310 0.997707 0.842304 0.251182
C48   C     C_R   0.993310 0.502293 0.842304 0.251182
C49   C     C_R   0.525447 0.995405 0.071295 -0.045887
C50   C     C_R   0.025447 0.504595 0.071295 -0.045887
C51   C     C_R   0.619694 0.991144 0.139393 0.119239
C52   C     C_R   0.119694 0.508856 0.139393 0.119239
C53   C     C_R   0.649160 0.991408 0.060235 -0.084171
C54   C     C_R   0.149160 0.508593 0.060235 -0.084171
C55   C     C_R   0.587074 0.997255 0.916238 -0.200534
C56   C     C_R   0.087074 0.502745 0.916238 -0.200534
C57   C     C_R   0.502422 0.004064 0.160180 0.031743
C58   C     C_R   0.002422 0.495936 0.160180 0.031743
C59   C     C_R   0.654951 0.991621 0.365340 0.067216
C60   C     C_R   0.154951 0.508379 0.365340 0.067215
C61   C     C_R   0.655438 0.313623 0.110392 -0.186524
C62   C     C_R   0.656496 0.687775 0.112817 -0.185295
C63   C     C_R   0.156496 0.812225 0.112818 -0.185295
C64   C     C_R   0.155438 0.186378 0.110393 -0.186524
C65   C     C_R   0.311466 0.851384 0.243753 -0.049321
C66   C     C_R   0.310691 0.147754 0.242185 -0.047338
C67   C     C_R   0.810691 0.352246 0.242185 -0.047338
C68   C     C_R   0.811466 0.648616 0.243753 -0.049321
C69   C     C_R   0.755663 0.164127 0.751011 -0.177239
C70   C     C_R   0.755761 0.835894 0.751163 -0.176158
C71   C     C_R   0.255761 0.664107 0.751162 -0.176159
C72   C     C_R   0.255662 0.335872 0.751009 -0.177240
C73   C     C_R   0.326558 0.709445 0.848781 -0.146746
C74   C     C_R   0.326132 0.290082 0.847826 -0.144184
C75   C     C_R   0.826134 0.209916 0.847828 -0.144185
C76   C     C_R   0.826558 0.790555 0.848781 -0.146747
C77   C     C_R   0.323490 0.747640 0.942572 -0.159425
C78   C     C_R   0.322615 0.251207 0.940550 -0.174659
C79   C     C_R   0.822616 0.248791 0.940553 -0.174659
C80   C     C_R   0.823490 0.752360 0.942572 -0.159425
C81   C     C_R   0.746040 0.244472 0.934935 0.087896
C82   C     C_R   0.746966 0.756760 0.937082 0.094478
C83   C     C_R   0.246966 0.743240 0.937082 0.094478
C84   C     C_R   0.246040 0.255528 0.934934 0.087896
C85   C     C_R   0.670005 0.204051 0.825578 0.081164
C86   C     C_R   0.670652 0.796683 0.827070 0.079107
C87   C     C_R   0.170652 0.703317 0.827069 0.079107
C88   C     C_R   0.170005 0.295948 0.825577 0.081164
Cu1   Cu    Cu3+1 0.526340 0.000000 0.421010 0.943426
Cu2   Cu    Cu3+1 0.026340 0.500000 0.421010 0.943427
Cu3   Cu    Cu3+1 0.473640 0.000000 0.578990 0.920250
Cu4   Cu    Cu3+1 0.973640 0.500000 0.578990 0.920250
H1    H     H_    0.755231 0.983455 0.341065 0.155022
H2    H     H_    0.255232 0.516546 0.341065 0.155022
H3    H     H_    0.434963 0.016883 0.119896 0.148947
H4    H     H_    0.934963 0.483117 0.119895 0.148947
H5    H     H_    0.615408 0.000236 0.864827 0.211936
H6    H     H_    0.115408 0.499764 0.864827 0.211936
H7    H     H_    0.762898 0.131068 0.686126 0.151973
H8    H     H_    0.762662 0.868511 0.685461 0.149379
H9    H     H_    0.262661 0.631489 0.685460 0.149379
H10   H     H_    0.262897 0.368931 0.686125 0.151974
H11   H     H_    0.381353 0.781279 0.015776 0.131304
H12   H     H_    0.380200 0.217176 0.013110 0.125712
H13   H     H_    0.880202 0.282822 0.013113 0.125712
H14   H     H_    0.881354 0.718721 0.015777 0.131303
H15   H     H_    0.524804 0.188923 0.710396 0.175600
H16   H     H_    0.525360 0.811358 0.711794 0.175377
H17   H     H_    0.025360 0.688641 0.711794 0.175377
H18   H     H_    0.024804 0.311078 0.710397 0.175600
H19   H     H_    0.703889 0.988261 0.477806 0.120159
H20   H     H_    0.203889 0.511739 0.477806 0.120159
N1    N     N_R   0.566260 0.000000 0.302220 -0.184340
N2    N     N_R   0.066260 0.500000 0.302220 -0.184340
N3    N     N_R   0.434410 0.000000 0.697680 -0.206295
N4    N     N_R   0.934410 0.500000 0.697680 -0.206295
O1    O     O_R   0.608610 0.924520 0.551740 -0.582276
O2    O     O_R   0.608610 0.075480 0.551740 -0.578560
O3    O     O_R   0.108610 0.424520 0.551740 -0.578560
O4    O     O_R   0.108610 0.575480 0.551740 -0.582276
O5    O     O_R   0.564110 0.924510 0.685150 -0.600442
O6    O     O_R   0.564110 0.075490 0.685150 -0.601042
O7    O     O_R   0.064110 0.424510 0.685150 -0.601042
O8    O     O_R   0.064110 0.575490 0.685150 -0.600442
O9    O     O_R   0.435880 0.075470 0.314850 -0.585201
O10   O     O_R   0.435880 0.924530 0.314850 -0.570585
O11   O     O_R   0.935880 0.575470 0.314850 -0.570585
O12   O     O_R   0.935880 0.424530 0.314850 -0.585200
O13   O     O_R   0.391380 0.075460 0.448260 -0.594198
O14   O     O_R   0.391380 0.924540 0.448260 -0.595360
O15   O     O_R   0.891380 0.575460 0.448260 -0.595360
O16   O     O_R   0.891380 0.424540 0.448260 -0.594198
H21   H     H_    0.224896 0.879434 0.294465 0.151911
H22   H     H_    0.224207 0.119925 0.293136 0.149865
H23   H     H_    0.724207 0.380076 0.293135 0.149865
H24   H     H_    0.724896 0.620566 0.294465 0.151911
C89   C     C_1   0.744147 0.987833 0.124096 0.231448
N5    N     N_1   0.819960 0.984941 0.174794 -0.269386
C90   C     C_1   0.244148 0.512167 0.124096 0.231448
N6    N     N_1   0.319960 0.515060 0.174794 -0.269387
H25   H     H_    0.299521 0.001497 0.512251 0.135061
H26   H     H_    0.799521 0.498503 0.512251 0.135061
C91   C     C_1   0.323616 0.959813 0.898825 0.218511
N7    N     N_1   0.289676 0.939899 0.944794 -0.280376
C92   C     C_1   0.823616 0.540187 0.898825 0.218511
N8    N     N_1   0.789676 0.560101 0.944794 -0.280376
C93   C     C_1   0.209952 0.984836 0.607368 0.235201
N9    N     N_1   0.132114 0.980342 0.539367 -0.260930
C94   C     C_1   0.709952 0.515163 0.607368 0.235201
N10   N     N_1   0.632114 0.519657 0.539367 -0.260930
H27   H     H_    0.519461 0.248226 0.877517 0.136356
H28   H     H_    0.520468 0.753008 0.879988 0.136681
H29   H     H_    0.020468 0.746992 0.879989 0.136682
H30   H     H_    0.019461 0.251775 0.877519 0.136356
H31   H     H_    0.593050 0.313779 0.095818 0.134228
H32   H     H_    0.594120 0.687611 0.098279 0.135287
H33   H     H_    0.094120 0.812389 0.098279 0.135287
H34   H     H_    0.093051 0.186222 0.095819 0.134228
H35   H     H_    0.383386 0.812280 0.177852 0.144843
H36   H     H_    0.382248 0.186254 0.175226 0.145005
H37   H     H_    0.882248 0.313746 0.175227 0.145005
H38   H     H_    0.883386 0.687720 0.177853 0.144842
H39   H     H_    0.385602 0.713266 0.854767 0.130093
H40   H     H_    0.385256 0.286396 0.854006 0.129765
H41   H     H_    0.885258 0.213601 0.854009 0.129765
H42   H     H_    0.885603 0.786734 0.854768 0.130093

loop_
_geom_bond_atom_site_label_1
_geom_bond_atom_site_label_2
_ccdc_geom_bond_type
C83   C87   A    
C39   O9    A    
C14   C18   A    
C53   C55   A    
C60   N2    A    
C93   N9    T    
C56   H6    S    
C92   N8    T    
C2    O2    A    
C32   C72   A    
Cu3   O14   S    
Cu1   O9    S    
C47   N3    A    
C4    O8    A    
C18   C86   A    
C72   H10   S    
C2    C29   S    
C53   C89   S    
C47   C55   A    
C42   O12   A    
C28   C68   A    
C5    C11   A    
C19   C87   A    
C17   H15   S    
C6    C12   A    
C12   C64   A    
C7    C23   A    
C77   C83   A    
C91   N7    T    
C6    C22   A    
C80   H14   S    
C49   C57   A    
C79   H13   S    
C48   C56   A    
C25   C63   A    
C23   C67   A    
C29   C69   A    
C9    C13   A    
C22   C66   A    
C58   H4    S    
C26   H22   S    
C27   C61   A    
C6    C84   A    
C11   C15   A    
C12   C16   A    
C44   C46   A    
C49   C51   A    
Cu3   O6    S    
C59   H19   S    
Cu2   O11   S    
C35   N3    A    
C30   C86   A    
C25   H21   S    
C38   C94   S    
C29   C85   A    
C59   N1    A    
C48   N4    A    
C21   C65   A    
C52   C54   A    
C45   C47   A    
C71   H9    S    
C33   C59   A    
C34   C60   A    
C21   H35   S    
C10   C62   A    
C61   H31   S    
C30   C70   A    
C3    O7    A    
C41   C68   S    
C46   C48   A    
Cu1   O10   S    
C2    O6    A    
Cu2   Cu4   S    
C90   N6    T    
C54   C56   A    
C74   H40   S    
C31   C87   A    
C78   H12   S    
C26   C66   A    
C34   H2    S    
Cu4   O15   S    
C25   C65   A    
C13   H27   S    
C72   C74   A    
C10   C14   A    
Cu4   O7    S    
C71   C73   A    
C57   N1    A    
C39   O13   A    
C82   C86   A    
C51   C53   A    
C50   C58   A    
C37   C43   A    
C15   C19   A    
C38   C44   A    
C60   H20   S    
C43   C45   A    
C50   C52   A    
C54   C90   S    
Cu1   N1    S    
C45   C49   A    
C16   C20   A    
C40   O10   A    
C55   H5    S    
C44   C92   S    
C75   H41   S    
C1    O1    A    
C37   C93   S    
C76   H42   S    
Cu4   N4    S    
C3    O3    A    
C35   H25   S    
C20   H18   S    
C69   H7    S    
C80   C82   A    
C7    C81   A    
Cu1   O1    S    
C40   C65   S    
C16   H30   S    
C42   C67   S    
C39   C66   S    
C17   C85   A    
C77   H11   S    
Cu1   Cu3   S    
C63   H33   S    
C64   H34   S    
C41   O11   A    
C36   N4    A    
C35   C37   A    
C41   O15   A    
C43   C91   S    
C57   H3    S    
C7    C9    A    
C40   O14   A    
Cu3   N3    S    
C73   C77   A    
C1    O5    A    
Cu4   O16   S    
C28   H24   S    
C34   C52   A    
C24   H38   S    
C84   C88   A    
C33   H1    S    
C76   C80   A    
C28   C62   A    
Cu3   O13   S    
C26   C64   A    
C33   C51   A    
C89   N5    T    
C46   C50   A    
C79   C81   A    
C13   C17   A    
C27   H23   S    
Cu2   O3    S    
C70   H8    S    
C36   H26   S    
Cu4   O8    S    
C73   H39   S    
C94   N10   T    
C70   C76   A    
C19   H17   S    
C22   H36   S    
C5    C83   A    
C20   C88   A    
C36   C38   A    
C1    C30   S    
C8    C24   A    
C62   H32   S    
C69   C75   A    
C9    C61   A    
Cu3   O5    S    
Cu2   N2    S    
C3    C32   S    
C18   H16   S    
C15   H29   S    
C4    C31   S    
C27   C67   A    
C24   C68   A    
C78   C84   A    
C8    C82   A    
C5    C21   A    
Cu1   O2    S    
C8    C10   A    
C74   C78   A    
C14   H28   S    
C58   N2    A    
Cu2   O12   S    
C4    O4    A    
C42   O16   A    
C11   C63   A    
C75   C79   A    
C81   C85   A    
Cu2   O4    S    
C31   C71   A    
C23   H37   S    
C32   C88   A    
