data_mof_unit_43944.cif
_audit_creation_date              2012-12-11T17:09:28-0500
_audit_creation_method            fapswitch 2.2
_symmetry_space_group_name_H-M    P1
_symmetry_Int_Tables_number       1
_space_group_crystal_system       triclinic
_cell_length_a                    14.814496
_cell_length_b                    6.941266
_cell_length_c                    13.506999
_cell_angle_alpha                 90.034304
_cell_angle_beta                  99.84447
_cell_angle_gamma                 89.950292
_cell_volume                      1368.49088324

loop_
_atom_site_label
_atom_site_type_symbol
_atom_type_description
_atom_site_fract_x
_atom_site_fract_y
_atom_site_fract_z
_atom_type_partial_charge
O1    O     O_R   0.586930 0.505770 0.416350 -0.532909
O2    O     O_R   0.413070 0.005770 0.583650 -0.544312
O3    O     O_R   0.397900 0.173100 0.389630 -0.535962
O4    O     O_R   0.602100 0.673100 0.610370 -0.537910
C1    C     C_R   0.364297 0.345422 0.362877 0.729117
C2    C     C_R   0.635698 0.845393 0.637132 0.724929
O5    O     O_R   0.585280 0.175870 0.404330 -0.543676
O6    O     O_R   0.414720 0.675870 0.595670 -0.552209
O7    O     O_R   0.601790 0.008380 0.598460 -0.535780
O8    O     O_R   0.398210 0.508380 0.401540 -0.530693
C3    C     C_R   0.614662 0.344633 0.382817 0.712118
C4    C     C_R   0.386027 0.845167 0.618009 0.690009
O9    O     O_3   0.505200 0.340120 0.563670 -0.382436
O10   O     O_3   0.494800 0.840120 0.436330 -0.354925
V1    V     V_3+5 0.499040 0.064180 0.488190 1.432085
V2    V     V_3+5 0.500960 0.564180 0.511810 1.427885
C5    C     C_R   0.258396 0.015227 0.683780 0.046611
C6    C     C_R   0.680549 0.502946 0.243139 0.169508
C7    C     C_R   0.315914 0.854914 0.684315 -0.073321
C8    C     C_R   0.680932 0.352176 0.312096 -0.172792
C9    C     C_R   0.303681 0.702601 0.749065 -0.171306
C10   C     C_R   0.745162 0.203143 0.309177 -0.199396
H1    H     H_    0.349473 0.581447 0.755332 0.167182
H2    H     H_    0.747563 0.082355 0.360052 0.122195
C11   C     C_R   0.237243 0.712344 0.811989 -0.156262
C12   C     C_R   0.811093 0.214897 0.245357 -0.175340
H3    H     H_    0.233125 0.596142 0.864253 0.133191
H4    H     H_    0.861846 0.101987 0.248328 0.125465
C13   C     C_R   0.181309 0.876320 0.812745 -0.086236
C14   C     C_R   0.815328 0.376927 0.183362 -0.107082
C15   C     C_R   0.191648 0.024903 0.745485 0.020763
C16   C     C_R   0.746157 0.515441 0.180785 0.050484
C17   C     C_3   0.211021 0.231669 0.769360 -0.362571
C18   C     C_3   0.752275 0.729110 0.191067 -0.451516
C19   C     C_3   0.285497 0.219857 0.705327 0.190801
C20   C     C_3   0.679931 0.715259 0.258628 0.192298
H5    H     H_    0.236977 0.255597 0.850692 0.190026
H6    H     H_    0.728492 0.804015 0.118538 0.196633
H7    H     H_    0.152796 0.325618 0.736395 0.124827
H8    H     H_    0.820294 0.775469 0.231879 0.139088
H9    H     H_    0.273965 0.314846 0.637808 0.058676
H10   H     H_    0.702982 0.758425 0.338300 0.071346
C21   C     C_1   0.783472 0.877148 0.782872 -0.185986
C22   C     C_1   0.216521 0.377106 0.217135 -0.182681
C23   C     C_1   0.716181 0.860097 0.716806 -0.180177
C24   C     C_1   0.283813 0.360132 0.283207 -0.175069
O11   O     O_R   0.101720 0.231700 0.098560 -0.535928
O12   O     O_R   0.898280 0.731700 0.901440 -0.534759
O13   O     O_R   0.914700 0.558980 0.095690 -0.540636
O14   O     O_R   0.085300 0.058980 0.904310 -0.541057
C25   C     C_R   0.885511 0.389825 0.117394 0.704608
C26   C     C_R   0.114761 0.889685 0.882953 0.695753
O15   O     O_R   0.102080 0.561590 0.110390 -0.537236
O16   O     O_R   0.897920 0.061590 0.889610 -0.536423
O17   O     O_R   0.086950 0.728940 0.916330 -0.543110
O18   O     O_R   0.913050 0.228940 0.083670 -0.540557
C27   C     C_R   0.136051 0.391908 0.137447 0.729267
C28   C     C_R   0.863947 0.891941 0.862555 0.735300
O19   O     O_3   0.994770 0.394510 0.936380 -0.369838
O20   O     O_3   0.005230 0.894510 0.063620 -0.370247
V3    V     V_3+5 0.000970 0.670520 0.011800 1.418003
V4    V     V_3+5 0.999030 0.170520 0.988200 1.419433
O21   O     O_3   0.372989 0.232661 0.764527 -0.631751
H11   H     H_    0.415335 0.271873 0.718815 0.305174
O22   O     O_3   0.595766 0.794655 0.214212 -0.618724
H12   H     H_    0.601218 0.935293 0.226648 0.308038

loop_
_geom_bond_atom_site_label_1
_geom_bond_atom_site_label_2
_ccdc_geom_bond_type
O4    V2    S    
O5    C3    A    
C14   C25   S    
C15   C17   S    
O9    V2    S    
O12   C28   A    
C7    C9    A    
C2    C23   S    
C11   H3    S    
O16   V4    S    
C1    C24   S    
C20   H10   S    
O14   C26   A    
O1    C3    A    
C26   O17   A    
C22   C27   S    
O6    C4    A    
O2    C4    A    
C2    O7    A    
O5    V1    S    
O7    V1    S    
O3    V1    S    
C1    O8    A    
C13   C15   A    
O1    V2    S    
O8    V2    S    
C14   C16   A    
O2    V1    S    
C21   C23   T    
O12   V3    S    
C17   H7    S    
C6    C20   S    
O11   V4    S    
C19   H9    S    
O17   V3    S    
C4    C7    S    
O20   V4    S    
C12   H4    S    
C17   C19   S    
C18   C20   S    
C8    C10   A    
C12   C14   A    
O18   V4    S    
O9    V1    S    
C9    H1    S    
C11   C13   A    
O10   V1    S    
C5    C15   A    
O10   V2    S    
C3    C8    S    
O19   V3    S    
O14   V4    S    
C6    C16   A    
O21   H11   S    
O13   V3    S    
C6    C8    A    
O4    C2    A    
O22   H12   S    
C10   C12   A    
C10   H2    S    
O16   C28   A    
O11   C27   A    
O13   C25   A    
C9    C11   A    
C20   O22   S    
C18   H8    S    
O19   V4    S    
O15   C27   A    
O6    V2    S    
C5    C19   S    
C21   C28   S    
C5    C7    A    
C18   H6    S    
O15   V3    S    
C19   O21   S    
C17   H5    S    
C25   O18   A    
C22   C24   T    
O20   V3    S    
O3    C1    A    
C13   C26   S    
C16   C18   S    
