data_mof_unit_19458.cif
_audit_creation_date              2012-12-11T14:57:59-0500
_audit_creation_method            fapswitch 2.2
_symmetry_space_group_name_H-M    P1
_symmetry_Int_Tables_number       1
_space_group_crystal_system       triclinic
_cell_length_a                    6.960138
_cell_length_b                    16.727248
_cell_length_c                    17.149346
_cell_angle_alpha                 99.85987
_cell_angle_beta                  91.838712
_cell_angle_gamma                 89.677937
_cell_volume                      1966.09112379

loop_
_atom_site_label
_atom_site_type_symbol
_atom_type_description
_atom_site_fract_x
_atom_site_fract_y
_atom_site_fract_z
_atom_type_partial_charge
O1    O     O_R   0.506180 0.438940 0.579430 -0.540747
O2    O     O_R   0.170520 0.406230 0.413590 -0.522694
O3    O     O_R   0.005180 0.561060 0.420570 -0.553380
C1    C     C_R   0.339419 0.382112 0.385890 0.733440
O4    O     O_R   0.176140 0.429310 0.578370 -0.523496
O5    O     O_R   0.010830 0.584300 0.586530 -0.548135
C2    C     C_R   0.347386 0.416665 0.607304 0.827636
O6    O     O_R   0.500520 0.415700 0.413470 -0.533306
O7    O     O_3   0.340830 0.550820 0.502480 -0.381201
V1    V     V_3+5 0.064040 0.490570 0.499540 1.548946
O8    O     O_R   0.681400 0.593770 0.586410 -0.524871
C3    C     C_R   0.852353 0.616309 0.614584 0.666293
O9    O     O_R   0.675790 0.570690 0.421630 -0.533712
C4    C     C_R   0.841204 0.586866 0.395091 0.762575
V2    V     V_3+5 0.564650 0.509430 0.500460 1.547202
O10   O     O_3   0.837730 0.449180 0.497520 -0.351883
C5    C     C_R   0.926782 0.864370 0.169762 -0.008459
C6    C     C_R   0.836543 0.637553 0.331113 0.007952
C7    C     C_R   0.672243 0.681018 0.215901 -0.093788
C8    C     C_R   0.699439 0.622750 0.266780 -0.010738
C9    C     C_R   0.962302 0.703727 0.336274 -0.186541
C10   C     C_R   0.948296 0.757327 0.281342 0.129567
C11   C     C_R   0.799067 0.748089 0.222346 0.127086
C12   C     C_R   0.788075 0.803492 0.168161 -0.095642
C13   C     C_R   0.075194 0.871471 0.227898 -0.038337
C14   C     C_R   0.083481 0.819856 0.284101 -0.065901
C15   C     C_R   0.797648 0.912090 0.718617 -0.043917
C16   C     C_R   0.733786 0.922302 0.640756 -0.096382
C17   C     C_R   0.722694 0.854957 0.579468 -0.043952
C18   C     C_R   0.767473 0.778617 0.595983 -0.128264
C19   C     C_R   0.824081 0.765174 0.672361 0.027886
C20   C     C_R   0.841244 0.832044 0.736685 0.052062
C21   C     C_R   0.870189 0.685081 0.682701 -0.125248
C22   C     C_R   0.942335 0.670060 0.756541 0.089470
C23   C     C_R   0.947995 0.733195 0.824319 -0.017523
C24   C     C_R   0.898444 0.815339 0.814755 -0.168506
C25   C     C_R   0.007060 0.590964 0.763683 -0.092693
C26   C     C_R   0.080904 0.573373 0.834362 -0.139740
C27   C     C_R   0.080214 0.631943 0.901257 -0.098312
C28   C     C_R   0.006398 0.709794 0.898697 -0.008673
H1    H     H_    0.131914 0.512767 0.837938 0.139530
H2    H     H_    0.867469 0.411606 0.166837 0.191048
C29   C     C_R   0.607167 0.243988 0.389071 0.015988
C30   C     C_R   0.777103 0.197158 0.381359 -0.126499
C31   C     C_R   0.783444 0.130481 0.318852 -0.030144
C32   C     C_R   0.625400 0.117480 0.264976 -0.091626
C33   C     C_R   0.509246 0.185237 0.253997 -0.032692
C34   C     C_R   0.489653 0.249042 0.320022 0.065343
C35   C     C_R   0.409014 0.188096 0.181073 -0.162351
C36   C     C_R   0.276628 0.253304 0.175986 -0.004568
C37   C     C_R   0.249964 0.316478 0.243272 -0.027602
C38   C     C_R   0.355054 0.314101 0.316142 -0.126696
C39   C     C_R   0.166767 0.258414 0.104829 -0.009164
C40   C     C_R   0.000607 0.305690 0.108945 -0.165427
C41   C     C_R   0.978396 0.367183 0.172388 -0.099541
C42   C     C_R   0.121427 0.381423 0.232346 -0.000387
C43   C     C_R   0.402453 0.132494 0.827751 -0.074264
C44   C     C_R   0.366894 0.369292 0.673419 -0.123497
C45   C     C_R   0.514016 0.345992 0.799776 -0.048792
C46   C     C_R   0.475695 0.398370 0.743785 -0.088611
C47   C     C_R   0.293707 0.290359 0.661496 -0.187206
C48   C     C_R   0.333768 0.236353 0.715002 0.101835
C49   C     C_R   0.441275 0.264995 0.785726 0.133596
C50   C     C_R   0.468608 0.212809 0.841927 -0.132314
C51   C     C_R   0.319116 0.100123 0.752314 -0.044861
C52   C     C_R   0.276411 0.153286 0.697427 -0.049035
O11   O     O_R   0.265840 0.084300 0.086750 -0.555101
O12   O     O_R   0.589750 0.070740 0.921690 -0.552396
O13   O     O_R   0.755020 0.915730 0.913400 -0.550187
C53   C     C_R   0.418718 0.084375 0.893496 0.783106
O14   O     O_R   0.595830 0.093740 0.086480 -0.545607
O15   O     O_R   0.761150 0.938890 0.079360 -0.546127
C54   C     C_R   0.426476 0.118610 0.113090 0.614056
O16   O     O_R   0.259710 0.061140 0.920790 -0.479795
O17   O     O_3   0.425260 0.949200 0.997610 -0.369352
V3    V     V_3+5 0.702060 0.009430 0.000450 1.515029
O18   O     O_R   0.090530 0.929220 0.078150 -0.533886
C55   C     C_R   0.925524 0.916434 0.107361 0.678588
O19   O     O_R   0.084440 0.906220 0.913360 -0.502855
C56   C     C_R   0.913647 0.882788 0.884959 0.740349
V4    V     V_3+5 0.201450 0.990520 0.999290 1.605649
O20   O     O_3   0.928380 0.050800 0.002390 -0.353085
H3    H     H_    0.678940 0.797267 0.121257 0.144488
C57   C     C_2   0.672950 0.863165 0.495861 0.346481
H4    H     H_    0.683795 0.921208 0.476279 0.091000
O21   O     O_2   0.620581 0.804596 0.447243 -0.535696
H5    H     H_    0.761918 0.729058 0.546430 0.133569
H6    H     H_    0.002607 0.540821 0.714769 0.117012
C58   C     C_2   0.973574 0.758502 0.976805 0.357115
H7    H     H_    0.842137 0.792934 0.987118 0.004395
O22   O     O_2   0.089435 0.756850 0.031512 -0.508284
C59   C     C_2   0.531228 0.265068 0.469718 0.341985
H8    H     H_    0.625143 0.280622 0.521588 0.117810
O23   O     O_2   0.359933 0.259224 0.479491 -0.570131
C60   C     C_2   0.940211 0.216168 0.439609 0.437393
H9    H     H_    0.053630 0.172904 0.444516 0.161257
O24   O     O_2   0.953868 0.282661 0.481622 -0.514025
C61   C     C_2   0.947722 0.073076 0.308179 0.417845
H10   H     H_    0.998200 0.052047 0.248977 0.014359
O25   O     O_2   0.018895 0.044832 0.363498 -0.539013
C62   C     C_2   0.549723 0.033147 0.239989 0.411080
H11   H     H_    0.409884 0.022841 0.210699 0.024311
O26   O     O_2   0.634369 0.974342 0.257473 -0.534226
H12   H     H_    0.185182 0.917271 0.229966 0.118825
C63   C     C_2   0.238996 0.230275 0.024562 0.440249
H13   H     H_    0.390749 0.218407 0.016716 -0.039046
O27   O     O_2   0.131461 0.223879 0.966081 -0.509244
H14   H     H_    0.904782 0.304769 0.057711 0.186137
C64   C     C_2   0.158987 0.468294 0.265606 0.378995
H15   H     H_    0.269382 0.487679 0.309964 0.056273
O28   O     O_2   0.075932 0.521811 0.237655 -0.545620
H16   H     H_    0.537281 0.234595 0.898871 0.145910
C65   C     C_2   0.279996 0.011008 0.728886 0.373345
H17   H     H_    0.192578 0.988038 0.676540 0.062221
O29   O     O_2   0.344262 0.961360 0.767373 -0.547042
C66   C     C_2   0.631651 0.377085 0.872511 0.322744
H18   H     H_    0.598746 0.435644 0.907553 0.039180
O30   O     O_2   0.771419 0.339477 0.891500 -0.506962
C67   C     C_2   0.179663 0.120357 0.620123 0.432705
H19   H     H_    0.237965 0.067755 0.582414 0.019992
O31   O     O_2   0.030462 0.150227 0.599247 -0.492160
C68   C     C_2   0.552300 0.483073 0.759347 0.313438
H20   H     H_    0.679159 0.498048 0.797202 0.056879
O32   O     O_2   0.472158 0.537645 0.731904 -0.532299
H21   H     H_    0.210623 0.271033 0.607723 0.223295
C69   C     C_2   0.515430 0.669564 0.154137 0.362456
H22   H     H_    0.504464 0.613374 0.111946 0.042036
O33   O     O_2   0.394278 0.722186 0.151631 -0.492040
H23   H     H_    0.199274 0.827477 0.328520 0.145712
C70   C     C_2   0.590288 0.544904 0.249103 0.304738
H24   H     H_    0.461722 0.539960 0.211548 0.063649
O34   O     O_2   0.646801 0.483984 0.273011 -0.545623
H25   H     H_    0.070955 0.713771 0.383673 0.117892
H26   H     H_    0.127733 0.614491 0.956803 0.160343
C71   C     C_2   0.803726 0.987173 0.778217 0.476443
H27   H     H_    0.678084 0.024677 0.785093 0.085345
O35   O     O_2   0.951496 0.012610 0.813248 -0.513499
C72   C     C_2   0.670508 0.002856 0.622113 0.331450
H28   H     H_    0.556342 0.005914 0.578255 0.029634
O36   O     O_2   0.745099 0.066286 0.654276 -0.499603

loop_
_geom_bond_atom_site_label_1
_geom_bond_atom_site_label_2
_ccdc_geom_bond_type
C41   C42   A    
C69   H22   S    
C6    C9    A    
C4    C6    S    
C25   H6    S    
C7    C11   A    
C60   H9    S    
C1    O6    A    
V4    O20   S    
C71   H27   S    
C33   C35   A    
C39   C40   A    
C63   O27   D    
C25   C26   A    
C1    C38   S    
C20   C24   A    
C16   C17   A    
C12   H3    S    
C57   O21   D    
C37   C42   A    
C31   C61   S    
C64   O28   D    
O5    C3    A    
C18   C19   A    
C50   H16   S    
C44   C46   A    
V2    O10   S    
C22   C25   A    
C66   H18   S    
O13   V3    S    
C22   C23   A    
C35   C36   A    
C5    C55   S    
O15   C55   A    
C32   C33   A    
O8    V2    S    
C7    C8    A    
C45   C66   S    
C53   O16   A    
C11   C12   A    
C19   C21   A    
C70   O34   D    
O11   C54   A    
C43   C53   S    
C58   O22   D    
C29   C34   A    
C2    C44   S    
O15   V3    S    
C44   C47   A    
C45   C46   A    
C62   O26   D    
O9    C4    A    
C9    H25   S    
C21   C22   A    
C67   O31   D    
C32   C62   S    
C36   C39   A    
C48   C52   A    
C37   C38   A    
C5    C12   A    
C62   H11   S    
C16   C72   S    
C57   H4    S    
C26   H1    S    
C24   C56   S    
V3    O20   S    
C27   C28   A    
O19   V4    S    
O17   V4    S    
C13   C14   A    
O18   C55   A    
C49   C50   A    
C23   C24   A    
O2    C1    A    
O17   V3    S    
C17   C18   A    
C39   C63   S    
H2    C41   S    
C33   C34   A    
O18   V4    S    
O8    C3    A    
C48   C49   A    
C59   O23   D    
C36   C37   A    
C46   C68   S    
C14   H23   S    
O3    C4    A    
C72   O36   D    
C17   C57   S    
O1    V2    S    
O11   V4    S    
O6    V2    S    
C61   O25   D    
C52   C67   S    
O9    V2    S    
C29   C30   A    
C28   C58   S    
C35   C54   S    
O16   V4    S    
C68   O32   D    
O2    V1    S    
C42   C64   S    
C30   C31   A    
C43   C50   A    
O4    C2    A    
C65   H17   S    
O7    V1    S    
C71   O35   D    
C58   H7    S    
C40   C41   A    
C69   O33   D    
C15   C20   A    
O1    C2    A    
C51   C65   S    
C19   C20   A    
C43   C51   A    
O14   V3    S    
O5    V1    S    
C47   H21   S    
C67   H19   S    
C60   O24   D    
C13   H12   S    
C68   H20   S    
O12   V3    S    
C63   H13   S    
C7    C69   S    
C45   C49   A    
C29   C59   S    
C40   H14   S    
C15   C71   S    
C70   H24   S    
O7    V2    S    
C5    C13   A    
O4    V1    S    
C30   C60   S    
V1    O10   S    
C64   H15   S    
C26   C27   A    
C3    C21   S    
C59   H8    S    
C66   O30   D    
C23   C28   A    
C6    C8    A    
C51   C52   A    
C47   C48   A    
C72   H28   S    
O19   C56   A    
C31   C32   A    
C34   C38   A    
O12   C53   A    
C61   H10   S    
C10   C14   A    
O14   C54   A    
C15   C16   A    
O3    V1    S    
C10   C11   A    
O13   C56   A    
C8    C70   S    
C18   H5    S    
C9    C10   A    
C65   O29   D    
C27   H26   S    
