data_mof_unit_53421.cif
_audit_creation_date              2012-12-10T17:12:40-0500
_audit_creation_method            fapswitch 2.2
_symmetry_space_group_name_H-M    P1
_symmetry_Int_Tables_number       1
_space_group_crystal_system       triclinic
_cell_length_a                    23.441015
_cell_length_b                    10.673464
_cell_length_c                    10.008261
_cell_angle_alpha                 89.720825
_cell_angle_beta                  89.49591
_cell_angle_gamma                 89.746986
_cell_volume                      2503.8845932

loop_
_atom_site_label
_atom_site_type_symbol
_atom_type_description
_atom_site_fract_x
_atom_site_fract_y
_atom_site_fract_z
_atom_type_partial_charge
C1    C     C_R   0.497957 0.261693 0.500712 0.820938
C2    C     C_R   0.971507 0.303160 0.358384 -0.175809
C3    C     C_R   0.030788 0.304749 0.355274 -0.169546
C4    C     C_R   0.060714 0.389786 0.434477 -0.001026
C5    C     C_R   0.030597 0.473812 0.517575 -0.026502
C6    C     C_R   0.060418 0.556809 0.599803 -0.092937
C7    C     C_R   0.030401 0.643352 0.678610 -0.247965
C8    C     C_R   0.971036 0.651371 0.673129 0.508577
C9    C     C_R   0.120263 0.394430 0.431207 0.518032
C10   C     C_R   0.119973 0.552756 0.599353 0.550624
C11   C     C_R   0.236634 0.594533 0.481705 -0.201381
C12   C     C_R   0.389739 0.499303 0.500424 0.976643
C13   C     C_R   0.295880 0.603009 0.485827 0.398042
C14   C     C_R   0.328201 0.492888 0.501176 -0.264416
C15   C     C_R   0.301222 0.375979 0.515431 0.364872
C16   C     C_R   0.242088 0.371201 0.525443 -0.168583
C17   C     C_R   0.209599 0.480068 0.507226 0.164753
C18   C     C_R   0.759544 0.457661 0.625379 -0.118732
C19   C     C_R   0.700653 0.466563 0.620340 -0.300536
C20   C     C_R   0.673293 0.496105 0.499664 -0.080809
C21   C     C_R   0.706357 0.517522 0.382644 0.181049
C22   C     C_R   0.765645 0.509064 0.389695 -0.194995
C23   C     C_R   0.506313 0.736618 0.499340 0.885747
C24   C     C_R   0.792093 0.479640 0.510427 0.277718
C25   C     C_2   0.522316 0.935746 0.389585 0.305239
C26   C     C_2   0.530194 0.861456 0.496581 0.204295
C27   C     C_2   0.529976 0.068985 0.408090 0.362745
C28   C     C_2   0.496762 0.126394 0.499849 0.231658
C29   C     C_2   0.540268 0.451823 0.924450 -0.153045
C30   C     C_2   0.542333 0.460877 0.074301 -0.110893
C31   C     C_R   0.610794 0.500003 0.499350 0.850132
C32   C     C_R   0.880462 0.560792 0.594074 0.521075
C33   C     C_R   0.881665 0.389138 0.441169 0.502784
C34   C     C_R   0.941109 0.388051 0.438949 0.024923
C35   C     C_R   0.970610 0.474883 0.518109 -0.079988
C36   C     C_R   0.940360 0.563226 0.596546 -0.146776
H1    H     H_    0.949617 0.235968 0.296588 0.187939
H2    H     H_    0.676544 0.448683 0.711215 0.171385
H3    H     H_    0.791418 0.526694 0.301237 0.153005
H4    H     H_    0.575070 0.403256 0.874462 0.160272
H5    H     H_    0.469291 0.553181 0.898457 0.168314
H6    H     H_    0.580954 0.429207 0.122993 0.174329
H7    H     H_    0.053019 0.238867 0.291151 0.191499
H8    H     H_    0.462294 0.519795 0.102892 0.159550
H9    H     H_    0.052924 0.708089 0.742111 0.202005
H10   H     H_    0.211377 0.677607 0.461728 0.170160
H11   H     H_    0.221409 0.281991 0.543010 0.183564
H12   H     H_    0.780023 0.434183 0.718850 0.156922
N1    N     N_R   0.852837 0.475399 0.516570 -0.348476
N2    N     N_R   0.148656 0.474773 0.513382 -0.327508
N3    N     N_2   0.500610 0.501330 0.852150 -0.197713
N4    N     N_2   0.500630 0.501360 0.147810 -0.191837
O1    O     O_R   0.499990 0.319060 0.613040 -0.631801
O2    O     O_2   0.852684 0.304542 0.368815 -0.591101
O3    O     O_2   0.149527 0.320850 0.345048 -0.574126
O4    O     O_2   0.149089 0.626161 0.684197 -0.588823
O5    O     O_R   0.500010 0.319100 0.386900 -0.576457
O6    O     O_R   0.416150 0.499940 0.613100 -0.621251
O7    O     O_R   0.416160 0.499980 0.386960 -0.616490
O8    O     O_R   0.499990 0.680900 0.613100 -0.625038
O9    O     O_R   0.500010 0.680940 0.386960 -0.587292
O10   O     O_R   0.583840 0.500020 0.613040 -0.638382
O11   O     O_R   0.583850 0.500060 0.386900 -0.587713
O12   O     O_2   0.849735 0.642990 0.667504 -0.543440
Zn1   Zn    Zn3+2 0.499990 0.499970 0.650990 0.918500
Zn2   Zn    Zn3+2 0.500010 0.500030 0.349010 0.972182
N5    N     N_2   0.680846 0.545541 0.257497 -0.295949
H13   H     H_    0.700981 0.502351 0.177899 0.218266
C37   C     C_3   0.672235 0.677791 0.233087 -0.791436
H14   H     H_    0.713807 0.727498 0.230971 0.236997
H15   H     H_    0.644399 0.718661 0.311765 0.223716
H16   H     H_    0.651171 0.691164 0.135104 0.231462
O13   O     O_3   0.491436 0.897142 0.280205 -0.639694
C38   C     C_3   0.529541 0.881925 0.171908 0.107232
H17   H     H_    0.564795 0.816526 0.198837 0.136354
H18   H     H_    0.547681 0.973649 0.140088 0.169858
C39   C     C_3   0.497329 0.826978 0.054728 -0.331163
H19   H     H_    0.474738 0.740920 0.087148 0.236435
H20   H     H_    0.464686 0.895234 0.020372 0.222920
C40   C     C_3   0.538112 0.795553 0.940256 -0.976280
H21   H     H_    0.564153 0.878470 0.913154 0.265180
H22   H     H_    0.513251 0.766979 0.851998 0.300728
H23   H     H_    0.567156 0.717889 0.969294 0.267422
O14   O     O_3   0.561404 0.905204 0.604525 -0.670293
C41   C     C_3   0.610681 0.829795 0.622180 0.052943
H24   H     H_    0.627777 0.792054 0.526104 0.094538
H25   H     H_    0.600355 0.749997 0.689701 0.198632
C42   C     C_3   0.657832 0.907697 0.684998 -0.381740
H26   H     H_    0.669627 0.985546 0.616205 0.213394
H27   H     H_    0.642346 0.948966 0.780337 0.223382
C43   C     C_3   0.710709 0.827710 0.712057 -0.861828
H28   H     H_    0.700213 0.750600 0.782970 0.263045
H29   H     H_    0.744415 0.886679 0.756631 0.264722
H30   H     H_    0.727482 0.787015 0.617474 0.278393
O15   O     O_3   0.565436 0.134842 0.321574 -0.669146
C44   C     C_3   0.622304 0.116888 0.362298 0.045609
H31   H     H_    0.634548 0.015929 0.357029 0.127971
H32   H     H_    0.627950 0.151645 0.466271 0.140175
C45   C     C_3   0.661489 0.191200 0.269052 -0.364885
H33   H     H_    0.657584 0.155014 0.165577 0.215447
H34   H     H_    0.648186 0.291143 0.269251 0.241303
C46   C     C_3   0.723566 0.181607 0.312432 -0.867113
H35   H     H_    0.728550 0.219775 0.414731 0.276344
H36   H     H_    0.750740 0.236688 0.242514 0.285679
H37   H     H_    0.738078 0.082403 0.311057 0.259923
O16   O     O_3   0.458438 0.053775 0.575916 -0.687617
C47   C     C_3   0.436756 0.110209 0.693350 0.113921
H38   H     H_    0.400231 0.052436 0.727272 0.154623
H39   H     H_    0.418308 0.204643 0.675614 0.193950
C48   C     C_3   0.480686 0.106428 0.805943 -0.325169
H40   H     H_    0.492060 0.007475 0.825171 0.250167
H41   H     H_    0.520517 0.155562 0.776980 0.237799
C49   C     C_3   0.456662 0.164352 0.933776 -0.960056
H42   H     H_    0.445085 0.264030 0.916309 0.281319
H43   H     H_    0.489171 0.159483 0.013721 0.278973
H44   H     H_    0.418134 0.112624 0.967671 0.257672
O17   O     O_3   0.943795 0.743004 0.747843 -0.602622
C50   C     C_3   0.933983 0.850432 0.667095 0.155764
H45   H     H_    0.893162 0.893433 0.701221 0.189870
H46   H     H_    0.928441 0.828606 0.558883 0.119594
C51   C     C_3   0.981699 0.946578 0.684458 -0.421812
H47   H     H_    0.987177 0.966612 0.792454 0.245873
H48   H     H_    0.022435 0.908153 0.644336 0.222082
C52   C     C_3   0.968241 0.068654 0.610813 -0.898177
H49   H     H_    0.963247 0.050852 0.502293 0.266545
H50   H     H_    0.003705 0.135953 0.624318 0.273972
H51   H     H_    0.928367 0.111408 0.650881 0.266123
O18   O     O_3   0.322057 0.717381 0.463997 -0.637007
C53   C     C_3   0.327803 0.781235 0.586912 0.083971
H52   H     H_    0.362741 0.850163 0.573788 0.189314
H53   H     H_    0.341355 0.717953 0.669993 0.130359
C54   C     C_3   0.272444 0.850811 0.625108 -0.377715
H54   H     H_    0.252630 0.891865 0.534342 0.236784
H55   H     H_    0.241972 0.783337 0.670616 0.257843
C55   C     C_3   0.282727 0.955328 0.725273 -0.930858
H56   H     H_    0.308081 0.920253 0.811060 0.260707
H57   H     H_    0.241150 0.991122 0.763393 0.278602
H58   H     H_    0.305293 0.034132 0.675606 0.275909
O19   O     O_3   0.331897 0.265161 0.517545 -0.673778
C56   C     C_3   0.344346 0.228206 0.384480 0.059672
H59   H     H_    0.388767 0.255884 0.359619 0.170915
H60   H     H_    0.315579 0.271018 0.307994 0.152155
C57   C     C_3   0.339174 0.086076 0.373588 -0.316510
H61   H     H_    0.364637 0.040662 0.452940 0.263859
H62   H     H_    0.293827 0.058948 0.387954 0.226382
C58   C     C_3   0.360315 0.039240 0.238051 -0.878087
H63   H     H_    0.334211 0.080264 0.156594 0.248040
H64   H     H_    0.356838 0.935583 0.234438 0.294920
H65   H     H_    0.405706 0.065294 0.222216 0.285101

loop_
_geom_bond_atom_site_label_1
_geom_bond_atom_site_label_2
_ccdc_geom_bond_type
C57   C58   S    
C55   H58   S    
O13   C38   S    
C27   O15   S    
O15   C44   S    
C56   C57   S    
O5    Zn2   S    
O18   C53   S    
C50   H46   S    
C55   H56   S    
C39   H19   S    
C3    H7    S    
C38   H18   S    
C18   C24   A    
C32   C36   A    
C56   H60   S    
C34   C35   A    
O7    Zn2   S    
N3    Zn1   S    
C5    C6    A    
C40   H21   S    
C41   C42   S    
O16   C47   S    
C33   N1    A    
C57   H61   S    
C44   C45   S    
C33   O2    S    
C46   H37   S    
C55   H57   S    
C18   C19   A    
C8    C36   A    
C23   C26   S    
C37   H15   S    
C1    O1    A    
C50   H45   S    
C51   C52   S    
C49   H42   S    
C12   O7    A    
O9    Zn2   S    
C35   C36   A    
C28   O16   S    
C16   C17   A    
C38   C39   S    
C44   H32   S    
C1    C28   S    
C47   H38   S    
C9    O3    S    
O1    Zn1   S    
C58   H64   S    
C49   H44   S    
C12   O6    A    
C2    C34   A    
C41   H25   S    
O11   Zn2   S    
C21   C22   A    
C21   N5    S    
C47   H39   S    
C31   O10   A    
C37   H14   S    
C40   H23   S    
C16   H11   S    
C8    O17   S    
C15   O19   S    
C39   H20   S    
C23   O8    A    
C38   H17   S    
N5    H13   S    
C31   O11   A    
C7    C8    A    
O14   C41   S    
C32   O12   S    
C40   H22   S    
C43   H28   S    
C54   H54   S    
C25   C26   D    
C41   H24   S    
C48   H40   S    
N5    C37   S    
C50   C51   S    
C37   H16   S    
C29   C30   S    
C19   H2    S    
C1    O5    A    
C43   H29   S    
C58   H65   S    
O6    Zn1   S    
C45   H33   S    
C42   C43   S    
C44   H31   S    
C20   C21   A    
C33   C34   A    
C56   H59   S    
C46   H36   S    
C48   C49   S    
C51   H47   S    
C52   H51   S    
C10   O4    S    
C45   H34   S    
C42   H27   S    
O8    Zn1   S    
C47   C48   S    
C22   C24   A    
C3    C4    A    
C10   N2    A    
C7    H9    S    
N4    Zn2   S    
C52   H50   S    
C58   H63   S    
C29   N3    D    
C39   C40   S    
C24   N1    S    
C57   H62   S    
C30   N4    D    
C11   C17   A    
C26   O14   S    
O10   Zn1   S    
C9    N2    A    
C12   C14   S    
C4    C5    A    
C18   H12   S    
C17   N2    S    
C6    C10   A    
O19   C56   S    
C6    C7    A    
C25   C27   S    
C13   O18   S    
C53   C54   S    
C19   C20   A    
C2    C3    A    
C53   H52   S    
O17   C50   S    
C43   H30   S    
C11   C13   A    
C2    H1    S    
H8    N4    S    
C54   C55   S    
C22   H3    S    
C5    C35   A    
C29   H4    S    
C25   O13   S    
C46   H35   S    
C48   H41   S    
C32   N1    A    
C51   H48   S    
C23   O9    A    
C45   C46   S    
C42   H26   S    
C54   H55   S    
C27   C28   D    
C14   C15   A    
C30   H6    S    
C11   H10   S    
C53   H53   S    
C4    C9    A    
C13   C14   A    
H5    N3    S    
C15   C16   A    
C52   H49   S    
C49   H43   S    
C20   C31   S    
