data_mof_unit_46047.cif
_audit_creation_date              2012-12-10T18:04:53-0500
_audit_creation_method            fapswitch 2.2
_symmetry_space_group_name_H-M    P1
_symmetry_Int_Tables_number       1
_space_group_crystal_system       triclinic
_cell_length_a                    10.775378
_cell_length_b                    9.632637
_cell_length_c                    17.706528
_cell_angle_alpha                 89.979979
_cell_angle_beta                  92.604773
_cell_angle_gamma                 89.997473
_cell_volume                      1835.95546109

loop_
_atom_site_label
_atom_site_type_symbol
_atom_type_description
_atom_site_fract_x
_atom_site_fract_y
_atom_site_fract_z
_atom_type_partial_charge
C1    C     C_R   0.262868 0.500170 0.499190 0.821344
C2    C     C_R   0.497675 0.500004 0.644276 0.849979
C3    C     C_R   0.871281 0.498993 0.500768 -0.142599
C4    C     C_R   0.128516 0.501259 0.499159 -0.110032
C5    C     C_R   0.485393 0.625965 0.845885 -0.135367
C6    C     C_R   0.506403 0.375369 0.153876 -0.126518
C7    C     C_R   0.478041 0.625036 0.153488 -0.131960
C8    C     C_R   0.483075 0.374445 0.845874 -0.136173
C9    C     C_R   0.488395 0.626033 0.767266 -0.109461
C10   C     C_R   0.510255 0.375273 0.232671 -0.133494
C11   C     C_R   0.481893 0.625272 0.232283 -0.148455
C12   C     C_R   0.737054 0.499871 0.500727 0.842403
C13   C     C_R   0.486052 0.374304 0.767255 -0.132821
C14   C     C_R   0.491229 0.500100 0.727230 -0.047000
C15   C     C_R   0.497613 0.500226 0.272592 -0.030681
C16   C     C_R   0.423765 0.073895 0.450021 0.075110
C17   C     C_R   0.580306 0.925785 0.547283 0.054179
C18   C     C_R   0.577741 0.074120 0.548958 0.024450
C19   C     C_R   0.417368 0.925740 0.454048 0.045280
C20   C     C_R   0.483845 0.500209 0.885141 0.125651
C21   C     C_R   0.490044 0.500136 0.114382 0.126034
C22   C     C_2   0.353601 0.145519 0.387396 0.436916
C23   C     C_1   0.484657 0.500187 0.965848 -0.030669
C24   C     C_2   0.674053 0.852204 0.595411 0.470728
C25   C     C_2   0.665063 0.147526 0.601691 0.474122
C26   C     C_2   0.314523 0.853355 0.411854 0.506649
C27   C     C_2   0.122153 0.433880 0.361413 0.347152
C28   C     C_2   0.877263 0.568612 0.638255 0.376694
C29   C     C_2   0.850567 0.419673 0.366014 0.372763
C30   C     C_2   0.149101 0.580642 0.633867 0.378974
C31   C     C_1   0.486635 0.500150 0.033627 -0.034893
C32   C     C_R   0.059180 0.461369 0.433107 -0.003128
C33   C     C_R   0.940501 0.539483 0.566751 -0.039897
C34   C     C_R   0.928963 0.457613 0.434478 -0.085432
C35   C     C_R   0.070766 0.542834 0.565413 -0.078533
C36   C     C_R   0.499600 0.500042 0.355701 0.813283
Cu1   Cu    Cu3+1 0.500000 0.640660 0.500000 0.980674
Cu2   Cu    Cu3+1 0.500000 0.359340 0.500000 0.971010
H1    H     H_    0.484764 0.723825 0.876035 0.148065
H2    H     H_    0.759576 0.817511 0.571668 0.046419
H3    H     H_    0.746228 0.198715 0.581158 0.093884
H4    H     H_    0.330418 0.763460 0.377626 0.129127
H5    H     H_    0.094443 0.347457 0.325431 0.156650
H6    H     H_    0.906714 0.653924 0.674548 0.156149
H7    H     H_    0.768143 0.479944 0.350855 0.054166
H8    H     H_    0.230356 0.518935 0.649654 0.042808
H9    H     H_    0.516282 0.278336 0.123788 0.146848
H10   H     H_    0.465639 0.722076 0.123096 0.145419
H11   H     H_    0.480615 0.276622 0.876012 0.148558
H12   H     H_    0.488184 0.724623 0.738069 0.208763
H13   H     H_    0.523560 0.277608 0.262196 0.189414
H14   H     H_    0.471898 0.723127 0.261473 0.156760
H15   H     H_    0.483838 0.275791 0.738027 0.204918
H16   H     H_    0.305313 0.241055 0.395906 0.122728
N1    N     N_R   0.500000 0.852070 0.500000 -0.249011
N2    N     N_R   0.500000 0.147930 0.500000 -0.247511
O1    O     O_R   0.319640 0.618740 0.499990 -0.571155
O2    O     O_2   0.659956 0.838138 0.662928 -0.527881
O3    O     O_2   0.651109 0.143057 0.669620 -0.518581
O4    O     O_2   0.207995 0.895452 0.415193 -0.532378
O5    O     O_2   0.205108 0.509706 0.341192 -0.572877
O6    O     O_2   0.792230 0.495293 0.658042 -0.544262
O7    O     O_2   0.873484 0.317554 0.328353 -0.544625
O8    O     O_2   0.127510 0.684134 0.670751 -0.542571
O9    O     O_R   0.680360 0.381260 0.500010 -0.591907
O10   O     O_R   0.680360 0.618740 0.500010 -0.605469
O11   O     O_R   0.319640 0.381260 0.499990 -0.619228
O12   O     O_R   0.500000 0.618830 0.391250 -0.617303
O13   O     O_R   0.500000 0.381170 0.608750 -0.568826
O14   O     O_R   0.500000 0.618830 0.608750 -0.557933
O15   O     O_R   0.500000 0.381170 0.391250 -0.599183
O16   O     O_2   0.350086 0.096999 0.323612 -0.576260

loop_
_geom_bond_atom_site_label_1
_geom_bond_atom_site_label_2
_ccdc_geom_bond_type
C6    C10   A    
C9    C14   A    
C16   N2    A    
C5    C9    A    
C8    C13   A    
C11   H14   S    
C30   O8    D    
C2    O13   A    
C27   O5    D    
C12   O9    A    
C17   N1    A    
Cu2   O9    S    
C18   N2    A    
C6    C21   A    
C1    C4    S    
Cu1   O10   S    
C11   C15   A    
C36   O12   A    
C17   C18   A    
C4    C35   A    
C22   H16   S    
C5    C20   A    
C4    C32   A    
Cu1   O14   S    
C7    H10   S    
C7    C11   A    
C21   C31   S    
C8    C20   A    
C18   C25   S    
C2    O14   A    
C30   C35   S    
C16   C19   A    
C10   H13   S    
C8    H11   S    
C22   O16   D    
C29   O7    D    
C33   C35   A    
Cu1   Cu2   S    
C28   H6    S    
C28   C33   S    
C13   H15   S    
C10   C15   A    
C5    H1    S    
C7    C21   A    
C2    C14   S    
Cu2   O13   S    
C17   C24   S    
C6    H9    S    
C3    C33   A    
C19   N1    A    
C29   H7    S    
Cu1   N1    S    
Cu1   O12   S    
C27   H5    S    
C15   C36   S    
Cu2   N2    S    
Cu2   O11   S    
C26   H4    S    
C36   O15   A    
C24   O2    D    
C25   H3    S    
C12   O10   A    
C19   C26   S    
C1    O1    A    
Cu2   O15   S    
C16   C22   S    
C3    C12   S    
C25   O3    D    
C3    C34   A    
C24   H2    S    
C27   C32   S    
C13   C14   A    
C20   C23   S    
C26   O4    D    
C29   C34   S    
C30   H8    S    
Cu1   O1    S    
C1    O11   A    
C28   O6    D    
C9    H12   S    
C23   C31   T    
C32   C34   A    
