data_mof_unit_20320.cif
_audit_creation_date              2013-03-05T16:00:53-0500
_audit_creation_method            fapswitch 2.2
_symmetry_space_group_name_H-M    P1
_symmetry_Int_Tables_number       1
_space_group_crystal_system       triclinic
_cell_length_a                    20.282107
_cell_length_b                    21.790665
_cell_length_c                    14.331518
_cell_angle_alpha                 89.9465
_cell_angle_beta                  90.869843
_cell_angle_gamma                 90.007878
_cell_volume                      6333.23355493

loop_
_atom_site_label
_atom_site_type_symbol
_atom_site_description
_atom_site_fract_x
_atom_site_fract_y
_atom_site_fract_z
_atom_type_partial_charge
O1    O     O_R   0.066090 0.433930 0.580280 -0.629398
O2    O     O_R   0.933910 0.566070 0.419720 -0.626222
O3    O     O_R   0.933910 0.566070 0.580280 -0.633052
O4    O     O_R   0.066090 0.433930 0.419720 -0.631164
O5    O     O_R   0.933910 0.433930 0.419720 -0.631266
O6    O     O_R   0.066090 0.566070 0.580280 -0.624166
O7    O     O_R   0.066090 0.566070 0.419720 -0.634809
O8    O     O_R   0.933910 0.433930 0.580280 -0.630889
O9    O     O_R   0.566090 0.933930 0.580280 -0.629387
O10   O     O_R   0.433910 0.066070 0.419720 -0.625676
O11   O     O_R   0.433910 0.066070 0.580280 -0.633213
O12   O     O_R   0.566090 0.933930 0.419720 -0.631435
O13   O     O_R   0.433910 0.933930 0.419720 -0.631473
O14   O     O_R   0.566090 0.066070 0.580280 -0.624149
O15   O     O_R   0.566090 0.066070 0.419720 -0.634833
O16   O     O_R   0.433910 0.933930 0.580280 -0.630774
C1    C     C_R   0.086359 0.413757 0.500140 0.863044
C2    C     C_R   0.913449 0.586022 0.499436 0.868421
C3    C     C_R   0.913671 0.413740 0.499908 0.862961
C4    C     C_R   0.086529 0.586035 0.500500 0.867858
C5    C     C_R   0.586357 0.913754 0.500139 0.862961
C6    C     C_R   0.413454 0.086026 0.499436 0.868780
C7    C     C_R   0.413671 0.913742 0.499907 0.862150
C8    C     C_R   0.586530 0.086037 0.500502 0.868827
Zn1   Zn    Zn3+2 0.000000 0.500000 0.607200 0.942598
Zn2   Zn    Zn3+2 0.000000 0.500000 0.392800 0.938528
Zn3   Zn    Zn3+2 0.500000 1.000000 0.607200 0.942767
Zn4   Zn    Zn3+2 0.500000 1.000000 0.392800 0.938821
C9    C     C_R   0.120115 0.687534 0.452074 -0.153220
C10   C     C_R   0.880253 0.312150 0.549369 -0.134522
C11   C     C_R   0.879512 0.687143 0.548740 -0.166433
C12   C     C_R   0.120048 0.312477 0.449895 -0.123373
C13   C     C_R   0.620104 0.187550 0.452076 -0.157788
C14   C     C_R   0.380340 0.812084 0.549169 -0.134500
C15   C     C_R   0.379549 0.187175 0.548672 -0.164945
C16   C     C_R   0.620067 0.812494 0.449818 -0.123793
C17   C     C_R   0.133660 0.634236 0.501964 -0.069606
C18   C     C_R   0.865935 0.365964 0.500956 -0.080798
C19   C     C_R   0.866337 0.634245 0.497843 -0.068890
C20   C     C_R   0.134097 0.365969 0.499155 -0.080418
C21   C     C_R   0.633633 0.134264 0.502007 -0.070539
C22   C     C_R   0.365955 0.865952 0.500932 -0.078879
C23   C     C_R   0.366347 0.134254 0.497843 -0.069243
C24   C     C_R   0.634093 0.865965 0.499148 -0.080477
C25   C     C_R   0.191557 0.626694 0.553521 -0.221352
C26   C     C_R   0.805144 0.375901 0.458455 -0.244214
C27   C     C_R   0.808809 0.627118 0.445299 -0.223275
C28   C     C_R   0.194654 0.375593 0.542504 -0.244159
C29   C     C_R   0.691444 0.126796 0.553784 -0.221296
C30   C     C_R   0.305148 0.875894 0.458482 -0.239492
C31   C     C_R   0.308794 0.127106 0.445363 -0.220878
C32   C     C_R   0.694632 0.875570 0.542557 -0.244593
C33   C     C_R   0.238381 0.672817 0.553574 0.076233
C34   C     C_R   0.758351 0.329792 0.458552 0.109384
C35   C     C_R   0.762034 0.673286 0.445146 0.079209
C36   C     C_R   0.241351 0.329404 0.542585 0.100981
C37   C     C_R   0.738228 0.172953 0.553945 0.073253
C38   C     C_R   0.258410 0.829737 0.458431 0.085279
C39   C     C_R   0.262018 0.173272 0.445214 0.078715
C40   C     C_R   0.741327 0.829379 0.542640 0.100061
C41   C     C_R   0.225281 0.727662 0.504163 0.013350
C42   C     C_R   0.772377 0.274196 0.505379 0.011619
C43   C     C_R   0.774737 0.727679 0.495750 0.020248
C44   C     C_R   0.227586 0.274151 0.494814 0.008600
C45   C     C_R   0.725138 0.227788 0.504505 0.014982
C46   C     C_R   0.272501 0.774088 0.505082 0.013493
C47   C     C_R   0.274746 0.227687 0.495753 0.020762
C48   C     C_R   0.727581 0.774145 0.494805 0.007783
C49   C     C_R   0.165068 0.735783 0.453597 -0.018459
C50   C     C_R   0.833565 0.265314 0.553140 -0.025263
C51   C     C_R   0.834468 0.735287 0.547608 -0.005175
C52   C     C_R   0.166779 0.265705 0.445941 -0.016006
C53   C     C_R   0.664943 0.235893 0.453881 0.001950
C54   C     C_R   0.333699 0.765201 0.552813 -0.022204
C55   C     C_R   0.334504 0.235319 0.547540 -0.003818
C56   C     C_R   0.666799 0.765723 0.445860 -0.015950
C57   C     C_R   0.297920 0.664453 0.602110 -0.269439
C58   C     C_R   0.698187 0.338677 0.411938 -0.310885
C59   C     C_R   0.702945 0.665429 0.395305 -0.284733
C60   C     C_R   0.301094 0.337792 0.590497 -0.285752
C61   C     C_R   0.797731 0.164617 0.602580 -0.268130
C62   C     C_R   0.198241 0.838618 0.411822 -0.283086
C63   C     C_R   0.202902 0.165391 0.395448 -0.280362
C64   C     C_R   0.801046 0.837745 0.590620 -0.285656
C65   C     C_R   0.846032 0.210095 0.602483 0.451658
C66   C     C_R   0.151736 0.791729 0.406805 0.451974
C67   C     C_R   0.154666 0.210967 0.395381 0.453711
C68   C     C_R   0.847312 0.790650 0.596010 0.360046
C69   C     C_R   0.346214 0.709940 0.602026 0.450817
C70   C     C_R   0.651565 0.291872 0.407193 0.402043
C71   C     C_R   0.654713 0.711010 0.395226 0.454175
C72   C     C_R   0.347368 0.290703 0.595877 0.360417
H1    H     H_    0.073748 0.690721 0.414161 0.208409
H2    H     H_    0.928111 0.307770 0.582979 0.209189
H3    H     H_    0.925733 0.690169 0.587038 0.216015
H4    H     H_    0.072332 0.308257 0.415825 0.208488
H5    H     H_    0.573865 0.190625 0.413832 0.207649
H6    H     H_    0.428210 0.807703 0.582746 0.208872
H7    H     H_    0.425791 0.190218 0.586916 0.216107
H8    H     H_    0.572366 0.808288 0.415700 0.208725
H9    H     H_    0.200577 0.584266 0.591402 0.128193
H10   H     H_    0.794574 0.419796 0.426167 0.139809
H11   H     H_    0.800053 0.585002 0.406622 0.127953
H12   H     H_    0.205089 0.419269 0.575423 0.141079
H13   H     H_    0.700451 0.084384 0.591711 0.128577
H14   H     H_    0.294537 0.919815 0.426301 0.140197
H15   H     H_    0.300018 0.084973 0.406736 0.128719
H16   H     H_    0.705056 0.919233 0.575520 0.141300
H17   H     H_    0.306732 0.621977 0.639607 0.207876
H18   H     H_    0.688079 0.382077 0.377999 0.183385
H19   H     H_    0.694440 0.623298 0.356862 0.194506
H20   H     H_    0.311139 0.380952 0.625098 0.195289
H21   H     H_    0.806524 0.122155 0.640125 0.207894
H22   H     H_    0.188001 0.882084 0.378130 0.207717
H23   H     H_    0.194378 0.123242 0.357059 0.196303
H24   H     H_    0.811080 0.880891 0.625262 0.195723
C73   C     C_R   0.941030 0.503980 0.798037 0.161478
C74   C     C_R   0.058959 0.504079 0.201955 0.161914
C75   C     C_R   0.058888 0.498491 0.800833 0.172329
C76   C     C_R   0.941100 0.498367 0.199195 0.168663
C77   C     C_R   0.441029 0.003972 0.798036 0.161504
C78   C     C_R   0.558958 0.004090 0.201955 0.162043
C79   C     C_R   0.558887 0.998505 0.800835 0.172235
C80   C     C_R   0.441101 0.998354 0.199195 0.168994
N1    N     N_R   0.000000 0.500000 0.750030 -0.129993
N2    N     N_R   1.000000 0.500000 0.249970 -0.130695
N3    N     N_R   0.500000 1.000000 0.750030 -0.130027
N4    N     N_R   0.500000 1.000000 0.249970 -0.130758
C81   C     C_R   0.059422 0.501844 0.900924 0.010407
C82   C     C_R   0.940549 0.501644 0.099089 0.009602
C83   C     C_R   0.940365 0.502864 0.898219 0.018145
C84   C     C_R   0.059612 0.503008 0.101782 0.017690
C85   C     C_R   0.559420 0.001865 0.900925 0.010882
C86   C     C_R   0.440547 0.001627 0.099089 0.010082
C87   C     C_R   0.440363 0.002852 0.898219 0.018433
C88   C     C_R   0.559610 0.003026 0.101782 0.018237
C89   C     C_R   0.999931 0.502073 0.949650 0.057151
C90   C     C_R   0.000041 0.502062 0.050360 0.055771
C91   C     C_R   0.499929 0.002077 0.949650 0.057353
C92   C     C_R   0.500039 0.002064 0.050360 0.055960
C93   C     C_R   0.118455 0.504487 0.954122 -0.188631
C94   C     C_R   0.881505 0.504087 0.045881 -0.190771
C95   C     C_R   0.881335 0.503540 0.948948 -0.197416
C96   C     C_R   0.118634 0.503872 0.051049 -0.194747
C97   C     C_R   0.618452 0.004530 0.954122 -0.188553
C98   C     C_R   0.381502 0.004047 0.045880 -0.190132
C99   C     C_R   0.381333 0.003507 0.948947 -0.197569
C100  C     C_R   0.618632 0.003910 0.051049 -0.195360
H25   H     H_    0.166190 0.506746 0.922465 0.170030
H26   H     H_    0.833753 0.506141 0.077530 0.170238
H27   H     H_    0.833333 0.503781 0.915571 0.160530
H28   H     H_    0.166643 0.504215 0.084420 0.160155
H29   H     H_    0.666186 0.006808 0.922465 0.169632
H30   H     H_    0.333749 0.006080 0.077528 0.169933
H31   H     H_    0.333333 0.003737 0.915569 0.160085
H32   H     H_    0.666641 0.004263 0.084418 0.159125
S1    S     S_3+6 0.920516 0.196193 0.665502 0.030955
O17   O     O_2   0.977399 0.198154 0.599548 -0.262930
O18   O     O_2   0.929715 0.245039 0.738554 -0.304012
O19   O     O_3   0.918677 0.127065 0.717768 -0.539164
H33   H     H_    0.961918 0.123288 0.750329 0.399331
S2    S     S_3+6 0.078398 0.804927 0.340750 0.028948
O20   O     O_2   0.073340 0.758189 0.263883 -0.315134
O21   O     O_2   0.019838 0.798772 0.403099 -0.255863
O22   O     O_3   0.078707 0.875645 0.293548 -0.540118
H34   H     H_    0.035425 0.879542 0.261066 0.401377
S3    S     S_3+6 0.080716 0.198127 0.330502 0.032495
O23   O     O_2   0.083250 0.137884 0.279628 -0.267405
O24   O     O_2   0.023496 0.197581 0.395942 -0.267114
O25   O     O_3   0.070357 0.255174 0.252499 -0.565390
H35   H     H_    0.025274 0.249264 0.226503 0.388454
S4    S     S_3+6 0.919542 0.802430 0.665289 0.049272
O26   O     O_2   0.978910 0.799895 0.603976 -0.206620
O27   O     O_2   0.917883 0.863706 0.713325 -0.262757
O28   O     O_3   0.925960 0.746754 0.746293 -0.543823
H36   H     H_    0.882273 0.745465 0.776212 0.342092
S5    S     S_3+6 0.420725 0.696018 0.664969 0.030163
O29   O     O_2   0.477594 0.698120 0.599001 -0.264352
O30   O     O_2   0.429888 0.744772 0.738171 -0.303652
O31   O     O_3   0.418965 0.626816 0.717017 -0.539421
H37   H     H_    0.462209 0.623041 0.749571 0.399401
S6    S     S_3+6 0.578086 0.305111 0.341383 0.045882
O32   O     O_2   0.573701 0.259243 0.263286 -0.269621
O33   O     O_2   0.519185 0.297333 0.402712 -0.262982
O34   O     O_3   0.577168 0.376181 0.295354 -0.506802
H38   H     H_    0.566119 0.403670 0.347872 0.370449
S7    S     S_3+6 0.580808 0.698210 0.330222 0.030466
O35   O     O_2   0.583376 0.637996 0.279275 -0.269935
O36   O     O_2   0.523537 0.697630 0.395573 -0.268300
O37   O     O_3   0.570512 0.755301 0.252280 -0.565386
H39   H     H_    0.525458 0.749394 0.226183 0.388795
S8    S     S_3+6 0.419636 0.302520 0.665062 0.048340
O38   O     O_2   0.478968 0.299995 0.603679 -0.213186
O39   O     O_2   0.417982 0.363805 0.713073 -0.262215
O40   O     O_3   0.426127 0.246864 0.746087 -0.540846
H40   H     H_    0.382459 0.245563 0.776059 0.342904
C101  C     C_3   0.875612 0.510954 0.745895 -0.369929
C102  C     C_3   0.848406 0.576836 0.753034 -0.365694
C103  C     C_3   0.782017 0.582844 0.702260 -0.824174
H41   H     H_    0.785967 0.567804 0.628596 0.260099
H42   H     H_    0.744403 0.554276 0.737358 0.270538
H43   H     H_    0.765727 0.631496 0.703193 0.258643
H44   H     H_    0.841878 0.590676 0.826732 0.226745
H45   H     H_    0.883809 0.609839 0.722675 0.265116
H46   H     H_    0.879122 0.498932 0.672691 0.261345
H47   H     H_    0.839414 0.476953 0.771624 0.178863
C104  C     C_3   0.124381 0.511011 0.254092 -0.380631
C105  C     C_3   0.151663 0.576879 0.246949 -0.352175
C106  C     C_3   0.218112 0.582718 0.297610 -0.809545
H48   H     H_    0.214205 0.567539 0.371256 0.257145
H49   H     H_    0.255647 0.554174 0.262396 0.269295
H50   H     H_    0.234486 0.631351 0.296734 0.265009
H51   H     H_    0.158143 0.590833 0.173254 0.231153
H52   H     H_    0.116344 0.609874 0.277417 0.265767
H53   H     H_    0.120861 0.498961 0.327311 0.262664
H54   H     H_    0.160551 0.477013 0.228386 0.180997
C107  C     C_3   0.124745 0.493439 0.752392 -0.385262
C108  C     C_3   0.158289 0.430894 0.771452 -0.383687
C109  C     C_3   0.233409 0.436440 0.772638 -0.834830
H55   H     H_    0.250732 0.460686 0.709477 0.253524
H56   H     H_    0.250562 0.462484 0.834902 0.269554
H57   H     H_    0.255724 0.389958 0.775806 0.270228
H58   H     H_    0.143275 0.410794 0.839109 0.242282
H59   H     H_    0.142554 0.397431 0.717340 0.254033
H60   H     H_    0.121004 0.499840 0.677232 0.245346
H61   H     H_    0.156568 0.532349 0.775061 0.186646
C110  C     C_3   0.875245 0.493407 0.247704 -0.385091
C111  C     C_3   0.841671 0.430815 0.229267 -0.388208
C112  C     C_3   0.766548 0.436334 0.228538 -0.824457
H62   H     H_    0.749432 0.460855 0.291499 0.248152
H63   H     H_    0.749197 0.462099 0.166036 0.268697
H64   H     H_    0.744216 0.389838 0.226187 0.279330
H65   H     H_    0.856490 0.410620 0.161646 0.240929
H66   H     H_    0.857558 0.397451 0.283522 0.252690
H67   H     H_    0.879000 0.500021 0.322799 0.245917
H68   H     H_    0.843410 0.532245 0.224694 0.184986
C113  C     C_3   0.375612 0.010945 0.745894 -0.369719
C114  C     C_3   0.348403 0.076826 0.753044 -0.366718
C115  C     C_3   0.282013 0.082834 0.702270 -0.821537
H69   H     H_    0.285964 0.067799 0.628605 0.260583
H70   H     H_    0.244400 0.054262 0.737364 0.270817
H71   H     H_    0.265722 0.131486 0.703210 0.258327
H72   H     H_    0.341873 0.090658 0.826746 0.227257
H73   H     H_    0.383804 0.109833 0.722690 0.265089
H74   H     H_    0.379123 0.998931 0.672687 0.261475
H75   H     H_    0.339415 0.976940 0.771614 0.178848
C116  C     C_3   0.624380 0.011022 0.254093 -0.380908
C117  C     C_3   0.651655 0.076894 0.246973 -0.351235
C118  C     C_3   0.718083 0.082742 0.297688 -0.811604
H76   H     H_    0.714146 0.067577 0.371337 0.257384
H77   H     H_    0.755634 0.054192 0.262518 0.268009
H78   H     H_    0.734458 0.131375 0.296805 0.265515
H79   H     H_    0.658163 0.090849 0.173284 0.231394
H80   H     H_    0.616319 0.109885 0.277411 0.264990
H81   H     H_    0.620860 0.998959 0.327308 0.262645
H82   H     H_    0.660555 0.977032 0.228376 0.179778
C119  C     C_3   0.624745 0.993453 0.752397 -0.384928
C120  C     C_3   0.658299 0.930917 0.771493 -0.383304
C121  C     C_3   0.733417 0.936476 0.772696 -0.837367
H83   H     H_    0.750746 0.960698 0.709517 0.254139
H84   H     H_    0.750557 0.962548 0.834940 0.268834
H85   H     H_    0.755740 0.889998 0.775920 0.269884
H86   H     H_    0.643281 0.910827 0.839155 0.241879
H87   H     H_    0.642575 0.897441 0.717394 0.254074
H88   H     H_    0.621003 0.999835 0.677234 0.245250
H89   H     H_    0.656561 0.032373 0.775046 0.186770
C122  C     C_3   0.375248 0.993378 0.247706 -0.383783
C123  C     C_3   0.341706 0.930768 0.229295 -0.391368
C124  C     C_3   0.266581 0.936252 0.228558 -0.823184
H90   H     H_    0.249454 0.960778 0.291507 0.252366
H91   H     H_    0.249218 0.961996 0.166042 0.267419
H92   H     H_    0.244274 0.889745 0.226230 0.276842
H93   H     H_    0.356539 0.910568 0.161682 0.240869
H94   H     H_    0.357605 0.897421 0.283567 0.252675
H95   H     H_    0.378998 0.000014 0.322797 0.245847
H96   H     H_    0.343394 0.032198 0.224677 0.185520

loop_
_geom_bond_atom_site_label_1
_geom_bond_atom_site_label_2
_geom_bond_distance
_ccdc_geom_bond_type
C84   C96   1.410121 A    
C63   C67   1.394165 A    
C10   C18   1.390438 A    
C105  H51   1.108518 S    
C68   S4    1.775963 S    
O5    Zn2   2.008118 S    
O2    C2    1.296847 A    
O7    C4    1.299123 A    
C101  H46   1.084968 S    
C120  H86   1.110355 S    
C14   C22   1.390439 A    
C30   H14   1.082232 S    
C94   H26   1.076624 S    
C88   C92   1.405815 A    
C121  H85   1.110059 S    
C23   C31   1.387817 A    
C97   C100  1.389106 A    
O34   H38   0.990706 S    
C47   C55   1.421395 A    
C45   C53   1.421639 A    
C108  H58   1.110357 S    
S3    O24   1.503200 D    
C79   C119  1.518726 S    
C87   C91   1.405736 A    
C110  H68   1.111333 S    
C26   H10   1.082209 S    
C122  H95   1.087497 S    
C118  H76   1.109768 S    
O22   H34   0.991002 S    
O7    Zn2   2.000799 S    
C65   S1    1.774215 S    
C79   C85   1.436257 A    
C76   C82   1.436251 A    
C54   C69   1.415964 A    
C19   C27   1.387829 A    
C115  H69   1.109762 S    
C39   C63   1.396419 A    
C53   C70   1.415036 A    
C77   N3    1.391585 A    
C112  H64   1.110082 S    
C38   C62   1.395696 A    
C86   C92   1.403322 A    
C117  H80   1.109495 S    
O6    Zn1   2.008115 S    
C81   C93   1.410847 A    
O25   H35   0.990546 S    
C41   C49   1.421596 A    
C46   C54   1.421309 A    
C114  H73   1.109434 S    
C106  H50   1.110630 S    
C29   C37   1.382624 A    
O13   C7    1.302310 A    
O3    C2    1.299286 A    
C20   C28   1.384009 A    
C119  C120  1.545593 S    
Zn2   N2    2.046972 S    
O14   C8    1.296842 A    
Zn1   N1    2.046971 S    
S6    O32   1.502883 D    
C104  H54   1.109776 S    
S7    O37   1.682093 S    
C32   C40   1.382113 A    
C61   H21   1.083354 S    
C114  C115  1.526392 S    
Zn3   N3    2.046971 S    
C41   C46   1.392908 A    
C38   C46   1.411367 A    
S1    O17   1.503107 D    
C67   S3    1.774961 S    
C70   S6    1.775029 S    
C100  H32   1.078325 S    
C105  C106  1.526473 S    
S5    O30   1.503303 D    
C35   C43   1.411750 A    
C123  H93   1.110354 S    
C103  H43   1.110655 S    
C36   C44   1.411376 A    
O13   Zn4   2.008118 S    
C102  C103  1.526392 S    
C66   S2    1.774346 S    
C69   S5    1.774215 S    
O14   Zn3   2.008115 S    
C115  H71   1.110656 S    
C99   H31   1.078191 S    
C59   C71   1.394171 A    
S4    O28   1.682075 S    
C107  H61   1.111320 S    
C80   N4    1.389789 A    
C97   H29   1.076517 S    
C116  H82   1.109775 S    
C24   C32   1.384000 A    
O16   Zn3   2.000802 S    
C95   H27   1.078221 S    
C96   H28   1.078326 S    
C25   C33   1.382679 A    
C103  H41   1.109764 S    
S1    O18   1.503306 D    
C124  H90   1.109345 S    
O1    Zn1   2.008898 S    
C8    C21   1.420111 S    
C42   C50   1.421317 A    
C26   C34   1.382035 A    
C101  H47   1.109723 S    
C33   C41   1.411771 A    
C31   H15   1.085796 S    
C15   H7    1.081152 S    
C117  C118  1.526480 S    
C83   C95   1.410188 A    
C21   C29   1.387564 A    
C111  C112  1.528284 S    
C10   C50   1.393701 A    
S4    O27   1.503469 D    
S3    O25   1.682097 S    
C9    C49   1.391519 A    
C31   C39   1.382870 A    
C86   C98   1.410904 A    
C122  H96   1.111331 S    
C118  H77   1.110629 S    
O8    C3    1.294357 A    
C27   H11   1.085793 S    
C98   C99   1.389212 A    
C93   H25   1.076520 S    
C104  C105  1.542069 S    
C30   C38   1.381998 A    
S8    O40   1.682072 S    
C63   H23   1.083581 S    
O3    Zn1   2.000548 S    
C119  H88   1.087534 S    
C62   H22   1.081467 S    
C12   C52   1.393651 A    
C93   C96   1.389113 A    
C109  H55   1.109355 S    
C117  H79   1.108515 S    
C10   H2    1.081233 S    
C29   H13   1.085837 S    
C34   C42   1.411298 A    
C123  H94   1.108324 S    
C107  C108  1.545591 S    
C62   C66   1.391605 A    
C114  H72   1.108560 S    
C18   C26   1.383882 A    
O10   C6    1.296849 A    
C51   C68   1.414356 A    
S6    O34   1.682737 S    
S8    O39   1.503466 D    
C60   C72   1.391978 A    
C33   C57   1.396293 A    
C2    C19   1.420326 S    
C44   C47   1.392849 A    
O37   H39   0.990533 S    
C112  H62   1.109354 S    
C83   C89   1.405738 A    
C3    C18   1.421812 S    
C109  H56   1.109431 S    
C5    C24   1.422240 S    
C35   C59   1.396419 A    
C39   C47   1.411753 A    
C79   N3    1.389702 A    
C110  C111  1.545556 S    
C98   H30   1.076622 S    
O11   Zn3   2.000548 S    
C122  C123  1.545558 S    
S5    O31   1.682341 S    
C15   C55   1.391167 A    
C60   H20   1.081495 S    
C104  H53   1.084863 S    
C106  H48   1.109760 S    
C113  H74   1.084960 S    
C115  H70   1.110621 S    
C48   C56   1.421062 A    
C77   C87   1.436220 A    
C73   C101  1.520409 S    
C57   H17   1.083350 S    
C28   H12   1.082088 S    
C7    C22   1.421757 S    
C76   C110  1.518900 S    
C78   C88   1.436109 A    
C111  H65   1.110348 S    
C88   C100  1.410118 A    
C25   H9    1.085837 S    
C55   C72   1.414375 A    
C22   C30   1.383882 A    
O4    C1    1.294342 A    
C75   N1    1.389707 A    
C13   C53   1.391584 A    
O15   C8    1.299168 A    
C12   H4    1.081290 S    
C14   C54   1.393716 A    
C85   C91   1.403247 A    
O16   C7    1.294362 A    
C87   C99   1.410188 A    
C124  H91   1.109492 S    
C102  H45   1.109424 S    
C37   C61   1.396289 A    
C16   C24   1.390574 A    
C85   C97   1.410842 A    
O8    Zn1   2.000802 S    
C121  H83   1.109355 S    
C82   C90   1.403322 A    
S3    O23   1.503478 D    
C52   C67   1.415707 A    
C15   C23   1.388429 A    
S4    O26   1.502433 D    
O9    Zn3   2.008898 S    
C27   C35   1.382877 A    
S2    O20   1.503321 D    
C84   C90   1.405810 A    
O10   Zn4   2.008897 S    
C28   C36   1.382130 A    
C71   S7    1.774963 S    
C43   C48   1.392841 A    
C106  H49   1.110628 S    
C118  H78   1.110630 S    
C105  H52   1.109497 S    
C80   C122  1.518891 S    
C42   C45   1.392886 A    
O31   H37   0.990559 S    
S2    O22   1.682411 S    
C111  H66   1.108325 S    
C120  H87   1.108345 S    
C119  H89   1.111322 S    
C64   C68   1.391961 A    
C37   C45   1.411772 A    
C121  H84   1.109427 S    
O2    Zn2   2.008897 S    
O4    Zn2   2.000548 S    
C91   C92   1.443300 A    
C16   H8    1.081291 S    
C108  H59   1.108345 S    
O5    C3    1.302340 A    
C80   C86   1.436251 A    
S1    O19   1.682342 S    
C110  H67   1.087486 S    
C89   C90   1.443301 A    
O11   C6    1.299283 A    
O1    C1    1.302565 A    
C36   C60   1.395730 A    
C59   H19   1.083581 S    
C40   C48   1.411374 A    
C13   C21   1.388582 A    
O19   H33   0.990570 S    
C14   H6    1.081234 S    
C120  C121  1.528192 S    
S7    O35   1.503476 D    
C112  H63   1.109491 S    
S2    O21   1.503011 D    
S8    O38   1.502429 D    
C109  H57   1.110061 S    
C9    H1    1.081150 S    
C4    C17   1.420049 S    
C40   C64   1.395724 A    
O9    C5    1.302584 A    
C108  C109  1.528195 S    
C73   N1    1.391585 A    
O6    C4    1.296858 A    
C58   C70   1.391732 A    
C77   C113  1.520407 S    
O12   C5    1.294332 A    
C11   C51   1.391142 A    
C57   C69   1.393427 A    
C75   C81   1.436259 A    
C11   C19   1.388410 A    
C113  H75   1.109722 S    
C74   C104  1.520477 S    
O28   H36   0.990584 S    
C76   N2    1.389792 A    
C12   C20   1.390550 A    
C78   N4    1.391479 A    
C101  C102  1.542131 S    
C73   C83   1.436216 A    
S6    O33   1.503308 D    
S7    O36   1.503189 D    
C44   C52   1.421069 A    
C74   C84   1.436113 A    
C11   H3    1.081150 S    
C56   C71   1.415716 A    
C58   H18   1.081264 S    
O40   H40   0.990591 S    
O15   Zn4   2.000799 S    
Zn4   N4    2.046972 S    
C16   C56   1.393657 A    
C81   C89   1.403255 A    
C123  C124  1.528260 S    
O12   Zn4   2.000548 S    
C64   H24   1.081480 S    
S5    O29   1.503100 D    
C124  H92   1.110086 S    
C9    C17   1.388559 A    
C102  H44   1.108555 S    
C103  H42   1.110621 S    
C94   C95   1.389204 A    
C82   C94   1.410898 A    
C32   H16   1.082080 S    
C74   N2    1.391478 A    
C13   H5    1.081089 S    
C75   C107  1.518739 S    
C113  C114  1.542126 S    
C50   C65   1.415947 A    
C17   C25   1.387573 A    
C43   C51   1.421386 A    
C1    C20   1.422225 S    
C6    C23   1.420329 S    
C61   C65   1.393395 A    
C49   C66   1.414939 A    
C72   S8    1.775970 S    
C116  C117  1.542071 S    
C107  H60   1.087535 S    
C78   C116  1.520481 S    
C34   C58   1.395668 A    
C116  H81   1.084865 S    
