data_mof_unit_12209.cif
_audit_creation_date              2012-12-10T18:05:42-0500
_audit_creation_method            fapswitch 2.2
_symmetry_space_group_name_H-M    P1
_symmetry_Int_Tables_number       1
_space_group_crystal_system       triclinic
_cell_length_a                    10.923151
_cell_length_b                    10.822645
_cell_length_c                    9.589799
_cell_angle_alpha                 91.693468
_cell_angle_beta                  91.243643
_cell_angle_gamma                 89.432785
_cell_volume                      1132.87026254

loop_
_atom_site_label
_atom_site_type_symbol
_atom_type_description
_atom_site_fract_x
_atom_site_fract_y
_atom_site_fract_z
_atom_type_partial_charge
C1    C     C_R   0.504544 0.262150 0.497623 0.789417
C2    C     C_R   0.495819 0.737286 0.502173 0.791491
C3    C     C_R   0.871787 0.508761 0.505711 -0.093834
C4    C     C_R   0.128228 0.502108 0.495589 -0.082587
C5    C     C_R   0.942647 0.490604 0.628227 0.006149
C6    C     C_R   0.057599 0.524033 0.373764 0.006713
C7    C     C_R   0.569130 0.053562 0.394615 0.098863
C8    C     C_R   0.423565 0.943272 0.597316 0.093533
C9    C     C_R   0.570250 0.926360 0.409885 -0.242595
C10   C     C_R   0.433131 0.071375 0.593766 -0.241567
C11   C     C_R   0.496512 0.870882 0.506076 -0.065703
C12   C     C_R   0.504075 0.127588 0.493594 -0.075117
C13   C     C_R   0.487325 0.392938 0.070409 -0.032181
C14   C     C_R   0.511603 0.607467 0.929607 -0.032328
C15   C     C_R   0.488243 0.392711 0.922606 -0.014861
C16   C     C_R   0.510708 0.607545 0.077415 -0.003581
C17   C     C_R   0.262286 0.499928 0.498246 0.787404
C18   C     C_R   0.737697 0.503373 0.501977 0.788291
C19   C     C_R   0.195081 0.654445 0.053419 -0.203599
C20   C     C_R   0.831225 0.360877 0.961110 -0.213170
C21   C     C_R   0.143814 0.647906 0.184928 -0.126517
C22   C     C_R   0.875893 0.367385 0.826683 -0.132524
C23   C     C_R   0.110150 0.533129 0.234929 0.102991
C24   C     C_R   0.890802 0.482620 0.767355 0.110694
C25   C     C_R   0.125677 0.425466 0.152266 -0.112261
C26   C     C_R   0.864793 0.591325 0.844536 -0.115137
C27   C     C_R   0.177725 0.431379 0.020771 0.258213
C28   C     C_R   0.818731 0.585090 0.979069 0.251530
C29   C     C_R   0.212710 0.546722 0.972077 -0.119701
C30   C     C_R   0.798324 0.468670 0.034916 -0.108967
C31   C     C_R   0.931183 0.529712 0.381366 -0.252380
C32   C     C_R   0.068975 0.485511 0.620934 -0.249746
Cu1   Cu    Cu3+1 0.500000 0.500020 0.640660 0.934639
Cu2   Cu    Cu3+1 0.500000 0.499980 0.359340 0.930166
H1    H     H_    0.255443 0.553752 0.872398 0.156082
H2    H     H_    0.757775 0.460162 0.135463 0.157914
H3    H     H_    0.477149 0.305730 0.866199 0.133936
H4    H     H_    0.519752 0.694846 0.133681 0.122114
H5    H     H_    0.222665 0.742811 0.015097 0.131421
H6    H     H_    0.823497 0.272346 0.008890 0.141647
H7    H     H_    0.131416 0.731504 0.248158 0.115745
H8    H     H_    0.900005 0.283171 0.769452 0.123976
H9    H     H_    0.098764 0.336944 0.191247 0.119015
H10   H     H_    0.880469 0.680495 0.799929 0.124635
H11   H     H_    0.879403 0.550598 0.288676 0.166455
H12   H     H_    0.120867 0.469222 0.715151 0.170047
H13   H     H_    0.626223 0.868843 0.341349 0.146898
H14   H     H_    0.378969 0.128341 0.664623 0.144801
H15   H     H_    0.474726 0.307173 0.121955 0.135207
H16   H     H_    0.522048 0.694125 0.878485 0.115048
N1    N     N_R   0.500030 0.500030 0.852070 -0.160346
N2    N     N_R   0.499970 0.499970 0.147930 -0.160138
O1    O     O_R   0.499990 0.319660 0.618740 -0.590702
O2    O     O_R   0.500010 0.680340 0.381260 -0.598806
O3    O     O_R   0.499990 0.319630 0.381170 -0.597958
O4    O     O_R   0.500010 0.680370 0.618830 -0.595238
O5    O     O_R   0.319650 0.500020 0.618780 -0.600146
O6    O     O_R   0.680350 0.499980 0.381220 -0.605291
O7    O     O_R   0.319640 0.500000 0.381210 -0.562265
O8    O     O_R   0.680360 0.500000 0.618790 -0.559830
C33   C     C_3   0.197318 0.314077 0.936247 -0.958678
H17   H     H_    0.242952 0.331281 0.836553 0.240141
H18   H     H_    0.255803 0.249350 0.996594 0.223512
H19   H     H_    0.108070 0.269374 0.912518 0.238377
C34   C     C_3   0.794627 0.702637 0.061469 -0.953734
H20   H     H_    0.752983 0.684590 0.163286 0.235633
H21   H     H_    0.882141 0.752088 0.081324 0.240367
H22   H     H_    0.731279 0.763221 0.001752 0.230420
C35   C     C_3   0.635354 0.099371 0.268547 -0.405409
C36   C     C_3   0.569002 0.052810 0.133317 -0.340072
C37   C     C_3   0.636612 0.085797 0.002578 -0.897843
H23   H     H_    0.732154 0.049780 0.006900 0.256824
H24   H     H_    0.589057 0.044319 0.909183 0.248587
H25   H     H_    0.636941 0.187078 0.992070 0.251511
H26   H     H_    0.560678 0.950568 0.131884 0.213856
H27   H     H_    0.474712 0.092073 0.128354 0.209211
H28   H     H_    0.645292 0.200723 0.267886 0.213650
H29   H     H_    0.730418 0.061548 0.270975 0.185920
C38   C     C_3   0.326985 0.889397 0.688707 -0.421096
C39   C     C_3   0.216007 0.846340 0.599750 -0.325042
C40   C     C_3   0.113299 0.801495 0.690219 -0.858840
H30   H     H_    0.145332 0.721851 0.751679 0.258412
H31   H     H_    0.081988 0.876869 0.762452 0.246097
H32   H     H_    0.034638 0.771623 0.622521 0.247020
H33   H     H_    0.180502 0.924317 0.537116 0.214439
H34   H     H_    0.243232 0.770060 0.526554 0.206617
H35   H     H_    0.364900 0.812774 0.750806 0.206599
H36   H     H_    0.295316 0.960490 0.766358 0.187567

loop_
_geom_bond_atom_site_label_1
_geom_bond_atom_site_label_2
_ccdc_geom_bond_type
C27   C29   A    
C35   H28   S    
C25   H9    S    
C38   H35   S    
C40   H30   S    
C26   H10   S    
C20   C30   A    
C26   C28   A    
C19   H5    S    
C19   C21   A    
C24   C26   A    
C20   H6    S    
C3    C18   S    
C33   H18   S    
C1    O1    A    
C15   H3    S    
C39   H34   S    
C27   C33   S    
C18   O6    A    
C34   H21   S    
C8    C38   S    
C36   C37   S    
C15   N1    A    
C5    C32   A    
Cu1   O4    S    
C6    C31   A    
Cu2   O3    S    
C35   H29   S    
C33   H17   S    
C1    C12   S    
C2    C11   S    
C38   H36   S    
C40   H31   S    
C21   C23   A    
Cu1   O1    S    
C7    C12   A    
C14   H16   S    
C4    C6    A    
C2    O2    A    
C37   H24   S    
C33   H19   S    
C39   H33   S    
C13   N2    A    
C14   N1    A    
C34   H22   S    
Cu1   Cu2   S    
C4    C32   A    
C3    C31   A    
C9    C11   A    
C13   H15   S    
C10   C12   A    
C17   O7    A    
C21   H7    S    
C4    C17   S    
C18   O8    A    
C20   C22   A    
Cu2   O2    S    
Cu1   O8    S    
C13   C15   A    
C10   H14   S    
Cu2   O7    S    
C14   C16   A    
C25   C27   A    
C19   C29   A    
C40   H32   S    
C7    C9    A    
Cu1   O5    S    
C32   H12   S    
C16   N2    A    
C39   C40   S    
C3    C5    A    
C7    C35   S    
C37   H25   S    
C9    H13   S    
Cu1   N1    S    
C29   H1    S    
Cu2   N2    S    
C30   H2    S    
C28   C30   A    
C28   C34   S    
C1    O3    A    
C37   H23   S    
C2    O4    A    
C36   H27   S    
C22   H8    S    
C5    C24   S    
C8    C11   A    
C6    C23   S    
C22   C24   A    
C23   C25   A    
C35   C36   S    
C38   C39   S    
C8    C10   A    
C34   H20   S    
C31   H11   S    
C16   H4    S    
C36   H26   S    
Cu2   O6    S    
C17   O5    A    
