data_mof_unit_24146.cif
_audit_creation_date              2012-12-10T17:17:24-0500
_audit_creation_method            fapswitch 2.2
_symmetry_space_group_name_H-M    P1
_symmetry_Int_Tables_number       1
_space_group_crystal_system       triclinic
_cell_length_a                    10.24678
_cell_length_b                    10.600388
_cell_length_c                    12.498426
_cell_angle_alpha                 93.955233
_cell_angle_beta                  110.391869
_cell_angle_gamma                 94.762574
_cell_volume                      1261.12112252

loop_
_atom_site_label
_atom_site_type_symbol
_atom_type_description
_atom_site_fract_x
_atom_site_fract_y
_atom_site_fract_z
_atom_type_partial_charge
C1    C     C_R   0.045142 0.732317 0.486109 0.990529
C2    C     C_R   0.420184 0.461571 0.989714 0.132019
C3    C     C_R   0.330857 0.439651 0.874313 0.045294
C4    C     C_R   0.553637 0.419574 0.021178 0.010252
C5    C     C_R   0.608360 0.380819 0.937136 0.102211
C6    C     C_R   0.515251 0.343232 0.826095 -0.159675
C7    C     C_R   0.374356 0.361403 0.798433 -0.118982
C8    C     C_R   0.634587 0.414127 0.134705 0.353179
C9    C     C_R   0.840745 0.418543 0.082156 -0.117247
C10   C     C_R   0.206767 0.502099 0.837828 -0.255547
C11   C     C_2   0.053248 0.862991 0.459576 -0.347823
C12   C     C_R   0.133921 0.506825 0.714094 0.924356
C13   C     C_2   0.935158 0.918465 0.411278 -0.130826
C14   C     C_2   0.910219 0.128516 0.481532 -0.394599
C15   C     C_2   0.949458 0.054326 0.408073 0.442173
C16   C     C_2   0.434154 0.515942 0.516663 0.407498
C17   C     C_2   0.574034 0.473289 0.521886 -0.133682
C18   C     C_R   0.946131 0.265669 0.499424 0.948077
C19   C     C_R   0.862810 0.478318 0.286668 0.986875
C20   C     C_R   0.753598 0.377746 0.968594 -0.142257
C21   C     C_R   0.780040 0.438596 0.166261 -0.153705
C22   C     C_R   0.166791 0.572707 0.920965 0.427513
C23   C     C_R   0.254482 0.585429 0.035867 -0.215686
C24   C     C_R   0.381339 0.535783 0.068891 -0.167686
H1    H     H_    0.953467 0.428118 0.104945 0.197539
H2    H     H_    0.856866 0.085564 0.533814 0.161235
H3    H     H_    0.155827 0.918221 0.488296 0.189027
H4    H     H_    0.580361 0.372791 0.504189 0.177258
H5    H     H_    0.670592 0.646943 0.535540 0.253891
H6    H     H_    0.322485 0.361706 0.414141 0.207416
H7    H     H_    0.550293 0.298522 0.761889 0.148039
H8    H     H_    0.799108 0.350529 0.905398 0.188933
H9    H     H_    0.452472 0.562992 0.155854 0.205599
H10   H     H_    0.229713 0.641619 0.100383 0.209735
H11   H     H_    0.303030 0.318183 0.715709 0.163030
N1    N     N_2   0.313640 0.446500 0.454900 -0.223650
N2    N     N_2   0.686360 0.553430 0.545150 -0.135169
O1    O     O_R   0.936910 0.692950 0.509080 -0.614476
O2    O     O_R   0.138320 0.658600 0.480130 -0.521751
O3    O     O_R   0.002900 0.525670 0.675280 -0.526371
O4    O     O_R   0.204310 0.491320 0.646330 -0.598360
O5    O     O_R   0.861680 0.341400 0.519870 -0.590807
O6    O     O_R   0.063090 0.307050 0.490920 -0.585919
O7    O     O_R   0.795690 0.508680 0.353670 -0.561033
O8    O     O_R   0.997100 0.474330 0.324720 -0.596681
Zn1   Zn    Zn3+2 0.865520 0.522940 0.519330 1.093658
Zn2   Zn    Zn3+2 0.134480 0.477060 0.480670 1.083442
C25   C     C_2   0.792787 0.849355 0.351098 1.005478
O9    O     O_2   0.777449 0.750985 0.288947 -0.625278
O10   O     O_R   0.675588 0.901486 0.360005 -0.771556
H12   H     H_    0.584488 0.846817 0.313954 0.362046
S1    S     S_3+6 0.446235 0.671953 0.591920 0.046664
O11   O     O_2   0.351540 0.685593 0.658758 -0.261389
O12   O     O_2   0.591648 0.710092 0.677783 -0.320426
O13   O     O_3   0.411766 0.776654 0.493195 -0.551425
H13   H     H_    0.433671 0.861522 0.537870 0.386907
S2    S     S_3+6 0.558454 0.318413 0.214100 0.040098
O14   O     O_2   0.664970 0.242887 0.289584 -0.268493
O15   O     O_2   0.502404 0.400845 0.286271 -0.371898
O16   O     O_3   0.425095 0.217029 0.122394 -0.520243
H14   H     H_    0.382422 0.172796 0.171552 0.399785
S3    S     S_3+6 0.017830 0.658652 0.886630 0.052617
O17   O     O_2   0.010544 0.728017 0.993190 -0.285758
O18   O     O_2   0.027405 0.754121 0.805371 -0.253957
O19   O     O_3   0.870918 0.557252 0.824237 -0.563220
H15   H     H_    0.794752 0.602970 0.834071 0.406926
S4    S     S_3+6 0.019345 0.107159 0.305384 0.059371
O20   O     O_2   0.944964 0.214058 0.248769 -0.295427
O21   O     O_2   0.173059 0.150183 0.363569 -0.333102
O22   O     O_3   0.998650 0.985765 0.204671 -0.494061
H16   H     H_    0.043798 0.020308 0.152835 0.399494

loop_
_geom_bond_atom_site_label_1
_geom_bond_atom_site_label_2
_ccdc_geom_bond_type
C12   O3    A    
C13   C25   S    
C2    C4    A    
C23   C24   A    
C19   O8    A    
O22   H16   S    
C11   H3    S    
C8    S2    S    
C22   S3    S    
C14   C18   S    
C9    C20   A    
C24   H9    S    
C1    C11   S    
S1    O13   S    
H6    N1    S    
C4    C8    A    
S4    O22   S    
C15   S4    S    
C23   H10   S    
O13   H13   S    
C25   O10   S    
C6    H7    S    
O4    Zn2   S    
C9    H1    S    
C3    C10   A    
C17   N2    D    
C18   O6    A    
C14   H2    S    
O3    Zn1   S    
C11   C13   D    
C9    C21   A    
S2    O14   D    
C12   O4    A    
C10   C12   S    
C1    O1    A    
C20   H8    S    
C7    H11   S    
C25   O9    D    
C19   C21   S    
S1    O12   D    
C2    C3    A    
C6    C7    A    
C3    C7    A    
C18   O5    A    
C13   C15   S    
C2    C24   A    
C5    C6    A    
S2    O15   D    
O1    Zn1   S    
C1    O2    A    
S4    O20   D    
C19   O7    A    
N1    Zn2   S    
O2    Zn2   S    
O19   H15   S    
O5    Zn1   S    
O8    Zn2   S    
H5    N2    S    
C5    C20   A    
C14   C15   D    
O16   H14   S    
S2    O16   S    
S3    O18   D    
O7    Zn1   S    
S3    O19   S    
O10   H12   S    
N2    Zn1   S    
C22   C23   A    
C17   H4    S    
O6    Zn2   S    
C10   C22   A    
C16   N1    D    
S3    O17   D    
C16   S1    S    
C16   C17   S    
S1    O11   D    
C4    C5    A    
S4    O21   D    
C8    C21   A    
