data_mof_unit_12683.cif
_audit_creation_date              2012-12-10T17:59:15-0500
_audit_creation_method            fapswitch 2.2
_symmetry_space_group_name_H-M    P1
_symmetry_Int_Tables_number       1
_space_group_crystal_system       triclinic
_cell_length_a                    10.8054
_cell_length_b                    9.508929
_cell_length_c                    10.814984
_cell_angle_alpha                 90.224384
_cell_angle_beta                  90.907295
_cell_angle_gamma                 89.920448
_cell_volume                      1111.06679492

loop_
_atom_site_label
_atom_site_type_symbol
_atom_type_description
_atom_site_fract_x
_atom_site_fract_y
_atom_site_fract_z
_atom_type_partial_charge
C1    C     C_R   0.262145 0.500053 0.501815 0.791601
C2    C     C_3   0.619345 0.444454 0.930599 -0.553911
C3    C     C_R   0.064358 0.372408 0.510338 -0.219633
C4    C     C_R   0.063803 0.627760 0.499643 -0.209161
C5    C     C_R   0.936458 0.372306 0.509462 -0.172911
C6    C     C_R   0.935968 0.627663 0.498694 -0.143373
C7    C     C_R   0.871852 0.499910 0.502902 0.007530
C8    C     C_R   0.128406 0.500096 0.504271 -0.015795
C9    C     C_R   0.408943 0.073965 0.439632 0.006739
C10   C     C_R   0.409082 0.925327 0.439491 0.007650
C11   C     C_R   0.590943 0.925735 0.561068 -0.018015
C12   C     C_R   0.590746 0.074612 0.561373 0.047977
C13   C     C_R   0.493750 0.500066 0.259998 0.965143
C14   C     C_R   0.737958 0.499932 0.500846 0.829752
C15   C     C_R   0.498229 0.500405 0.740302 0.945171
C16   C     C_3   0.468714 0.655023 0.070966 0.211255
C17   C     C_3   0.388074 0.399094 0.070135 0.173843
C18   C     C_3   0.475514 0.660122 0.926086 0.562188
C19   C     C_3   0.385238 0.403240 0.924803 0.612543
C20   C     C_3   0.620547 0.445387 0.073948 0.562418
C21   C     C_3   0.490607 0.500715 0.122080 -0.317037
C22   C     C_3   0.494182 0.502217 0.878600 -0.196165
Cu1   Cu    Cu3+1 0.500020 0.640660 0.500000 1.004574
Cu2   Cu    Cu3+1 0.500020 0.359340 0.500000 0.996969
H1    H     H_    0.553659 0.710021 0.102639 0.222517
H2    H     H_    0.418468 0.292074 0.099369 0.168611
H3    H     H_    0.663427 0.869842 0.610483 0.158030
H4    H     H_    0.663048 0.130764 0.611050 0.125427
H5    H     H_    0.698567 0.505046 0.894274 0.243438
H6    H     H_    0.635553 0.336595 0.894448 0.257701
H7    H     H_    0.112760 0.272667 0.514698 0.149272
H8    H     H_    0.111724 0.727561 0.495478 0.147342
H9    H     H_    0.888498 0.272516 0.513509 0.155859
H10   H     H_    0.887654 0.727440 0.494049 0.157869
H11   H     H_    0.335532 0.129003 0.391660 0.090345
H12   H     H_    0.336427 0.869128 0.391041 0.138444
N1    N     N_R   0.500030 0.852070 0.500030 -0.174485
N2    N     N_R   0.500030 0.147930 0.500030 -0.155151
O1    O     O_R   0.319660 0.618740 0.499990 -0.602357
O2    O     O_R   0.319660 0.381260 0.499990 -0.612028
O3    O     O_R   0.499990 0.618790 0.317690 -0.534121
O4    O     O_R   0.499990 0.381210 0.317690 -0.564630
O5    O     O_R   0.680370 0.618830 0.500010 -0.590302
O6    O     O_R   0.680370 0.381170 0.500010 -0.589333
O7    O     O_R   0.500030 0.618780 0.682310 -0.546576
O8    O     O_R   0.500030 0.381220 0.682310 -0.555693
O9    O     O_3   0.379100 0.739406 0.133950 -0.577560
C23   C     C_3   0.253967 0.731720 0.094745 0.206470
H13   H     H_    0.232418 0.646312 0.029405 0.258859
H14   H     H_    0.228634 0.832194 0.049700 0.139949
C24   C     C_3   0.171325 0.718349 0.206518 -0.770675
H15   H     H_    0.170021 0.818691 0.259145 0.205070
H16   H     H_    0.075156 0.693737 0.175905 0.237238
H17   H     H_    0.205960 0.633487 0.267774 0.268903
O10   O     O_3   0.269699 0.430742 0.118938 -0.578194
C25   C     C_3   0.216326 0.314103 0.178949 -0.017464
H18   H     H_    0.259206 0.303105 0.271900 0.169122
H19   H     H_    0.228221 0.214264 0.126122 0.153884
C26   C     C_3   0.078034 0.338120 0.193905 -0.684346
H20   H     H_    0.030939 0.342445 0.102218 0.263707
H21   H     H_    0.037834 0.250159 0.247174 0.212605
H22   H     H_    0.060741 0.437880 0.244065 0.263956
O11   O     O_3   0.363844 0.712337 0.869501 -0.585335
C27   C     C_3   0.364524 0.856334 0.837439 0.195219
H23   H     H_    0.432605 0.877574 0.764180 0.217729
H24   H     H_    0.384701 0.922917 0.919974 0.210126
C28   C     C_3   0.238565 0.895632 0.782351 -0.827806
H25   H     H_    0.163939 0.876444 0.849404 0.239041
H26   H     H_    0.237560 0.008491 0.756461 0.231519
H27   H     H_    0.219809 0.831614 0.697998 0.252818
O12   O     O_3   0.271854 0.462924 0.879247 -0.557562
C29   C     C_3   0.176514 0.365961 0.851266 0.146166
H28   H     H_    0.167172 0.284950 0.924048 0.175328
H29   H     H_    0.194517 0.314112 0.760990 0.172578
C30   C     C_3   0.054583 0.445513 0.839874 -0.767409
H30   H     H_    0.060246 0.525541 0.765769 0.260578
H31   H     H_    0.978300 0.371258 0.816944 0.206838
H32   H     H_    0.033976 0.499900 0.928221 0.269563
Cl1   Cl    Cl    0.613081 0.764645 0.886906 -0.665521
Cl2   Cl    Cl    0.409112 0.221631 0.872899 -0.743568
Cl3   Cl    Cl    0.747713 0.551265 0.130504 -0.605408
Cl4   Cl    Cl    0.658509 0.270342 0.126270 -0.545948

loop_
_geom_bond_atom_site_label_1
_geom_bond_atom_site_label_2
_ccdc_geom_bond_type
O10   C25   S    
C16   C21   S    
Cu1   O7    S    
C20   Cl4   S    
C1    C8    S    
Cu2   O4    S    
C19   O12   S    
C4    C8    A    
C13   O3    A    
C12   H4    S    
C2    H5    S    
C17   H2    S    
C15   C22   S    
C18   O11   S    
Cu1   O5    S    
C25   H18   S    
C11   N1    A    
C1    O2    A    
Cu2   O2    S    
C7    C14   S    
C18   Cl1   S    
C5    H9    S    
C2    C22   S    
Cu2   N2    S    
Cu1   Cu2   S    
C9    C10   A    
C17   O10   S    
C23   H14   S    
C26   H20   S    
C20   Cl3   S    
C24   H15   S    
C29   C30   S    
C16   O9    S    
C13   O4    A    
C23   C24   S    
C26   H21   S    
C2    C20   S    
C28   H25   S    
C27   C28   S    
C19   C22   S    
C4    C6    A    
C3    C8    A    
C5    C7    A    
Cu1   N1    S    
C17   C21   S    
C6    H10   S    
C24   H16   S    
C27   H24   S    
C30   H30   S    
O9    C23   S    
C11   H3    S    
C13   C21   S    
C3    H7    S    
C30   H31   S    
C4    H8    S    
C29   H29   S    
C23   H13   S    
C10   N1    A    
Cu2   O6    S    
C15   O7    A    
C14   O6    A    
C16   H1    S    
C26   H22   S    
C18   C22   S    
C29   H28   S    
C3    C5    A    
C11   C12   A    
C6    C7    A    
Cu1   O3    S    
C25   C26   S    
C2    H6    S    
C28   H27   S    
Cu2   O8    S    
C27   H23   S    
C24   H17   S    
O12   C29   S    
Cu1   O1    S    
C9    N2    A    
C17   C19   S    
C25   H19   S    
C12   N2    A    
C19   Cl2   S    
C30   H32   S    
C1    O1    A    
O11   C27   S    
C20   C21   S    
C16   C18   S    
C9    H11   S    
C10   H12   S    
C15   O8    A    
C28   H26   S    
C14   O5    A    
