data_mof_unit_15674.cif
_audit_creation_date              2012-12-10T20:25:38-0500
_audit_creation_method            fapswitch 2.2
_symmetry_space_group_name_H-M    P1
_symmetry_Int_Tables_number       1
_space_group_crystal_system       triclinic
_cell_length_a                    8.585656
_cell_length_b                    10.698555
_cell_length_c                    9.889608
_cell_angle_alpha                 90.792327
_cell_angle_beta                  98.289911
_cell_angle_gamma                 90.143443
_cell_volume                      898.814227429

loop_
_atom_site_label
_atom_site_type_symbol
_atom_type_description
_atom_site_fract_x
_atom_site_fract_y
_atom_site_fract_z
_atom_type_partial_charge
C1    C     C_R   0.494061 0.259906 0.498545 0.892997
C2    C     C_R   0.417665 0.930731 0.377715 -0.280151
C3    C     C_R   0.471682 0.870586 0.500157 -0.122253
C4    C     C_R   0.494858 0.937986 0.622437 0.135377
C5    C     C_3   0.627280 0.933751 0.738291 -0.479348
C6    C     C_3   0.626925 0.075503 0.736352 -0.468465
C7    C     C_R   0.362029 0.491612 0.053799 0.217688
C8    C     C_R   0.634965 0.519612 0.088933 -0.134525
C9    C     C_R   0.634945 0.519749 0.945314 -0.144768
C10   C     C_R   0.362148 0.490502 0.911399 0.221597
C11   C     C_3   0.248505 0.383872 0.891362 -0.514626
C12   C     C_R   0.201359 0.500384 0.464326 0.963398
C13   C     C_3   0.246390 0.386946 0.044296 -0.516428
C14   C     C_R   0.495850 0.739725 0.500397 0.885640
C15   C     C_R   0.798558 0.502177 0.535500 0.967652
C16   C     C_2   0.036330 0.498381 0.444889 -0.379714
C17   C     C_2   0.963315 0.509444 0.553952 -0.392469
C18   C     C_R   0.494550 0.065355 0.620444 0.089673
C19   C     C_R   0.470422 0.127803 0.496412 -0.116200
C20   C     C_R   0.416636 0.060414 0.374835 0.091125
H1    H     H_    0.975469 0.485073 0.341351 0.167236
H2    H     H_    0.744460 0.533990 0.905645 0.150234
H3    H     H_    0.133419 0.409631 0.833095 0.199085
H4    H     H_    0.301448 0.297336 0.854448 0.215928
H5    H     H_    0.131571 0.416971 0.073107 0.197915
H6    H     H_    0.296687 0.302043 0.095407 0.232931
H7    H     H_    0.384942 0.878239 0.283282 0.171350
H8    H     H_    0.589649 0.894954 0.832233 0.205414
H9    H     H_    0.735969 0.891886 0.708285 0.198112
H10   H     H_    0.588972 0.118635 0.829145 0.206607
N1    N     N_R   0.498950 0.499140 0.142680 -0.105584
N2    N     N_R   0.498950 0.499180 0.857030 -0.107181
O1    O     O_R   0.500020 0.316790 0.614690 -0.622494
O2    O     O_R   0.500000 0.316760 0.385350 -0.591005
O3    O     O_R   0.271760 0.500010 0.587850 -0.614872
O4    O     O_R   0.271740 0.499970 0.358500 -0.628401
O5    O     O_R   0.500000 0.683240 0.614650 -0.618521
O6    O     O_R   0.499980 0.683210 0.385310 -0.624161
O7    O     O_R   0.728260 0.500030 0.641500 -0.636326
O8    O     O_R   0.728240 0.499990 0.412150 -0.619966
Zn1   Zn    Zn3+2 0.500010 0.500020 0.653130 0.936550
Zn2   Zn    Zn3+2 0.499990 0.499980 0.346870 0.945935
H11   H     H_    0.024086 0.525459 0.656693 0.167246
N3    N     N_3   0.368034 0.121629 0.248293 -0.446921
H12   H     H_    0.252650 0.093420 0.212006 0.174576
H13   H     H_    0.440061 0.091032 0.177812 0.182314
H14   H     H_    0.735531 0.116316 0.705425 0.200762
H15   H     H_    0.744523 0.533842 0.156224 0.147038

loop_
_geom_bond_atom_site_label_1
_geom_bond_atom_site_label_2
_ccdc_geom_bond_type
C8    C9    A    
C7    C10   A    
N2    Zn1   S    
C8    H15   S    
C16   H1    S    
N1    Zn2   S    
C14   O6    A    
C5    H8    S    
O4    Zn2   S    
C19   C20   A    
O2    Zn2   S    
O1    Zn1   S    
O8    Zn2   S    
C2    C3    A    
C1    O1    A    
O7    Zn1   S    
C14   O5    A    
C11   C13   S    
C15   O7    A    
C2    H7    S    
C3    C14   S    
C6    C18   S    
C11   H3    S    
C6    H10   S    
N3    H13   S    
C1    O2    A    
O6    Zn2   S    
C5    H9    S    
O5    Zn1   S    
C5    C6    S    
O3    Zn1   S    
C12   O3    A    
C15   O8    A    
C1    C19   S    
C12   O4    A    
C6    H14   S    
C13   H6    S    
C2    C20   A    
C3    C4    A    
C10   N2    A    
C11   H4    S    
C7    C13   S    
C7    N1    A    
N3    H12   S    
C9    H2    S    
C10   C11   S    
C17   H11   S    
C15   C17   S    
C18   C19   A    
C9    N2    A    
C20   N3    S    
C8    N1    A    
C4    C18   A    
C12   C16   S    
C16   C17   D    
C4    C5    S    
C13   H5    S    
