data_mof_unit_20154.cif
_audit_creation_date              2012-12-10T16:52:59-0500
_audit_creation_method            fapswitch 2.2
_symmetry_space_group_name_H-M    P1
_symmetry_Int_Tables_number       1
_space_group_crystal_system       triclinic
_cell_length_a                    7.937331
_cell_length_b                    8.629105
_cell_length_c                    11.482653
_cell_angle_alpha                 92.26183
_cell_angle_beta                  85.804164
_cell_angle_gamma                 92.725598
_cell_volume                      782.963985425

loop_
_atom_site_label
_atom_site_type_symbol
_atom_type_description
_atom_site_fract_x
_atom_site_fract_y
_atom_site_fract_z
_atom_type_partial_charge
C1    C     C_R   0.544736 0.794060 0.504770 0.852020
C2    C     C_2   0.431998 0.046634 0.530631 0.228442
C3    C     C_3   0.858525 0.989044 0.473708 -0.206935
C4    C     C_3   0.213061 0.993277 0.662531 -0.308587
C5    C     C_3   0.028747 0.403904 0.357242 -0.141377
C6    C     C_3   0.917641 0.297273 0.280726 -0.393294
C7    C     C_3   0.021364 0.177466 0.208689 -0.993892
C8    C     C_3   0.992103 0.583001 0.649270 -0.122192
C9    C     C_3   0.980757 0.439504 0.726456 -0.299377
C10   C     C_3   0.959799 0.487031 0.855935 -0.924528
C11   C     C_R   0.456160 0.207624 0.511394 0.865045
C12   C     C_R   0.501146 0.499682 0.717330 0.882328
C13   C     C_R   0.498415 0.499152 0.282668 0.894789
C14   C     C_1   0.501976 0.497296 0.837879 -0.190896
C15   C     C_1   0.495524 0.497558 0.162072 -0.203247
C16   C     C_1   0.499378 0.496140 0.940453 -0.018562
C17   C     C_1   0.496238 0.496368 0.059515 -0.010935
C18   C     C_2   0.568936 0.958405 0.524234 0.168617
H1    H     H_    0.817670 0.970965 0.383172 0.135343
H2    H     H_    0.816244 0.235667 0.333333 0.268009
H3    H     H_    0.861530 0.367208 0.215725 0.248989
H4    H     H_    0.069610 0.506329 0.304782 0.176712
H5    H     H_    0.135943 0.334770 0.374589 0.237962
H6    H     H_    0.076189 0.550873 0.883076 0.265947
H7    H     H_    0.851251 0.562955 0.873324 0.271000
H8    H     H_    0.937511 0.382032 0.908813 0.260741
H9    H     H_    0.876866 0.356377 0.703729 0.250315
H10   H     H_    0.095880 0.372137 0.711358 0.235015
H11   H     H_    0.088244 0.666639 0.683683 0.168513
H12   H     H_    0.925105 0.886665 0.498823 0.207380
H13   H     H_    0.876564 0.649642 0.652846 0.183400
H14   H     H_    0.952150 0.088492 0.474328 0.216002
H15   H     H_    0.221959 0.113774 0.700567 0.157565
H16   H     H_    0.287256 0.915483 0.712177 0.158363
H17   H     H_    0.078466 0.952666 0.673351 0.185998
H18   H     H_    0.121712 0.236924 0.151844 0.279967
H19   H     H_    0.081119 0.099329 0.266568 0.271430
H20   H     H_    0.937497 0.105836 0.152520 0.267447
N1    N     N_2   0.950330 0.457960 0.469510 -0.061193
N2    N     N_2   0.049670 0.542040 0.530490 -0.082721
O1    O     O_R   0.389250 0.738570 0.507480 -0.567046
O2    O     O_3   0.266297 0.987233 0.542431 -0.616397
O3    O     O_R   0.610750 0.261430 0.492520 -0.601672
O4    O     O_R   0.678390 0.711630 0.487940 -0.632385
O5    O     O_R   0.321610 0.288370 0.512060 -0.635599
O6    O     O_R   0.355420 0.513450 0.675320 -0.638499
O7    O     O_R   0.644580 0.486550 0.324680 -0.630508
O8    O     O_R   0.644570 0.486510 0.655780 -0.629493
O9    O     O_R   0.355430 0.513490 0.344220 -0.647256
O10   O     O_3   0.724396 0.021985 0.557414 -0.632185
Zn1   Zn    Zn3+2 0.306940 0.517990 0.513050 0.923381
Zn2   Zn    Zn3+2 0.693060 0.482010 0.486950 0.928053

loop_
_geom_bond_atom_site_label_1
_geom_bond_atom_site_label_2
_ccdc_geom_bond_type
C3    H12   S    
C3    H1    S    
C6    C7    S    
O1    Zn1   S    
C2    C18   D    
N2    Zn1   S    
C6    H2    S    
C9    C10   S    
C1    O4    A    
C5    H5    S    
C12   O8    A    
O4    Zn2   S    
C13   C15   S    
N1    Zn2   S    
C7    H19   S    
C4    H17   S    
C11   O3    A    
C6    H3    S    
C18   O10   S    
C1    C18   S    
C3    H14   S    
C4    O2    S    
C2    O2    S    
C13   O9    A    
C8    H11   S    
C10   H7    S    
C1    O1    A    
C7    H20   S    
C12   C14   S    
C4    H16   S    
C5    N1    S    
C5    C6    S    
C14   C16   T    
O3    Zn2   S    
C11   O5    A    
C2    C11   S    
O8    Zn2   S    
C9    H9    S    
C12   O6    A    
C7    H18   S    
O7    Zn2   S    
N1    N2    D    
C15   C17   T    
O5    Zn1   S    
C4    H15   S    
C8    C9    S    
C8    N2    S    
C10   H6    S    
C8    H13   S    
C13   O7    A    
O6    Zn1   S    
C3    O10   S    
C10   H8    S    
C5    H4    S    
C9    H10   S    
C16   C17   S    
O9    Zn1   S    
