data_mof_unit_22634.cif
_audit_creation_date              2012-12-10T22:11:11-0500
_audit_creation_method            fapswitch 2.2
_symmetry_space_group_name_H-M    P1
_symmetry_Int_Tables_number       1
_space_group_crystal_system       triclinic
_cell_length_a                    12.117856
_cell_length_b                    12.311219
_cell_length_c                    23.041949
_cell_angle_alpha                 90.976294
_cell_angle_beta                  90.090802
_cell_angle_gamma                 90.563535
_cell_volume                      3436.8559563

loop_
_atom_site_label
_atom_site_type_symbol
_atom_type_description
_atom_site_fract_x
_atom_site_fract_y
_atom_site_fract_z
_atom_type_partial_charge
C1    C     C_R   0.656899 0.998075 0.579097 0.945024
C2    C     C_R   0.342959 0.001938 0.420916 0.944667
C3    C     C_R   0.898750 0.773374 0.149400 0.569611
C4    C     C_R   0.101342 0.226815 0.850020 0.573692
C5    C     C_R   0.091753 0.902058 0.164565 0.446359
C6    C     C_R   0.908654 0.099215 0.835716 0.423581
C7    C     C_R   0.083688 0.824507 0.118964 0.414303
C8    C     C_R   0.916524 0.176763 0.880467 0.458500
C9    C     C_R   0.906448 0.120237 0.171678 -0.220526
C10   C     C_R   0.095627 0.873851 0.824124 -0.205938
C11   C     C_R   0.904773 0.199721 0.129570 0.488263
C12   C     C_R   0.101281 0.789025 0.862870 0.511791
C13   C     C_R   0.160322 0.910965 0.298838 0.772579
C14   C     C_R   0.839939 0.089941 0.700703 0.731963
C15   C     C_R   0.240713 0.911334 0.341530 -0.398423
C16   C     C_R   0.760468 0.089826 0.657581 -0.384847
C17   C     C_R   0.842048 0.101725 0.304683 0.571161
C18   C     C_R   0.153227 0.897294 0.693131 0.562251
C19   C     C_R   0.761580 0.097666 0.346918 -0.321512
C20   C     C_R   0.234570 0.901556 0.651336 -0.321538
C21   C     C_3   0.999619 0.008824 0.247194 0.085523
C22   C     C_3   0.998521 0.990879 0.752819 0.089003
C23   C     C_R   0.653709 0.001084 0.419936 0.963890
C24   C     C_R   0.345068 0.998792 0.579490 0.963718
C25   C     C_R   0.098016 0.005881 0.288843 -0.033472
C26   C     C_R   0.899317 0.993921 0.712072 -0.062193
C27   C     C_R   0.258464 0.003564 0.376460 -0.259407
C28   C     C_R   0.740696 0.996456 0.623795 -0.265998
C29   C     C_R   0.900394 0.006575 0.288515 -0.261462
C30   C     C_R   0.096551 0.992917 0.710416 -0.256310
C31   C     C_R   0.735583 0.000126 0.373876 -0.317450
C32   C     C_R   0.260764 0.999078 0.624407 -0.317124
C33   C     C_R   0.998021 0.108574 0.208709 0.158800
C34   C     C_R   0.000211 0.891042 0.790944 0.147670
C35   C     C_R   0.996659 0.269510 0.124731 -0.110671
C36   C     C_R   0.004600 0.727620 0.873497 -0.134989
C37   C     C_R   0.999181 0.915321 0.202051 0.017590
C38   C     C_R   0.000388 0.083866 0.798002 -0.000599
C39   C     C_R   0.990669 0.755883 0.114439 -0.335624
C40   C     C_R   0.009445 0.245014 0.885099 -0.353158
C41   C     C_R   0.992423 0.664363 0.073954 1.001174
C42   C     C_R   0.007623 0.336013 0.925822 0.992992
C43   C     C_R   0.998657 0.351914 0.080617 0.906495
C44   C     C_R   0.001736 0.647056 0.918743 0.892697
C45   C     C_R   0.114817 0.096579 0.326111 -0.388830
C46   C     C_R   0.880181 0.901817 0.676135 -0.375520
C47   C     C_R   0.194669 0.096343 0.368817 0.661260
C48   C     C_R   0.801309 0.902232 0.633080 0.658741
C49   C     C_R   0.877019 0.909827 0.318579 0.482871
C50   C     C_R   0.119779 0.089691 0.680252 0.497729
C51   C     C_R   0.788907 0.903641 0.356949 0.388133
C52   C     C_R   0.204861 0.094707 0.640053 0.367643
C53   C     C_R   0.088901 0.179715 0.202836 -0.058491
C54   C     C_R   0.906835 0.824454 0.799823 -0.060882
C55   C     C_R   0.087257 0.260217 0.161817 -0.257418
C56   C     C_R   0.909049 0.744273 0.840922 -0.252089
C57   C     C_R   0.901601 0.854911 0.190851 -0.278942
C58   C     C_R   0.098186 0.144415 0.808721 -0.257347
H1    H     H_    0.164211 0.170907 0.227298 0.159387
H2    H     H_    0.829207 0.837720 0.778086 0.159603
H3    H     H_    0.825354 0.870553 0.213521 0.161976
H4    H     H_    0.174012 0.128426 0.785709 0.161015
H5    H     H_    0.838125 0.063251 0.173779 0.119486
H6    H     H_    0.166246 0.927732 0.819979 0.121546
H7    H     H_    0.158474 0.313531 0.158065 0.180209
H8    H     H_    0.834755 0.696670 0.847998 0.180612
H9    H     H_    0.288307 0.838334 0.347681 0.212574
H10   H     H_    0.714999 0.163735 0.650335 0.217002
H11   H     H_    0.720611 0.172432 0.359176 0.227708
H12   H     H_    0.275815 0.826835 0.639264 0.224831
H13   H     H_    0.064693 0.168365 0.322390 0.247001
H14   H     H_    0.928133 0.828874 0.680918 0.250146
O1    O     O_R   0.621380 0.090460 0.561410 -0.640300
O2    O     O_R   0.378620 0.909540 0.438590 -0.644811
O3    O     O_R   0.617150 0.909540 0.438590 -0.584459
O4    O     O_R   0.382850 0.090460 0.561410 -0.589901
O5    O     O_R   0.619720 0.093230 0.440890 -0.634054
O6    O     O_R   0.380280 0.906770 0.559110 -0.635376
O7    O     O_R   0.618800 0.906770 0.559110 -0.555700
O8    O     O_R   0.381200 0.093230 0.440890 -0.559587
O9    O     O_R   0.087590 0.627480 0.058790 -0.568936
O10   O     O_R   0.912410 0.372520 0.941210 -0.570669
O11   O     O_R   0.905660 0.383870 0.059980 -0.576382
O12   O     O_R   0.094340 0.616130 0.940020 -0.583179
O13   O     O_R   0.092570 0.390420 0.063230 -0.649107
O14   O     O_R   0.907430 0.609580 0.936770 -0.646470
O15   O     O_R   0.900680 0.620930 0.055550 -0.578079
O16   O     O_R   0.099320 0.379070 0.944450 -0.585867
Zn1   Zn    Zn3+2 0.501730 0.123520 0.501540 1.021427
Zn2   Zn    Zn3+2 0.498270 0.876480 0.498460 1.025624
Zn3   Zn    Zn3+2 0.125690 0.504390 0.002180 1.033724
Zn4   Zn    Zn3+2 0.874310 0.495610 0.997820 1.046517
F1    F     F_    0.206563 0.185800 0.403662 -0.615336
F2    F     F_    0.787433 0.811359 0.599499 -0.613415
F3    F     F_    0.939617 0.819965 0.310765 -0.603959
F4    F     F_    0.059741 0.180761 0.689460 -0.598675
O17   O     O_3   0.181738 0.972610 0.174004 -0.685209
C59   C     C_3   0.285133 0.942973 0.150603 0.143099
H15   H     H_    0.343277 0.009298 0.163403 0.140621
H16   H     H_    0.285474 0.944494 0.102556 0.214100
C60   C     C_3   0.331609 0.838194 0.176151 -0.314485
H17   H     H_    0.343557 0.849596 0.223670 0.220166
H18   H     H_    0.274230 0.768545 0.168989 0.269690
C61   C     C_3   0.442429 0.810300 0.148606 -0.907126
H19   H     H_    0.433830 0.802217 0.100716 0.285465
H20   H     H_    0.471804 0.731849 0.165496 0.276030
H21   H     H_    0.504714 0.874450 0.159219 0.261409
O18   O     O_3   0.819402 0.027410 0.833314 -0.667070
C62   C     C_3   0.716944 0.080743 0.827064 0.184168
H22   H     H_    0.683571 0.060031 0.783330 0.120889
H23   H     H_    0.721794 0.171178 0.830230 0.181160
C63   C     C_3   0.635472 0.037497 0.871984 -0.322329
H24   H     H_    0.627472 0.947838 0.866615 0.213704
H25   H     H_    0.666910 0.055510 0.916448 0.273709
C64   C     C_3   0.521817 0.088178 0.865194 -0.935426
H26   H     H_    0.527365 0.177724 0.871503 0.285538
H27   H     H_    0.464777 0.054785 0.898238 0.275214
H28   H     H_    0.487583 0.069171 0.821387 0.252905
F5    F     F_    0.141379 0.815265 0.270372 -0.643755
F6    F     F_    0.859551 0.185709 0.729000 -0.643885
F7    F     F_    0.867147 0.201470 0.283980 -0.667053
F8    F     F_    0.126386 0.797140 0.712718 -0.675634
O19   O     O_3   0.763226 0.805512 0.382739 -0.564039
C65   C     C_3   0.715924 0.731879 0.341402 0.186283
H29   H     H_    0.726348 0.648545 0.358186 0.186680
H30   H     H_    0.758149 0.732899 0.298511 0.173197
C66   C     C_3   0.592088 0.752191 0.333407 -0.430345
H31   H     H_    0.549215 0.744410 0.375734 0.259707
H32   H     H_    0.579251 0.835598 0.317141 0.206957
C67   C     C_3   0.541044 0.670846 0.290254 -0.909997
H33   H     H_    0.583691 0.675566 0.247740 0.282363
H34   H     H_    0.452399 0.689575 0.283967 0.274691
H35   H     H_    0.547811 0.586990 0.306850 0.275749
O20   O     O_3   0.225744 0.191478 0.612226 -0.557863
C68   C     C_3   0.289157 0.259959 0.649488 0.140664
H36   H     H_    0.366127 0.218722 0.663470 0.103892
H37   H     H_    0.240753 0.283939 0.688627 0.190240
C69   C     C_3   0.321350 0.362566 0.616946 -0.274069
H38   H     H_    0.372720 0.340105 0.578733 0.228881
H39   H     H_    0.245579 0.402960 0.601205 0.257380
C70   C     C_3   0.385964 0.442065 0.655882 -0.946417
H40   H     H_    0.334608 0.467824 0.693441 0.280935
H41   H     H_    0.408931 0.515169 0.630869 0.278098
H42   H     H_    0.462562 0.403770 0.671937 0.268155
F9    F     F_    0.805546 0.711872 0.143735 -0.647474
F10   F     F_    0.194546 0.288380 0.855412 -0.651911
F11   F     F_    0.162536 0.816445 0.077428 -0.659371
F12   F     F_    0.835098 0.182645 0.920878 -0.646282
O21   O     O_3   0.824289 0.197928 0.086572 -0.613162
C71   C     C_3   0.716292 0.203821 0.109669 0.120436
H43   H     H_    0.678589 0.279857 0.093991 0.175880
H44   H     H_    0.711954 0.207533 0.158059 0.132424
C72   C     C_3   0.648661 0.106960 0.086495 -0.320393
H45   H     H_    0.651888 0.105174 0.038258 0.256613
H46   H     H_    0.684600 0.030294 0.102468 0.219079
C73   C     C_3   0.528582 0.113584 0.105607 -0.992355
H47   H     H_    0.523036 0.111058 0.153682 0.261683
H48   H     H_    0.481880 0.043491 0.086686 0.268047
H49   H     H_    0.490801 0.189694 0.090142 0.277435
O22   O     O_3   0.196055 0.775619 0.895856 -0.610312
C74   C     C_3   0.286219 0.744658 0.860205 0.070464
H50   H     H_    0.363244 0.766281 0.884123 0.166218
H51   H     H_    0.290404 0.789084 0.818561 0.142352
C75   C     C_3   0.285133 0.621674 0.848309 -0.285243
H52   H     H_    0.288510 0.578191 0.890131 0.247190
H53   H     H_    0.207756 0.597585 0.825323 0.236146
C76   C     C_3   0.383395 0.587529 0.811162 -0.926217
H54   H     H_    0.380644 0.628094 0.768490 0.272842
H55   H     H_    0.380678 0.498194 0.803690 0.286241
H56   H     H_    0.462023 0.609307 0.833526 0.257593

loop_
_geom_bond_atom_site_label_1
_geom_bond_atom_site_label_2
_ccdc_geom_bond_type
C16   C28   A    
C68   C69   S    
C58   H4    S    
C60   H17   S    
C5    C37   A    
C45   H13   S    
C43   O11   A    
C42   O10   A    
C19   C31   A    
C63   H25   S    
C74   H50   S    
C53   H1    S    
O10   Zn4   S    
C68   H36   S    
C76   H55   S    
C54   H2    S    
O6    Zn2   S    
O11   Zn4   S    
O5    Zn1   S    
C48   F2    S    
C75   H52   S    
C62   H23   S    
C21   C33   S    
C64   H26   S    
C22   C38   S    
C41   O15   A    
C51   O19   S    
O18   C62   S    
C63   C64   S    
C18   C20   A    
O8    Zn1   S    
C63   H24   S    
O7    Zn2   S    
O3    Zn2   S    
C74   H51   S    
C38   C58   A    
O21   C71   S    
C73   H48   S    
C11   O21   S    
C32   C52   A    
C4    C40   A    
C49   C51   A    
C71   C72   S    
C1    C28   S    
C50   C52   A    
C6    C38   A    
C2    C27   S    
C18   C30   A    
O12   Zn3   S    
C12   C36   A    
C35   C43   S    
C46   H14   S    
C2    O2    A    
C36   C44   S    
O4    Zn1   S    
C45   C47   A    
C30   C50   A    
C41   O9    A    
C60   H18   S    
O15   Zn4   S    
C9    C33   A    
C20   H12   S    
C8    F12   S    
C66   H32   S    
C44   O14   A    
C61   H20   S    
C61   H19   S    
C55   H7    S    
O17   C59   S    
C76   H56   S    
C7    F11   S    
C53   C55   A    
C33   C53   A    
C22   C34   S    
C46   C48   A    
C35   C55   A    
C43   O13   A    
O19   C65   S    
C39   C41   S    
C70   H42   S    
C23   O3    A    
C76   H54   S    
C5    C7    A    
C24   O4    A    
C29   C49   A    
C64   H27   S    
C21   C29   S    
C23   O5    A    
C70   H41   S    
C23   C31   S    
C67   H34   S    
C24   C32   S    
C11   C35   A    
C15   H9    S    
C36   C56   A    
C15   C27   A    
O16   Zn3   S    
C64   H28   S    
C4    F10   S    
C14   C26   A    
C47   F1    S    
C10   C34   A    
C12   O22   S    
C49   F3    S    
C72   C73   S    
C9    C11   A    
C10   C12   A    
C18   F8    S    
C65   C66   S    
C16   H10   S    
C3    C57   A    
C24   O6    A    
C5    O17   S    
C3    F9    S    
C60   C61   S    
C59   H16   S    
C13   C15   A    
C1    O7    A    
C71   H44   S    
C62   C63   S    
C67   H35   S    
C72   H46   S    
C4    C58   A    
C66   H31   S    
O13   Zn3   S    
C25   C45   A    
C74   C75   S    
C65   H30   S    
C20   C32   A    
C27   C47   A    
C68   H37   S    
C19   H11   S    
C21   C25   S    
C28   C48   A    
C7    C39   A    
C22   C30   S    
C73   H47   S    
C9    H5    S    
C73   H49   S    
C10   H6    S    
C31   C51   A    
C13   C25   A    
C69   C70   S    
C6    C8    A    
C54   C56   A    
C57   H3    S    
O20   C68   S    
C69   H39   S    
C59   C60   S    
C13   F5    S    
C14   F6    S    
C44   O12   A    
C1    O1    A    
O22   C74   S    
O2    Zn2   S    
C75   H53   S    
C67   H33   S    
C66   C67   S    
O1    Zn1   S    
O14   Zn4   S    
C17   C29   A    
C42   O16   A    
C34   C54   A    
C50   F4    S    
C56   H8    S    
C40   C42   S    
C17   C19   A    
C14   C16   A    
C75   C76   S    
C2    O8    A    
C69   H38   S    
C26   C46   A    
C3    C39   A    
O9    Zn3   S    
C52   O20   S    
C21   C37   S    
C17   F7    S    
C59   H15   S    
C22   C26   S    
C62   H22   S    
C6    O18   S    
C71   H43   S    
C8    C40   A    
C72   H45   S    
C70   H40   S    
C61   H21   S    
C37   C57   A    
C65   H29   S    
