data_mof_unit_63893.cif
_audit_creation_date              2012-12-10T16:50:09-0500
_audit_creation_method            fapswitch 2.2
_symmetry_space_group_name_H-M    P1
_symmetry_Int_Tables_number       1
_space_group_crystal_system       triclinic
_cell_length_a                    26.277464
_cell_length_b                    26.23641
_cell_length_c                    22.348858
_cell_angle_alpha                 89.999851
_cell_angle_beta                  53.707655
_cell_angle_gamma                 89.998932
_cell_volume                      12418.873642

loop_
_atom_site_label
_atom_site_type_symbol
_atom_type_description
_atom_site_fract_x
_atom_site_fract_y
_atom_site_fract_z
_atom_type_partial_charge
C1    C     C_R   0.650475 0.749993 0.699034 0.821231
C2    C     C_3   0.031568 0.266532 0.042543 -0.388818
C3    C     C_2   0.553631 0.751590 0.505275 -0.320079
C4    C     C_2   0.989971 0.713304 0.466479 0.022078
C5    C     C_2   0.989991 0.286677 0.466440 0.021928
C6    C     C_2   0.489971 0.213304 0.466480 0.022078
C7    C     C_2   0.489989 0.786678 0.466442 0.021928
C8    C     C_1   0.983911 0.667398 0.435086 0.223577
C9    C     C_1   0.983957 0.332567 0.434994 0.223588
C10   C     C_1   0.483910 0.167398 0.435087 0.223577
C11   C     C_1   0.483955 0.832569 0.434998 0.223587
C12   C     C_3   0.531486 0.233202 0.042542 -0.388783
C13   C     C_3   0.531541 0.766620 0.042543 -0.388816
C14   C     C_3   0.965964 0.803858 0.043291 -0.389973
C15   C     C_3   0.966275 0.196071 0.043286 -0.390051
C16   C     C_3   0.466546 0.303989 0.043286 -0.389992
C17   C     C_3   0.466365 0.696051 0.043285 -0.390055
C18   C     C_3   0.008935 0.803946 0.957172 -0.389623
C19   C     C_3   0.009247 0.195984 0.957167 -0.389582
C20   C     C_3   0.509517 0.304077 0.957167 -0.389643
C21   C     C_R   0.650474 0.250007 0.699035 0.820987
C22   C     C_3   0.509337 0.695964 0.957166 -0.389582
C23   C     C_1   0.110657 0.750109 0.778464 -0.138558
C24   C     C_1   0.110657 0.249891 0.778464 -0.138520
C25   C     C_1   0.610657 0.250109 0.778464 -0.138558
C26   C     C_1   0.610657 0.749891 0.778464 -0.138520
C27   C     C_3   0.963525 0.749897 0.073154 0.349459
C28   C     C_3   0.963524 0.250103 0.073154 0.349547
C29   C     C_3   0.463524 0.249897 0.073154 0.349457
C30   C     C_3   0.463524 0.750103 0.073154 0.349546
C31   C     C_3   0.074635 0.733857 0.956423 -0.389656
C32   C     C_R   0.150475 0.249993 0.699034 0.821231
C33   C     C_3   0.074541 0.266445 0.956424 -0.389634
C34   C     C_3   0.574458 0.233289 0.956423 -0.389640
C35   C     C_3   0.574514 0.766532 0.956424 -0.389631
C36   C     C_3   0.036523 0.750046 0.926858 0.349792
C37   C     C_3   0.036524 0.249955 0.926858 0.349754
C38   C     C_3   0.536523 0.250046 0.926858 0.349790
C39   C     C_3   0.536524 0.749955 0.926858 0.349753
C40   C     C_3   0.980958 0.712243 0.957245 -0.391034
C41   C     C_3   0.980740 0.287526 0.957249 -0.391009
C42   C     C_3   0.480552 0.212680 0.957250 -0.391032
C43   C     C_R   0.150474 0.750007 0.699035 0.820987
C44   C     C_3   0.480678 0.787459 0.957250 -0.391010
C45   C     C_3   0.937987 0.712154 0.043364 -0.390972
C46   C     C_3   0.937769 0.287614 0.043368 -0.391002
C47   C     C_3   0.437581 0.212591 0.043369 -0.390974
C48   C     C_3   0.437707 0.787547 0.043369 -0.391002
C49   C     C_R   0.849579 0.749948 0.300971 0.820515
C50   C     C_R   0.849578 0.250052 0.300972 0.820409
C51   C     C_R   0.349579 0.249948 0.300971 0.820515
C52   C     C_R   0.349578 0.750052 0.300972 0.820409
C53   C     C_1   0.077245 0.750113 0.845280 -0.129013
C54   C     C_2   0.945486 0.750461 0.497644 -0.352711
C55   C     C_1   0.077245 0.249887 0.845280 -0.128947
C56   C     C_1   0.577244 0.250114 0.845280 -0.129013
C57   C     C_1   0.577245 0.749887 0.845280 -0.128947
C58   C     C_1   0.922803 0.749831 0.154730 -0.128753
C59   C     C_1   0.922802 0.250169 0.154730 -0.128844
C60   C     C_1   0.422803 0.249831 0.154730 -0.128754
C61   C     C_1   0.422803 0.750169 0.154730 -0.128844
C62   C     C_1   0.889392 0.749839 0.221544 -0.137591
C63   C     C_1   0.889391 0.250160 0.221545 -0.137861
C64   C     C_1   0.389392 0.249839 0.221545 -0.137591
C65   C     C_2   0.945487 0.249535 0.497641 -0.352663
C66   C     C_1   0.389391 0.750160 0.221545 -0.137861
C67   C     C_2   0.742485 0.028057 0.457006 -0.161672
C68   C     C_2   0.740584 0.971943 0.458630 -0.161559
C69   C     C_2   0.242485 0.528057 0.457006 -0.161672
C70   C     C_2   0.240584 0.471943 0.458630 -0.161558
C71   C     C_2   0.748070 0.056099 0.503034 -0.296854
C72   C     C_2   0.752391 0.943901 0.499346 -0.297253
C73   C     C_2   0.248070 0.556099 0.503034 -0.296853
C74   C     C_2   0.252391 0.443901 0.499346 -0.297253
C75   C     C_2   0.800906 0.471943 0.457158 -0.156233
C76   C     C_2   0.445486 0.250461 0.497644 -0.352711
C77   C     C_2   0.801161 0.528060 0.458783 -0.156559
C78   C     C_2   0.300906 0.971943 0.457158 -0.156233
C79   C     C_2   0.301161 0.028060 0.458783 -0.156559
C80   C     C_2   0.748951 0.443910 0.503106 -0.300259
C81   C     C_2   0.748340 0.556088 0.499426 -0.301273
C82   C     C_2   0.248951 0.943910 0.503106 -0.300259
C83   C     C_2   0.248340 0.056088 0.499426 -0.301273
C84   C     C_R   0.749947 0.611362 0.499897 0.856356
C85   C     C_R   0.750009 0.388638 0.500278 0.855976
C86   C     C_R   0.249947 0.111362 0.499897 0.856356
C87   C     C_2   0.445487 0.749536 0.497642 -0.352661
C88   C     C_R   0.250009 0.888638 0.500278 0.855976
C89   C     C_R   0.750253 0.888619 0.499863 0.853159
C90   C     C_R   0.749793 0.111380 0.500255 0.853030
C91   C     C_R   0.250253 0.388619 0.499863 0.853160
C92   C     C_R   0.249793 0.611381 0.500255 0.853030
C93   C     C_R   0.611136 0.750162 0.500571 0.868451
C94   C     C_R   0.611134 0.249838 0.500572 0.868654
C95   C     C_R   0.111136 0.250162 0.500571 0.868451
C96   C     C_R   0.111134 0.749838 0.500572 0.868654
C97   C     C_R   0.888658 0.749490 0.500198 0.852120
C98   C     C_3   0.031663 0.733769 0.042542 -0.388808
C99   C     C_R   0.888658 0.250509 0.500197 0.852281
C100  C     C_R   0.388658 0.249490 0.500198 0.852120
C101  C     C_R   0.388658 0.750509 0.500197 0.852282
C102  C     C_2   0.048077 0.717431 0.461841 -0.208368
C103  C     C_2   0.048092 0.282550 0.461811 -0.208551
C104  C     C_2   0.548077 0.217431 0.461841 -0.208368
C105  C     C_2   0.548091 0.782551 0.461812 -0.208551
C106  C     C_2   0.053628 0.748408 0.505282 -0.320163
C107  C     C_2   0.053632 0.251590 0.505275 -0.320078
C108  C     C_2   0.553628 0.248408 0.505282 -0.320163
H1    H     H_    0.981108 0.816479 0.936933 0.169107
H2    H     H_    0.888909 0.276589 0.064375 0.167139
H3    H     H_    0.388777 0.223810 0.064376 0.167157
H4    H     H_    0.388865 0.776459 0.064375 0.167145
H5    H     H_    0.999470 0.673111 0.936462 0.166933
H6    H     H_    0.999026 0.326704 0.936470 0.166939
H7    H     H_    0.498642 0.173463 0.936471 0.166901
H8    H     H_    0.498899 0.826650 0.936471 0.166934
H9    H     H_    0.031317 0.694994 0.062989 0.169858
H10   H     H_    0.030998 0.305363 0.062994 0.169802
H11   H     H_    0.530722 0.194322 0.062994 0.169845
H12   H     H_    0.981493 0.183234 0.936927 0.169119
H13   H     H_    0.530907 0.805466 0.062995 0.169801
H14   H     H_    0.094872 0.695123 0.935626 0.169323
H15   H     H_    0.094554 0.305235 0.935631 0.169330
H16   H     H_    0.594277 0.194452 0.935631 0.169313
H17   H     H_    0.594462 0.805338 0.935632 0.169329
H18   H     H_    0.738399 0.046689 0.416612 0.175570
H19   H     H_    0.729658 0.953310 0.424078 0.175794
H20   H     H_    0.238398 0.546689 0.416613 0.175570
H21   H     H_    0.229658 0.453310 0.424077 0.175793
H22   H     H_    0.750678 0.039195 0.545248 0.150313
H23   H     H_    0.481827 0.317017 0.936927 0.169110
H24   H     H_    0.764969 0.960807 0.533049 0.150361
H25   H     H_    0.250679 0.539195 0.545248 0.150313
H26   H     H_    0.264969 0.460807 0.533049 0.150361
H27   H     H_    0.845674 0.453299 0.416828 0.181678
H28   H     H_    0.846871 0.546712 0.424292 0.182793
H29   H     H_    0.345674 0.953299 0.416828 0.181678
H30   H     H_    0.346871 0.046712 0.424292 0.182793
H31   H     H_    0.014899 0.771909 0.547709 0.154511
H32   H     H_    0.014898 0.228100 0.547715 0.154500
H33   H     H_    0.514899 0.271910 0.547709 0.154511
H34   H     H_    0.481603 0.683152 0.936926 0.169120
H35   H     H_    0.514898 0.728099 0.547714 0.154500
H36   H     H_    0.703833 0.460809 0.545308 0.150369
H37   H     H_    0.701830 0.539185 0.533123 0.150385
H38   H     H_    0.203833 0.960809 0.545308 0.150369
H39   H     H_    0.201830 0.039185 0.533123 0.150385
H40   H     H_    0.951103 0.784478 0.520610 0.147285
H41   H     H_    0.951089 0.215529 0.520640 0.147319
H42   H     H_    0.451103 0.284478 0.520610 0.147285
H43   H     H_    0.451089 0.715529 0.520640 0.147318
H44   H     H_    0.114820 0.760515 0.935580 0.166701
H45   H     H_    0.935921 0.672981 0.063824 0.167124
H46   H     H_    0.114879 0.239958 0.935579 0.166717
H47   H     H_    0.614929 0.259625 0.935577 0.166730
H48   H     H_    0.614896 0.740094 0.935578 0.166721
H49   H     H_    0.051266 0.760387 0.062942 0.166843
H50   H     H_    0.051325 0.240085 0.062941 0.166852
H51   H     H_    0.551374 0.259497 0.062940 0.166878
H52   H     H_    0.551341 0.740222 0.062941 0.166858
H53   H     H_    0.917557 0.816353 0.064295 0.169064
H54   H     H_    0.917941 0.183360 0.064290 0.169032
H55   H     H_    0.418275 0.316891 0.064290 0.169065
H56   H     H_    0.935477 0.326833 0.063831 0.167051
H57   H     H_    0.418052 0.683278 0.064289 0.169032
H58   H     H_    0.984360 0.831767 0.063702 0.166319
H59   H     H_    0.984832 0.168327 0.063694 0.166263
H60   H     H_    0.485241 0.331588 0.063693 0.166299
H61   H     H_    0.484967 0.668354 0.063693 0.166261
H62   H     H_    0.047912 0.831893 0.936340 0.166391
H63   H     H_    0.048385 0.168200 0.936332 0.166399
H64   H     H_    0.548793 0.331715 0.936331 0.166369
H65   H     H_    0.548520 0.668228 0.936331 0.166395
H66   H     H_    0.087143 0.692547 0.422618 0.180523
H67   H     H_    0.435093 0.173333 0.063832 0.167088
H68   H     H_    0.087167 0.307421 0.422571 0.180390
H69   H     H_    0.587143 0.192546 0.422619 0.180523
H70   H     H_    0.587166 0.807423 0.422574 0.180390
H71   H     H_    0.952615 0.723091 0.937010 0.167104
H72   H     H_    0.952460 0.276458 0.937013 0.167122
H73   H     H_    0.452328 0.223941 0.937015 0.167137
H74   H     H_    0.452417 0.776328 0.937014 0.167128
H75   H     H_    0.435350 0.826779 0.063832 0.167046
H76   H     H_    0.889064 0.722960 0.064372 0.167123
N1    N     N_1   0.979210 0.630667 0.410012 -0.204327
N2    N     N_1   0.979279 0.369285 0.409878 -0.203265
N3    N     N_1   0.479209 0.130667 0.410014 -0.204326
N4    N     N_1   0.479276 0.869287 0.409884 -0.203265
O1    O     O_3   0.750030 0.750030 0.500000 -0.486967
O2    O     O_R   0.758570 0.135390 0.542990 -0.644802
O3    O     O_R   0.258570 0.364610 0.542990 -0.644787
O4    O     O_R   0.258570 0.635390 0.542990 -0.644802
O5    O     O_R   0.638020 0.720010 0.663980 -0.638944
O6    O     O_R   0.638020 0.279990 0.663980 -0.639151
O7    O     O_R   0.138020 0.220010 0.663980 -0.638944
O8    O     O_R   0.138020 0.779990 0.663980 -0.639151
O9    O     O_R   0.801960 0.780050 0.336020 -0.640068
O10   O     O_R   0.801960 0.219950 0.336020 -0.640240
O11   O     O_R   0.301960 0.280050 0.336020 -0.640067
O12   O     O_3   0.750030 0.249970 0.500000 -0.486934
O13   O     O_R   0.301960 0.719950 0.336020 -0.640240
O14   O     O_R   0.698090 0.780090 0.663980 -0.637485
O15   O     O_R   0.698090 0.219910 0.663980 -0.637698
O16   O     O_R   0.198090 0.280090 0.663980 -0.637484
O17   O     O_R   0.198090 0.719910 0.663980 -0.637698
O18   O     O_R   0.862050 0.719970 0.336020 -0.637206
O19   O     O_R   0.862050 0.280030 0.336020 -0.637414
O20   O     O_R   0.362050 0.219970 0.336020 -0.637206
O21   O     O_R   0.362050 0.780030 0.336020 -0.637414
O22   O     O_R   0.698510 0.635460 0.542990 -0.645836
O23   O     O_3   0.250030 0.250030 0.500000 -0.486967
O24   O     O_R   0.698510 0.364540 0.542990 -0.645902
O25   O     O_R   0.198510 0.135460 0.542990 -0.645836
O26   O     O_R   0.198510 0.864540 0.542990 -0.645902
O27   O     O_R   0.741470 0.864610 0.457010 -0.643065
O28   O     O_R   0.741470 0.135390 0.457010 -0.643038
O29   O     O_R   0.241470 0.364610 0.457010 -0.643065
O30   O     O_R   0.241470 0.635390 0.457010 -0.643038
O31   O     O_R   0.613960 0.720010 0.542990 -0.646304
O32   O     O_R   0.613960 0.279990 0.542990 -0.646121
O33   O     O_R   0.113960 0.220010 0.542990 -0.646304
O34   O     O_3   0.250030 0.749970 0.500000 -0.486934
O35   O     O_R   0.113960 0.779990 0.542990 -0.646120
O36   O     O_R   0.843120 0.780070 0.542990 -0.642620
O37   O     O_R   0.843120 0.219930 0.542990 -0.642420
O38   O     O_R   0.343120 0.280070 0.542990 -0.642620
O39   O     O_R   0.343120 0.719930 0.542990 -0.642421
O40   O     O_R   0.656940 0.780080 0.457010 -0.642873
O41   O     O_R   0.656940 0.219920 0.457010 -0.642680
O42   O     O_R   0.156940 0.280080 0.457010 -0.642873
O43   O     O_R   0.156940 0.719920 0.457010 -0.642680
O44   O     O_R   0.886110 0.719980 0.457010 -0.630169
O45   O     O_R   0.801570 0.635440 0.457010 -0.637761
O46   O     O_R   0.886110 0.280020 0.457010 -0.630057
O47   O     O_R   0.386110 0.219980 0.457010 -0.630169
O48   O     O_R   0.386110 0.780020 0.457010 -0.630058
O49   O     O_R   0.801570 0.364560 0.457010 -0.637684
O50   O     O_R   0.301570 0.135440 0.457010 -0.637761
O51   O     O_R   0.301570 0.864560 0.457010 -0.637684
O52   O     O_R   0.758570 0.864610 0.542990 -0.644787
Zn1   Zn    Zn3+2 0.823660 0.707100 0.438580 0.979158
Zn2   Zn    Zn3+2 0.737810 0.207050 0.438580 0.963825
Zn3   Zn    Zn3+2 0.237810 0.292950 0.438580 0.963761
Zn4   Zn    Zn3+2 0.237810 0.707050 0.438580 0.963825
Zn5   Zn    Zn3+2 0.762240 0.792950 0.561420 0.968807
Zn6   Zn    Zn3+2 0.762240 0.207050 0.561420 0.968762
Zn7   Zn    Zn3+2 0.262240 0.292950 0.561420 0.968807
Zn8   Zn    Zn3+2 0.262240 0.707050 0.561420 0.968762
Zn9   Zn    Zn3+2 0.823660 0.292900 0.438580 0.979157
Zn10  Zn    Zn3+2 0.323660 0.207100 0.438580 0.979158
Zn11  Zn    Zn3+2 0.323660 0.792900 0.438580 0.979156
Zn12  Zn    Zn3+2 0.676410 0.707120 0.561420 0.968259
Zn13  Zn    Zn3+2 0.676410 0.292880 0.561420 0.968196
Zn14  Zn    Zn3+2 0.176410 0.207120 0.561420 0.968259
Zn15  Zn    Zn3+2 0.176410 0.792880 0.561420 0.968196
Zn16  Zn    Zn3+2 0.737810 0.792950 0.438580 0.963761

loop_
_geom_bond_atom_site_label_1
_geom_bond_atom_site_label_2
_ccdc_geom_bond_type
C20   C38   S    
C58   C62   T    
C24   C32   S    
C5    C103  S    
C27   C98   S    
C32   O16   A    
C17   C30   S    
O12   Zn2   S    
C12   C29   S    
C43   O17   A    
O41   Zn2   S    
O3    Zn7   S    
C76   H42   S    
C21   O15   A    
C41   H72   S    
C1    O5    A    
C85   O24   A    
C31   C98   S    
C95   O42   A    
C104  C108  D    
C105  H70   S    
C4    C8    S    
O17   Zn8   S    
O49   Zn9   S    
C22   H65   S    
C90   O28   A    
C2    H10   S    
O11   Zn3   S    
O38   Zn7   S    
C49   O9    A    
C34   H47   S    
C3    C105  D    
C24   C55   T    
C15   C19   S    
C71   C90   S    
O8    Zn15  S    
C28   C46   S    
C95   O33   A    
O13   Zn4   S    
C88   O26   A    
C29   C47   S    
O1    Zn12  S    
C30   C48   S    
C19   H63   S    
C102  H66   S    
C13   C35   S    
C31   C36   S    
C17   H61   S    
O5    Zn12  S    
C97   O44   A    
C39   C57   S    
O24   Zn13  S    
C23   C43   S    
C52   O13   A    
O36   Zn5   S    
C96   O43   A    
O23   Zn7   S    
C107  H32   S    
C35   H17   S    
C14   C18   S    
O23   Zn10  S    
C103  H68   S    
C18   H1    S    
C96   C106  S    
O42   Zn3   S    
C19   C37   S    
O39   Zn8   S    
O40   Zn16  S    
O34   Zn8   S    
C61   C66   T    
O19   Zn9   S    
C7    C87   D    
C40   H5    S    
C69   H20   S    
C80   H36   S    
C4    C102  S    
C70   C74   D    
C41   C46   S    
C25   C56   T    
C54   C97   S    
C23   C53   T    
C36   C53   S    
C77   H28   S    
C6    C104  S    
C21   O6    A    
C14   H58   S    
C75   C80   D    
C41   H6    S    
C15   H54   S    
C85   O49   A    
C16   C20   S    
O12   Zn13  S    
C89   O27   A    
C50   O19   A    
C27   C45   S    
C16   H55   S    
C87   H43   S    
O50   Zn10  S    
C65   H41   S    
C50   C63   S    
C89   O52   A    
C15   H59   S    
O25   Zn14  S    
C106  H31   S    
C32   O7    A    
C92   O4    A    
C1    O14   A    
O46   Zn9   S    
O22   Zn12  S    
C108  H33   S    
C82   H38   S    
C72   H24   S    
C84   O45   A    
C18   H62   S    
C42   H73   S    
O28   Zn2   S    
C40   C45   S    
O2    Zn6   S    
C75   H27   S    
O1    Zn5   S    
O44   Zn1   S    
O23   Zn3   S    
C13   C30   S    
C36   C40   S    
C3    H35   S    
C35   H48   S    
O9    Zn16  S    
C5    C65   D    
C9    N2    T    
C67   H18   S    
O12   Zn6   S    
C99   O46   A    
O34   Zn4   S    
C51   O20   A    
C16   C29   S    
O34   Zn15  S    
C88   O51   A    
O51   Zn11  S    
C3    C93   S    
C70   H21   S    
O10   Zn2   S    
C67   C68   S    
C43   O8    A    
C34   C38   S    
C74   C91   S    
C91   O29   A    
C47   H3    S    
C35   C39   S    
O29   Zn3   S    
C5    C9    S    
C80   C85   S    
O12   Zn9   S    
C12   H11   S    
C13   H13   S    
C78   C82   D    
C7    C11   S    
C104  H69   S    
C29   C60   S    
C87   C101  S    
C2    H50   S    
C96   O35   A    
C94   C108  S    
O32   Zn13  S    
C22   H34   S    
C101  O48   A    
C94   O32   A    
C10   N3    T    
C45   H76   S    
C50   O10   A    
O20   Zn10  S    
C69   C73   D    
C40   H71   S    
C75   C77   S    
C68   H19   S    
C65   C99   S    
C99   O37   A    
C84   O22   A    
C51   O11   A    
C11   N4    T    
O21   Zn11  S    
C83   H39   S    
C2    C33   S    
O45   Zn1   S    
C20   H64   S    
C92   O30   A    
C19   H12   S    
C81   H37   S    
O31   Zn12  S    
C46   H2    S    
O1    Zn1   S    
O52   Zn5   S    
C14   C27   S    
O7    Zn14  S    
O18   Zn1   S    
C45   H45   S    
C93   O31   A    
O23   Zn14  S    
C12   C34   S    
C78   H29   S    
C44   H74   S    
C98   H49   S    
C81   C84   S    
C52   C66   S    
C98   H9    S    
C54   H40   S    
C90   O2    A    
C28   C59   S    
O37   Zn6   S    
O14   Zn5   S    
C21   C25   S    
O33   Zn14  S    
C8    N1    T    
C34   H16   S    
C49   C62   S    
C13   H52   S    
C4    C54   D    
O26   Zn15  S    
C33   H46   S    
C51   C64   S    
C73   C92   S    
C73   H25   S    
C27   C58   S    
C6    C10   S    
C48   H75   S    
C103  C107  D    
C97   O36   A    
C6    C76   D    
C39   C44   S    
C95   C107  S    
C68   C72   D    
C76   C100  S    
C59   C63   T    
C17   C22   S    
O4    Zn8   S    
O6    Zn13  S    
C60   C64   T    
C101  O39   A    
C83   C86   S    
C14   H53   S    
O43   Zn4   S    
C86   O25   A    
C17   H57   S    
O34   Zn11  S    
C71   H22   S    
C79   C83   D    
C72   C89   S    
C78   C79   S    
C93   O40   A    
C31   H14   S    
C15   C28   S    
C1    C26   S    
O15   Zn6   S    
C91   O3    A    
C16   H60   S    
C82   C88   S    
C22   C39   S    
C74   H26   S    
C100  O38   A    
O27   Zn16  S    
C86   O50   A    
C7    C105  S    
C102  C106  D    
O1    Zn16  S    
C67   C71   D    
C42   C47   S    
C12   H51   S    
C37   C41   S    
C69   C70   S    
C26   C57   T    
C33   C37   S    
C20   H23   S    
O16   Zn7   S    
C2    C28   S    
C37   C55   S    
C38   C42   S    
O35   Zn15  S    
C42   H7    S    
C31   H44   S    
C79   H30   S    
C38   C56   S    
C49   O18   A    
C44   H8    S    
C52   O21   A    
C77   C81   D    
C30   C61   S    
O30   Zn4   S    
C33   H15   S    
C48   H4    S    
C100  O47   A    
C46   H56   S    
O48   Zn11  S    
O47   Zn10  S    
C18   C36   S    
C47   H67   S    
C44   C48   S    
C94   O41   A    
