data_mof_unit_34947.cif
_audit_creation_date              2012-12-10T18:21:15-0500
_audit_creation_method            fapswitch 2.2
_symmetry_space_group_name_H-M    P1
_symmetry_Int_Tables_number       1
_space_group_crystal_system       triclinic
_cell_length_a                    9.612952
_cell_length_b                    10.725172
_cell_length_c                    17.256302
_cell_angle_alpha                 94.346891
_cell_angle_beta                  82.109177
_cell_angle_gamma                 87.791448
_cell_volume                      1755.06058714

loop_
_atom_site_label
_atom_site_type_symbol
_atom_type_description
_atom_site_fract_x
_atom_site_fract_y
_atom_site_fract_z
_atom_type_partial_charge
C1    C     C_R   0.498229 0.739663 0.499704 0.941591
C2    C     C_R   0.502915 0.259577 0.495408 0.949409
C3    C     C_3   0.445613 0.949100 0.432606 0.355440
C4    C     C_3   0.557148 0.046734 0.554664 0.343438
C5    C     C_3   0.579104 0.023397 0.427496 0.386549
C6    C     C_3   0.423114 0.973625 0.559631 0.322262
C7    C     C_3   0.505464 0.121548 0.491082 -0.338749
C8    C     C_3   0.497115 0.875830 0.496783 -0.335100
C9    C     C_3   0.369069 0.047750 0.495650 -0.262764
C10   C     C_3   0.633328 0.948897 0.491339 -0.250604
C11   C     C_3   0.954929 0.388551 0.494721 -0.214131
C12   C     C_3   0.044874 0.611690 0.506010 -0.227104
C13   C     C_3   0.036648 0.444916 0.558716 0.349673
C14   C     C_3   0.962824 0.555839 0.441583 0.362711
C15   C     C_3   0.068121 0.443688 0.436119 0.388681
C16   C     C_3   0.931711 0.556175 0.563820 0.390871
C17   C     C_R   0.476068 0.508005 0.650657 0.875861
C18   C     C_R   0.523423 0.499531 0.349183 0.869857
C19   C     C_R   0.453037 0.532460 0.737773 -0.105856
C20   C     C_R   0.542266 0.502989 0.261813 -0.080545
C21   C     C_R   0.544450 0.472964 0.781332 -0.082837
C22   C     C_R   0.421409 0.502704 0.226077 -0.112512
C23   C     C_R   0.534601 0.500322 0.862099 -0.259536
C24   C     C_R   0.427159 0.511328 0.146635 -0.234762
C25   C     C_R   0.441230 0.596240 0.901243 -0.115399
C26   C     C_R   0.549558 0.547702 0.101745 -0.016731
C27   C     C_R   0.353639 0.662650 0.857603 0.440275
C28   C     C_R   0.678404 0.522744 0.131380 0.405766
C29   C     C_R   0.348141 0.620441 0.778471 0.160763
C30   C     C_R   0.674072 0.502234 0.212534 0.141911
C31   C     C_2   0.426149 0.613485 0.988740 0.214436
C32   C     C_2   0.543349 0.608590 0.025479 0.221675
Cu1   Cu    Cu3+1 0.356850 0.500010 0.499980 1.107216
Cu2   Cu    Cu3+1 0.643150 0.499990 0.500020 1.116721
H1    H     H_    0.623503 0.403595 0.752932 0.251946
H2    H     H_    0.319905 0.498228 0.259875 0.264070
H3    H     H_    0.912878 0.293674 0.491263 0.265855
H4    H     H_    0.086263 0.706489 0.513164 0.257122
H5    H     H_    0.331833 0.492246 0.123237 0.216550
H6    H     H_    0.601662 0.446606 0.894179 0.219332
H7    H     H_    0.260941 0.085291 0.493752 0.276166
H8    H     H_    0.741651 0.909624 0.491020 0.273963
N1    N     N_3   0.141720 0.500030 0.499940 -0.303094
N2    N     N_3   0.858280 0.499970 0.500060 -0.307448
O1    O     O_R   0.379130 0.683150 0.499960 -0.570075
O2    O     O_R   0.620870 0.316850 0.500040 -0.560711
O3    O     O_R   0.620910 0.683140 0.500000 -0.520878
O4    O     O_R   0.379090 0.316860 0.500000 -0.520436
O5    O     O_R   0.365090 0.500030 0.613580 -0.574798
O6    O     O_R   0.634910 0.499970 0.386420 -0.558169
O7    O     O_R   0.606870 0.500020 0.613610 -0.505044
O8    O     O_R   0.393130 0.499980 0.386390 -0.538082
S1    S     S_3+6 0.141044 0.330114 0.356542 0.030265
O9    O     O_2   0.122553 0.379983 0.279545 -0.336660
O10   O     O_2   0.292938 0.294061 0.357210 -0.238353
O11   O     O_3   0.054709 0.197700 0.364136 -0.486257
H9    H     H_    0.077792 0.150725 0.311973 0.402267
S2    S     S_3+6 0.850693 0.660664 0.645480 0.051078
O12   O     O_2   0.955060 0.753722 0.665853 -0.268578
O13   O     O_2   0.725197 0.732204 0.625729 -0.220563
O14   O     O_3   0.800825 0.581689 0.723883 -0.537750
H10   H     H_    0.770139 0.647092 0.767195 0.364174
N3    N     N_2   0.800441 0.476124 0.243511 -0.382257
H11   H     H_    0.889763 0.515605 0.218457 0.337415
C33   C     C_3   0.820873 0.349841 0.264924 -0.335785
H12   H     H_    0.907993 0.298757 0.224900 0.259552
H13   H     H_    0.725213 0.296665 0.262140 0.228694
H14   H     H_    0.846394 0.353916 0.325653 0.256961
N4    N     N_2   0.229566 0.660392 0.744153 -0.358109
H15   H     H_    0.239192 0.667557 0.684723 0.309077
C34   C     C_3   0.095678 0.619411 0.780173 -0.337429
H16   H     H_    0.022875 0.702053 0.799382 0.267181
H17   H     H_    0.105357 0.565559 0.831968 0.201048
H18   H     H_    0.050495 0.557793 0.737328 0.263127
N5    N     N_2   0.660789 0.676615 0.994470 -0.368024
H19   H     H_    0.674206 0.683951 0.934716 0.268862
C35   C     C_3   0.672633 0.796040 0.037491 -0.493421
H20   H     H_    0.771225 0.838539 0.013356 0.252721
H21   H     H_    0.676161 0.784136 0.100604 0.238608
H22   H     H_    0.582034 0.860551 0.031778 0.227747
N6    N     N_2   0.287276 0.623415 0.031621 -0.445333
H23   H     H_    0.206456 0.590399 0.003593 0.304902
C36   C     C_3   0.251609 0.724922 0.092942 -0.452162
H24   H     H_    0.171299 0.791228 0.076816 0.278106
H25   H     H_    0.344944 0.777505 0.104578 0.221883
H26   H     H_    0.205740 0.686324 0.147907 0.211182
S3    S     S_3+6 0.256014 0.803011 0.898527 0.015808
O15   O     O_2   0.115336 0.771569 0.939840 -0.318121
O16   O     O_2   0.336023 0.873331 0.955253 -0.303585
O17   O     O_3   0.227252 0.896784 0.828298 -0.430006
H27   H     H_    0.165982 0.967453 0.855819 0.384477
S4    S     S_3+6 0.840610 0.496614 0.066076 -0.003144
O18   O     O_2   0.814448 0.460054 0.983702 -0.274197
O19   O     O_2   0.919644 0.614798 0.067329 -0.302210
O20   O     O_3   0.941435 0.380459 0.092932 -0.539432
H28   H     H_    0.036780 0.390220 0.064656 0.379542
S5    S     S_3+6 0.681519 0.050423 0.337894 0.054218
O21   O     O_2   0.590238 0.113395 0.286937 -0.271430
O22   O     O_2   0.796292 0.132726 0.356733 -0.316877
O23   O     O_3   0.751998 0.914531 0.291547 -0.434149
H29   H     H_    0.812883 0.938527 0.244488 0.364403
S6    S     S_3+6 0.320035 0.942500 0.647987 0.113276
O24   O     O_2   0.193026 0.876174 0.628984 -0.216447
O25   O     O_2   0.407305 0.860442 0.691408 -0.260448
O26   O     O_3   0.268299 0.077373 0.702318 -0.418936
H30   H     H_    0.330929 0.084020 0.743290 0.396584
S7    S     S_3+6 0.371479 0.880892 0.350956 0.078942
O27   O     O_2   0.481601 0.799209 0.298372 -0.278850
O28   O     O_2   0.251975 0.803092 0.380237 -0.239757
O29   O     O_3   0.312047 0.994733 0.300430 -0.451847
H31   H     H_    0.271938 0.950222 0.256853 0.360443
S8    S     S_3+6 0.636956 0.109857 0.635156 0.068304
O30   O     O_2   0.774102 0.162349 0.604055 -0.223817
O31   O     O_2   0.540964 0.211930 0.680226 -0.335047
O32   O     O_3   0.666350 0.996919 0.694151 -0.430397
H32   H     H_    0.714284 0.038291 0.735680 0.381189
S9    S     S_3+6 0.063834 0.336501 0.630794 0.085091
O33   O     O_2   0.090129 0.207171 0.590470 -0.220517
O34   O     O_2   0.183330 0.365594 0.675235 -0.272766
O35   O     O_3   0.915978 0.338040 0.695369 -0.478171
H33   H     H_    0.932274 0.270508 0.729670 0.391844
S10   S     S_3+6 0.933723 0.672100 0.374316 0.076199
O36   O     O_2   0.787897 0.676411 0.353452 -0.230575
O37   O     O_2   0.958781 0.799501 0.410810 -0.238134
O38   O     O_3   0.049826 0.643307 0.292326 -0.519771
H34   H     H_    0.033573 0.714121 0.260494 0.369401

loop_
_geom_bond_atom_site_label_1
_geom_bond_atom_site_label_2
_ccdc_geom_bond_type
C25   C31   S    
S3    O15   D    
N3    C33   S    
C26   C32   S    
C14   S10   S    
C10   H8    S    
C1    C8    S    
Cu1   O1    S    
C2    C7    S    
C17   O7    A    
C32   N5    S    
S8    O31   D    
N6    H23   S    
C18   O8    A    
C20   C30   A    
C35   H20   S    
C2    O2    A    
Cu1   O8    S    
Cu2   O7    S    
C36   H24   S    
C15   S1    S    
C19   C21   A    
C24   C26   A    
C12   N1    S    
S9    O34   D    
S1    O11   S    
C27   C29   A    
S2    O13   D    
O32   H32   S    
C24   H5    S    
O11   H9    S    
S6    O26   S    
C11   H3    S    
N4    C34   S    
O29   H31   S    
S4    O18   D    
S5    O22   D    
C11   C15   S    
C12   C16   S    
C33   H13   S    
S7    O27   D    
Cu2   O2    S    
C16   N2    S    
O14   H10   S    
S2    O14   S    
C35   H21   S    
C4    S8    S    
C30   N3    S    
C6    S6    S    
S7    O28   D    
N4    H15   S    
C6    C9    S    
C4    C7    S    
S8    O30   D    
N6    C36   S    
S5    O21   D    
C29   N4    S    
S1    O10   D    
Cu2   O6    S    
Cu1   N1    S    
Cu2   N2    S    
C4    C6    S    
C3    C8    S    
S9    O35   S    
C17   O5    A    
C5    C7    S    
C1    O3    A    
C6    C8    S    
C3    S7    S    
S2    O12   D    
S1    O9    D    
S4    O20   S    
S6    O25   D    
N5    H19   S    
C3    C9    S    
C31   C32   D    
C33   H14   S    
S4    O19   D    
Cu1   Cu2   S    
C11   N2    S    
C28   S4    S    
C16   S2    S    
C27   S3    S    
N5    C35   S    
C36   H25   S    
C12   C14   S    
C21   C23   A    
O38   H34   S    
S7    O29   S    
C22   C24   A    
C13   C16   S    
S10   O37   D    
C19   C29   A    
C13   N1    S    
S5    O23   S    
O35   H33   S    
C18   O6    A    
C14   N2    S    
C35   H22   S    
C7    C9    S    
C9    H7    S    
C4    C10   S    
C20   C22   A    
C3    C5    S    
C34   H18   S    
C13   S9    S    
C21   H1    S    
C25   C27   A    
C22   H2    S    
O26   H30   S    
C26   C28   A    
C31   N6    S    
C2    O4    A    
S10   O38   S    
S3    O16   D    
C15   N1    S    
C34   H16   S    
S9    O33   D    
C11   C13   S    
C1    O1    A    
O17   H27   S    
C28   C30   A    
O23   H29   S    
C17   C19   S    
C5    S5    S    
C18   C20   S    
C23   C25   A    
C12   H4    S    
S6    O24   D    
N3    H11   S    
C5    C10   S    
C36   H26   S    
C8    C10   S    
C33   H12   S    
S3    O17   S    
C34   H17   S    
O20   H28   S    
Cu1   O4    S    
C14   C15   S    
Cu2   O3    S    
S10   O36   D    
Cu1   O5    S    
S8    O32   S    
C23   H6    S    
