data_mof_unit_7056.cif
_audit_creation_date              2012-12-10T19:06:24-0500
_audit_creation_method            fapswitch 2.2
_symmetry_space_group_name_H-M    P1
_symmetry_Int_Tables_number       1
_space_group_crystal_system       triclinic
_cell_length_a                    23.532146
_cell_length_b                    10.859734
_cell_length_c                    9.635038
_cell_angle_alpha                 90.310235
_cell_angle_beta                  89.10122
_cell_angle_gamma                 90.360503
_cell_volume                      2461.87491385

loop_
_atom_site_label
_atom_site_type_symbol
_atom_type_description
_atom_site_fract_x
_atom_site_fract_y
_atom_site_fract_z
_atom_type_partial_charge
C1    C     C_R   0.498839 0.263045 0.499333 0.831006
C2    C     C_R   0.968897 0.262490 0.499509 -0.236735
C3    C     C_R   0.028363 0.260132 0.496461 0.491870
C4    C     C_R   0.059388 0.372003 0.487509 -0.140998
C5    C     C_R   0.029678 0.484767 0.483950 -0.081985
C6    C     C_R   0.059967 0.596834 0.482449 0.003726
C7    C     C_R   0.030588 0.708260 0.474225 -0.195812
C8    C     C_R   0.971444 0.710098 0.465185 -0.047496
C9    C     C_R   0.119325 0.375406 0.483029 0.633098
C10   C     C_R   0.119332 0.595183 0.490062 0.536526
C11   C     C_R   0.241184 0.539304 0.381462 -0.026663
C12   C     C_R   0.391192 0.496058 0.500678 0.807028
C13   C     C_R   0.300239 0.543983 0.388870 -0.272528
C14   C     C_R   0.328587 0.490260 0.500164 -0.159273
C15   C     C_R   0.296710 0.428143 0.603981 -0.180198
C16   C     C_R   0.237059 0.433588 0.603947 0.477560
C17   C     C_R   0.209057 0.486806 0.490859 0.190924
C18   C     C_R   0.757871 0.398562 0.410911 -0.146703
C19   C     C_R   0.698441 0.397777 0.419815 0.463463
C20   C     C_R   0.670460 0.490553 0.496835 -0.103900
C21   C     C_R   0.702039 0.577093 0.571436 -0.280910
C22   C     C_R   0.761054 0.571529 0.570729 -0.065593
C23   C     C_R   0.500236 0.736998 0.500131 0.817949
C24   C     C_R   0.789742 0.484279 0.487841 0.258254
C25   C     C_R   0.506994 0.063815 0.616038 -0.127618
C26   C     C_R   0.497200 0.130227 0.496501 -0.180384
C27   C     C_R   0.486628 0.062528 0.372756 0.480102
C28   C     C_R   0.488698 0.933170 0.374637 -0.288056
C29   C     C_R   0.499813 0.869734 0.498427 -0.156798
C30   C     C_R   0.509525 0.939796 0.616486 -0.068485
C31   C     C_3   0.521935 0.935059 0.769196 0.869398
C32   C     C_3   0.517210 0.078234 0.767582 0.236441
C33   C     C_R   0.549926 0.498959 0.072037 0.202625
C34   C     C_R   0.608541 0.497986 0.499043 0.812744
C35   C     C_R   0.450896 0.499520 0.077025 -0.166942
C36   C     C_R   0.450476 0.505525 0.930070 0.575976
C37   C     C_R   0.549688 0.491134 0.924551 0.108477
C38   C     C_3   0.599039 0.575481 0.907889 -0.287529
C39   C     C_3   0.592991 0.602217 0.062809 -0.308822
C40   C     C_R   0.880029 0.592677 0.460124 0.537075
C41   C     C_R   0.879854 0.375905 0.499695 0.577004
C42   C     C_R   0.939346 0.373957 0.493319 -0.078807
C43   C     C_R   0.969619 0.485665 0.482144 -0.020783
C44   C     C_R   0.939967 0.597901 0.468980 -0.043701
Cu1   Cu    Cu3+1 0.500000 0.499980 0.640670 1.004359
Cu2   Cu    Cu3+1 0.500000 0.500020 0.359330 0.968409
H1    H     H_    0.945968 0.175872 0.504583 0.214170
H2    H     H_    0.680941 0.648244 0.631640 0.144725
H3    H     H_    0.784529 0.636743 0.633392 0.168854
H4    H     H_    0.480797 0.883179 0.279468 0.165361
H5    H     H_    0.479015 0.118621 0.820058 0.088505
H6    H     H_    0.410798 0.498094 0.132870 0.166817
H7    H     H_    0.591096 0.655279 0.839838 0.215637
H8    H     H_    0.573186 0.692940 0.084867 0.153535
H9    H     H_    0.053787 0.794927 0.473163 0.193136
H10   H     H_    0.324301 0.588327 0.305971 0.164945
H11   H     H_    0.779036 0.332216 0.344007 0.182137
N1    N     N_R   0.851156 0.483925 0.481542 -0.449492
N2    N     N_R   0.147847 0.485737 0.487324 -0.461273
N3    N     N_R   0.500360 0.500930 0.147930 -0.215947
N4    N     N_R   0.500360 0.500890 0.852020 -0.222954
O1    O     O_R   0.500000 0.319640 0.618810 -0.558590
O2    O     O_2   0.851013 0.270587 0.526205 -0.539677
O3    O     O_2   0.149096 0.269838 0.474081 -0.452768
O4    O     O_2   0.148466 0.702239 0.500501 -0.537277
O5    O     O_R   0.500010 0.319680 0.381230 -0.525634
O6    O     O_R   0.417880 0.499940 0.618820 -0.524417
O7    O     O_R   0.417880 0.499980 0.381240 -0.604194
O8    O     O_R   0.499990 0.680320 0.618770 -0.556909
O9    O     O_R   0.500000 0.680360 0.381190 -0.598020
O10   O     O_R   0.582120 0.500020 0.618760 -0.593265
O11   O     O_R   0.582120 0.500060 0.381180 -0.550809
O12   O     O_2   0.850693 0.694664 0.428100 -0.526537
O13   O     O_3   0.667966 0.312442 0.343800 -0.574531
C45   C     C_3   0.656613 0.209698 0.428925 -0.286666
H12   H     H_    0.631094 0.142003 0.369358 0.189507
H13   H     H_    0.631219 0.235589 0.523003 0.172651
H14   H     H_    0.696653 0.163690 0.459310 0.181146
O14   O     O_3   0.476376 0.120953 0.248671 -0.589358
C46   C     C_3   0.417105 0.132266 0.234210 -0.306837
H15   H     H_    0.408841 0.182040 0.136374 0.195443
H16   H     H_    0.397879 0.186931 0.320882 0.165979
H17   H     H_    0.396161 0.040316 0.226866 0.157371
O15   O     O_3   0.476503 0.875183 0.839884 -0.622458
C47   C     C_3   0.479645 0.894405 0.984412 -0.361202
H18   H     H_    0.470003 0.991347 0.011803 0.185909
H19   H     H_    0.521505 0.868063 0.026237 0.197780
H20   H     H_    0.447006 0.835755 0.036202 0.176429
O16   O     O_3   0.576246 0.889557 0.809595 -0.598180
C48   C     C_3   0.617923 0.887266 0.702246 -0.321778
H21   H     H_    0.659393 0.864263 0.748339 0.193837
H22   H     H_    0.622931 0.978032 0.650731 0.199504
H23   H     H_    0.608018 0.814315 0.625033 0.140547
O17   O     O_3   0.568965 0.140959 0.791080 -0.574306
C49   C     C_3   0.573395 0.167311 0.933920 -0.193045
H24   H     H_    0.575216 0.081373 0.995821 0.180965
H25   H     H_    0.537755 0.226125 0.971669 0.153881
H26   H     H_    0.613477 0.219127 0.950904 0.197001
O18   O     O_3   0.055692 0.147658 0.494864 -0.532486
C50   C     C_3   0.054083 0.098479 0.630072 -0.207686
H27   H     H_    0.073241 0.163232 0.706529 0.172753
H28   H     H_    0.079553 0.012863 0.630215 0.202884
H29   H     H_    0.009982 0.073406 0.662656 0.138952
O19   O     O_3   0.398421 0.510454 0.867745 -0.571329
C51   C     C_3   0.377364 0.631497 0.877786 -0.288249
H30   H     H_    0.335108 0.633861 0.828461 0.180042
H31   H     H_    0.405435 0.696740 0.820226 0.230842
H32   H     H_    0.371403 0.661667 0.987564 0.129239
C52   C     C_1   0.649613 0.502073 0.868463 0.311578
N5    N     N_1   0.688992 0.443047 0.840549 -0.260576
C53   C     C_1   0.645872 0.587985 0.140343 0.363519
N6    N     N_1   0.688493 0.580153 0.197496 -0.262072
C54   C     C_1   0.945150 0.829761 0.457352 0.350269
N7    N     N_1   0.924266 0.925729 0.451097 -0.237926
C55   C     C_1   0.214289 0.586508 0.259208 0.310338
N8    N     N_1   0.192744 0.624245 0.161157 -0.292552
C56   C     C_1   0.323674 0.348523 0.702808 0.404231
N9    N     N_1   0.344918 0.283544 0.781173 -0.262668
O20   O     O_3   0.205708 0.378334 0.709392 -0.562317
C57   C     C_3   0.196311 0.466398 0.815171 -0.275665
H33   H     H_    0.170920 0.422738 0.899694 0.204311
H34   H     H_    0.171626 0.546057 0.776755 0.173173
H35   H     H_    0.237063 0.498659 0.860415 0.164449

loop_
_geom_bond_atom_site_label_1
_geom_bond_atom_site_label_2
_ccdc_geom_bond_type
C32   O17   S    
Cu1   O10   S    
C9    O3    S    
C41   C42   A    
C23   O8    A    
C35   C36   A    
C7    H9    S    
C43   C44   A    
C1    O1    A    
C49   H26   S    
C7    C8    A    
C47   H18   S    
C12   O7    A    
C26   C27   A    
C33   C39   S    
C18   C24   A    
C23   C29   S    
C28   C29   A    
C37   C38   S    
C41   N1    A    
Cu2   O5    S    
C27   O14   S    
C30   C31   S    
C10   O4    S    
C39   H8    S    
C55   N8    T    
Cu1   O1    S    
C40   O12   S    
C18   C19   A    
C28   H4    S    
C19   C20   A    
C16   C17   A    
C31   O16   S    
Cu1   O6    S    
C13   C14   A    
C11   C55   S    
Cu2   O11   S    
C57   H35   S    
C13   H10   S    
C20   C34   S    
C25   C32   S    
C39   C53   S    
C5    C43   A    
C21   C22   A    
C23   O9    A    
C46   H17   S    
O19   C51   S    
C51   H32   S    
C57   H34   S    
C47   H19   S    
C38   C39   S    
C12   O6    A    
C40   N1    A    
O13   C45   S    
Cu1   O8    S    
O15   C47   S    
C46   H16   S    
C16   O20   S    
C46   H15   S    
C25   C26   A    
Cu1   Cu2   S    
C50   H29   S    
C33   C37   A    
C31   O15   S    
C15   C56   S    
C35   N3    A    
C9    N2    A    
C45   H12   S    
C32   H5    S    
Cu2   O7    S    
C29   C30   A    
C51   H31   S    
C18   H11   S    
C48   H22   S    
O18   C50   S    
C50   H28   S    
C1    O5    A    
C38   C52   S    
C45   H13   S    
C8    C54   S    
C17   N2    S    
C22   H3    S    
C12   C14   S    
C33   N3    A    
C1    C26   S    
C22   C24   A    
C42   C43   A    
C41   O2    S    
C3    C4    A    
C34   O11   A    
C35   H6    S    
C57   H33   S    
C48   H23   S    
C54   N7    T    
C47   H20   S    
C25   C30   A    
C11   C17   A    
C53   N6    T    
Cu2   N3    S    
C31   C32   S    
C8    C44   A    
C4    C5    A    
C6    C10   A    
C37   N4    A    
O20   C57   S    
C49   H25   S    
C6    C7    A    
C2    H1    S    
C51   H30   S    
C36   O19   S    
C21   H2    S    
C10   N2    A    
C4    C9    A    
C56   N9    T    
C11   C13   A    
C48   H21   S    
C5    C6    A    
C38   H7    S    
C2    C42   A    
C15   C16   A    
Cu1   N4    S    
C50   H27   S    
C2    C3    A    
C19   O13   S    
O17   C49   S    
C45   H14   S    
Cu2   O9    S    
O14   C46   S    
C3    O18   S    
C40   C44   A    
C20   C21   A    
C24   N1    S    
C27   C28   A    
C14   C15   A    
O16   C48   S    
C52   N5    T    
C34   O10   A    
C49   H24   S    
C36   N4    A    
