data_mof_unit_33679.cif
_audit_creation_date              2012-12-11T14:36:06-0500
_audit_creation_method            fapswitch 2.2
_symmetry_space_group_name_H-M    P1
_symmetry_Int_Tables_number       1
_space_group_crystal_system       triclinic
_cell_length_a                    14.452188
_cell_length_b                    16.135206
_cell_length_c                    7.008773
_cell_angle_alpha                 90.000323
_cell_angle_beta                  81.86577
_cell_angle_gamma                 90.000021
_cell_volume                      1617.92608988

loop_
_atom_site_label
_atom_site_type_symbol
_atom_type_description
_atom_site_fract_x
_atom_site_fract_y
_atom_site_fract_z
_atom_type_partial_charge
O1    O     O_R   0.337460 0.413110 0.524760 -0.532726
O2    O     O_R   0.662540 0.913110 0.475240 -0.532726
O3    O     O_R   0.348690 0.587910 0.191230 -0.547804
O4    O     O_R   0.651310 0.087910 0.808770 -0.547801
O5    O     O_R   0.166530 0.586890 0.082470 -0.546141
O6    O     O_R   0.833470 0.086890 0.917530 -0.546137
C1    C     C_R   0.366977 0.618688 0.356202 0.753468
C2    C     C_R   0.633022 0.118688 0.643799 0.753469
O7    O     O_R   0.348700 0.413830 0.191250 -0.547282
O8    O     O_R   0.651300 0.913830 0.808750 -0.547284
O9    O     O_R   0.166530 0.411570 0.082490 -0.543916
O10   O     O_R   0.833470 0.911570 0.917510 -0.543918
C3    C     C_R   0.373776 0.388261 0.355257 0.757951
C4    C     C_R   0.626226 0.888260 0.644743 0.757952
O11   O     O_R   0.337460 0.588430 0.524740 -0.534759
O12   O     O_R   0.662540 0.088430 0.475260 -0.534756
O13   O     O_3   0.192230 0.499460 0.407330 -0.371520
O14   O     O_3   0.807770 0.999460 0.592670 -0.371525
V1    V     V_3+5 0.263080 0.500100 0.108540 1.360838
V2    V     V_3+5 0.736920 0.000100 0.891460 1.360845
O15   O     O_R   0.155290 0.412090 0.756570 -0.542524
O16   O     O_R   0.844710 0.912090 0.243430 -0.542524
C5    C     C_R   0.132612 0.383766 0.932377 0.702402
C6    C     C_R   0.867387 0.883765 0.067622 0.702405
O17   O     O_R   0.155290 0.586170 0.756550 -0.533337
O18   O     O_R   0.844710 0.086170 0.243450 -0.533345
C7    C     C_R   0.136403 0.617882 0.929112 0.698477
C8    C     C_R   0.863598 0.117882 0.070889 0.698463
V3    V     V_3+5 0.240910 0.499900 0.616030 1.378223
V4    V     V_3+5 0.759090 0.999900 0.383970 1.378224
O19   O     O_3   0.311760 0.500540 0.867100 -0.374362
O20   O     O_3   0.688240 0.000540 0.132900 -0.374357
C9    C     C_3   0.081050 0.740680 0.140105 -0.061761
C10   C     C_3   0.918946 0.240682 0.859906 -0.061771
C11   C     C_3   0.005101 0.810053 0.185644 -0.382035
C12   C     C_3   0.994891 0.310058 0.814367 -0.382034
H1    H     H_    0.964548 0.799947 0.329813 0.142097
H2    H     H_    0.035437 0.299961 0.670188 0.142112
C13   C     C_3   0.962196 0.653683 0.000477 0.004136
C14   C     C_3   0.037803 0.153683 0.999520 0.004145
C15   C     C_3   0.076346 0.755909 0.792999 0.022337
C16   C     C_3   0.923662 0.255907 0.207011 0.022358
C17   C     C_3   0.065154 0.689518 0.957987 0.019686
C18   C     C_3   0.934847 0.189518 0.042019 0.019683
H3    H     H_    0.146855 0.783608 0.787139 0.161860
H4    H     H_    0.853152 0.283607 0.212879 0.161856
C19   C     C_3   0.937886 0.812773 0.030423 0.023546
C20   C     C_3   0.062113 0.312774 0.969574 0.023544
C21   C     C_3   0.885644 0.725308 0.026944 0.295153
C22   C     C_3   0.114356 0.225308 0.973031 0.295151
C23   C     C_3   0.001553 0.826458 0.831656 0.011737
C24   C     C_3   0.998453 0.326457 0.168350 0.011737
C25   C     C_2   0.431122 0.690227 0.355397 -0.342300
C26   C     C_2   0.568874 0.190225 0.644607 -0.342293
C27   C     C_2   0.434561 0.741044 0.510650 0.180457
C28   C     C_2   0.565442 0.241048 0.489364 0.180466
C29   C     C_2   0.552936 0.824026 0.646835 -0.345617
C30   C     C_2   0.447070 0.324030 0.353165 -0.345624
C31   C     C_2   0.503635 0.809723 0.496990 0.156462
C32   C     C_2   0.496364 0.309724 0.503021 0.156459
H5    H     H_    0.478144 0.701455 0.222687 0.111136
H6    H     H_    0.521842 0.201444 0.777310 0.111133
H7    H     H_    0.071087 0.694810 0.256267 0.163068
H8    H     H_    0.928910 0.194812 0.743741 0.163070
H9    H     H_    0.955522 0.825857 0.717717 0.165806
H10   H     H_    0.044491 0.325853 0.282278 0.165812
C33   C     C_3   0.939454 0.579785 0.873002 -0.784051
H11   H     H_    0.871529 0.552105 0.935243 0.200668
H12   H     H_    0.933876 0.596658 0.722886 0.218818
H13   H     H_    0.991929 0.529692 0.870483 0.202875
C34   C     C_3   0.060549 0.079791 0.127011 -0.784038
H14   H     H_    0.128470 0.052106 0.064764 0.200662
H15   H     H_    0.066134 0.096672 0.277118 0.218825
H16   H     H_    0.008072 0.029699 0.129554 0.202880
C35   C     C_3   0.820638 0.722592 0.866477 -0.740751
H17   H     H_    0.768907 0.773633 0.882576 0.204015
H18   H     H_    0.859623 0.724636 0.719004 0.180752
H19   H     H_    0.778445 0.664849 0.875928 0.207232
C36   C     C_3   0.179377 0.222592 0.133469 -0.740752
H20   H     H_    0.231110 0.273631 0.117346 0.204013
H21   H     H_    0.140404 0.224638 0.280952 0.180752
H22   H     H_    0.221568 0.164847 0.124002 0.207231
C37   C     C_3   0.511343 0.864123 0.318885 -0.688964
H23   H     H_    0.454020 0.851235 0.232915 0.175971
H24   H     H_    0.505128 0.930526 0.360504 0.202379
H25   H     H_    0.578507 0.852297 0.224747 0.214780
C38   C     C_3   0.488643 0.364117 0.681144 -0.688939
H26   H     H_    0.545962 0.351230 0.767122 0.175968
H27   H     H_    0.494853 0.430522 0.639546 0.202384
H28   H     H_    0.421476 0.352281 0.775269 0.214770
C39   C     C_3   0.366400 0.734560 0.695439 -0.735168
H29   H     H_    0.369295 0.790370 0.787160 0.182853
H30   H     H_    0.293909 0.730364 0.661865 0.192554
H31   H     H_    0.383112 0.679867 0.780390 0.219563
C40   C     C_3   0.633619 0.234576 0.304592 -0.735204
H32   H     H_    0.630744 0.290399 0.212907 0.182863
H33   H     H_    0.706103 0.230364 0.338196 0.192563
H34   H     H_    0.616908 0.179897 0.219597 0.219553
H35   H     H_    0.539755 0.785772 0.775441 0.114036
H36   H     H_    0.460260 0.285781 0.224552 0.114043
C41   C     C_3   0.181979 0.776280 0.134054 -0.806930
H37   H     H_    0.197648 0.793038 0.278914 0.210275
H38   H     H_    0.236197 0.731116 0.074704 0.213956
H39   H     H_    0.192656 0.833637 0.047268 0.207309
C42   C     C_3   0.818017 0.276279 0.865969 -0.806906
H40   H     H_    0.802337 0.293019 0.721105 0.210269
H41   H     H_    0.763801 0.231121 0.925365 0.213945
H42   H     H_    0.807350 0.333645 0.952729 0.207309
H43   H     H_    0.038118 0.871632 0.197592 0.173092
H44   H     H_    0.961872 0.371637 0.802445 0.173090
H45   H     H_    0.959977 0.622251 0.142687 0.118220
H46   H     H_    0.040017 0.122245 0.857317 0.118216
C43   C     C_3   0.819279 0.709982 0.219275 -0.799255
H47   H     H_    0.857278 0.705800 0.345533 0.180480
H48   H     H_    0.765475 0.759311 0.247031 0.212017
H49   H     H_    0.781950 0.650019 0.213034 0.211200
C44   C     C_3   0.180705 0.209982 0.780678 -0.799262
H50   H     H_    0.142691 0.205799 0.654441 0.180475
H51   H     H_    0.234505 0.259313 0.752901 0.212023
H52   H     H_    0.218036 0.150020 0.786903 0.211200
C45   C     C_3   0.078542 0.724388 0.591172 -0.854156
H53   H     H_    0.015254 0.689562 0.571353 0.215882
H54   H     H_    0.080978 0.780653 0.502394 0.212136
H55   H     H_    0.143115 0.689825 0.537426 0.239188
C46   C     C_3   0.921476 0.224388 0.408837 -0.854157
H56   H     H_    0.984783 0.189591 0.428667 0.215856
H57   H     H_    0.919004 0.280655 0.497617 0.212133
H58   H     H_    0.856921 0.189800 0.462582 0.239203
C47   C     C_3   0.049029 0.912533 0.805343 -0.856999
H59   H     H_    0.088297 0.917636 0.657650 0.213782
H60   H     H_    0.997097 0.963447 0.820857 0.225481
H61   H     H_    0.099305 0.922578 0.907978 0.213995
C48   C     C_3   0.950978 0.412531 0.194683 -0.857012
H62   H     H_    0.911725 0.417634 0.342384 0.213784
H63   H     H_    0.002908 0.463447 0.179152 0.225485
H64   H     H_    0.900692 0.422576 0.092074 0.213993

loop_
_geom_bond_atom_site_label_1
_geom_bond_atom_site_label_2
_ccdc_geom_bond_type
C28   C40   S    
C21   C43   S    
C38   H26   S    
C41   H37   S    
C14   C34   S    
C27   C31   S    
C22   C44   S    
O13   V3    S    
C40   H32   S    
O4    C2    A    
C11   C19   S    
C22   C36   S    
C23   C47   S    
C40   H34   S    
C14   H46   S    
C42   H41   S    
O9    V1    S    
C9    C41   S    
C11   H1    S    
C31   C37   S    
C43   H47   S    
O3    C1    A    
C44   H51   S    
C23   H9    S    
C29   C31   D    
O12   V4    S    
C29   H35   S    
C16   H4    S    
C15   C45   S    
O7    C3    A    
C45   H55   S    
C27   C39   S    
C16   C46   S    
C1    O11   A    
O5    C7    A    
C25   H5    S    
O7    V1    S    
O6    C8    A    
O8    V2    S    
C46   H58   S    
C21   C35   S    
O3    V1    S    
O14   V4    S    
C34   H16   S    
C10   C12   S    
C11   H43   S    
C43   H49   S    
C13   H45   S    
V1    O19   S    
C41   H38   S    
C48   H63   S    
C24   C48   S    
C15   C17   S    
C16   C18   S    
C10   H8    S    
C32   C38   S    
O11   V3    S    
C25   C27   D    
O17   V3    S    
C42   H42   S    
C26   C28   D    
C33   H11   S    
C9    C17   S    
C30   H36   S    
C19   C21   S    
O8    C4    A    
C44   H52   S    
C2    C26   S    
C39   H29   S    
C34   H15   S    
O13   V1    S    
C19   C23   S    
C3    C30   S    
C26   H6    S    
O15   V3    S    
C8    C18   S    
C28   C32   S    
C33   H12   S    
C35   H17   S    
C39   H30   S    
C37   H23   S    
C14   C18   S    
C9    H7    S    
O10   V2    S    
O1    V3    S    
C10   C18   S    
C20   C22   S    
C35   H18   S    
C45   H53   S    
C48   H64   S    
C37   H24   S    
O18   V4    S    
C41   H39   S    
O15   C5    A    
C12   H44   S    
C48   H62   S    
O16   C6    A    
O1    C3    A    
C1    C25   S    
C24   H10   S    
C36   H21   S    
C47   H59   S    
V2    O20   S    
C4    C29   S    
C5    C20   S    
O16   V4    S    
C13   C21   S    
C6    C19   S    
C13   C33   S    
C36   H22   S    
C13   C17   S    
C40   H33   S    
O5    V1    S    
O17   C7    A    
O6    V2    S    
C42   H40   S    
O10   C6    A    
O18   C8    A    
O2    V4    S    
C33   H13   S    
C47   H61   S    
C12   H2    S    
C34   H14   S    
V3    O19   S    
C44   H50   S    
C39   H31   S    
V4    O20   S    
C46   H56   S    
C14   C22   S    
C10   C42   S    
O9    C5    A    
C9    C11   S    
C12   C20   S    
O14   V2    S    
O2    C4    A    
C35   H19   S    
C45   H54   S    
C36   H20   S    
O4    V2    S    
C7    C17   S    
C20   C24   S    
C37   H25   S    
C2    O12   A    
C38   H28   S    
C46   H57   S    
C38   H27   S    
C15   H3    S    
C47   H60   S    
C30   C32   D    
C15   C23   S    
C16   C24   S    
C43   H48   S    
