data_mof_unit_34459.cif
_audit_creation_date              2012-12-10T17:31:21-0500
_audit_creation_method            fapswitch 2.2
_symmetry_space_group_name_H-M    P1
_symmetry_Int_Tables_number       1
_space_group_crystal_system       monoclinic
_cell_length_a                    19.106903
_cell_length_b                    18.523819
_cell_length_c                    12.348021
_cell_angle_alpha                 90.0
_cell_angle_beta                  128.958823
_cell_angle_gamma                 90.0
_cell_volume                      3398.39098188

loop_
_atom_site_label
_atom_site_type_symbol
_atom_type_description
_atom_site_fract_x
_atom_site_fract_y
_atom_site_fract_z
_atom_type_partial_charge
C1    C     C_R   0.612415 0.898567 0.653487 0.782609
C2    C     C_R   0.612415 0.101433 0.653487 0.782609
C3    C     C_R   0.112415 0.398567 0.653487 0.782609
C4    C     C_R   0.112415 0.601433 0.653487 0.782609
C5    C     C_R   0.250185 0.767131 0.052417 0.048170
C6    C     C_R   0.250185 0.232869 0.052417 0.048170
C7    C     C_R   0.750185 0.267131 0.052417 0.048170
C8    C     C_R   0.750185 0.732869 0.052417 0.048170
C9    C     C_R   0.672922 0.259241 0.045030 0.140943
C10   C     C_R   0.672922 0.740759 0.045030 0.140943
C11   C     C_R   0.172922 0.759241 0.045030 0.140943
C12   C     C_R   0.172922 0.240759 0.045030 0.140943
C13   C     C_R   0.596441 0.223067 0.930286 -0.018083
C14   C     C_R   0.596441 0.776933 0.930286 -0.018083
C15   C     C_R   0.096441 0.723067 0.930286 -0.018083
C16   C     C_R   0.096441 0.276933 0.930286 -0.018083
C17   C     C_R   0.595882 0.201061 0.822190 -0.284405
C18   C     C_R   0.595882 0.798939 0.822190 -0.284405
C19   C     C_R   0.095882 0.701061 0.822190 -0.284405
C20   C     C_R   0.095882 0.298939 0.822190 -0.284405
C21   C     C_R   0.320245 0.811943 0.155638 -0.235152
C22   C     C_R   0.320245 0.188057 0.155638 -0.235152
C23   C     C_R   0.820245 0.311943 0.155638 -0.235152
C24   C     C_R   0.820245 0.688057 0.155638 -0.235152
C25   C     C_R   0.243409 0.835707 0.249431 -0.222555
C26   C     C_R   0.243409 0.164293 0.249431 -0.222555
C27   C     C_R   0.743409 0.335707 0.249431 -0.222555
C28   C     C_R   0.743409 0.664293 0.249431 -0.222555
C29   C     C_R   0.680507 0.156168 0.746167 -0.085983
C30   C     C_R   0.680507 0.843832 0.746167 -0.085983
C31   C     C_R   0.180507 0.656168 0.746167 -0.085983
C32   C     C_R   0.180507 0.343832 0.746167 -0.085983
C33   C     C_R   0.683328 0.000000 0.284782 -0.280599
C34   C     C_R   0.183328 0.500000 0.284782 -0.280599
C35   C     C_R   0.344259 0.000000 0.627821 -0.047599
C36   C     C_R   0.844259 0.500000 0.627821 -0.047599
C37   C     C_R   0.309447 0.000000 0.699227 -0.051698
C38   C     C_R   0.809447 0.500000 0.699227 -0.051698
C39   C     C_R   0.385266 0.099406 0.343845 0.799101
C40   C     C_R   0.385266 0.900594 0.343845 0.799101
C41   C     C_R   0.885266 0.599406 0.343845 0.799101
C42   C     C_R   0.885266 0.400594 0.343845 0.799101
C43   C     C_R   0.368680 1.000000 0.845445 -0.156881
C44   C     C_R   0.868680 0.500000 0.845445 -0.156881
C45   C     C_R   0.462603 1.000000 0.921178 -0.016638
C46   C     C_R   0.962603 0.500000 0.921178 -0.016638
C47   C     C_R   0.494345 1.000000 0.842436 0.277695
C48   C     C_R   0.994345 0.500000 0.842436 0.277695
C49   C     C_R   0.526162 0.000000 0.071721 0.037815
C50   C     C_R   0.026162 0.500000 0.071721 0.037815
C51   C     C_R   0.619461 0.000000 0.138969 0.203009
C52   C     C_R   0.119461 0.500000 0.138969 0.203009
C53   C     C_R   0.648859 1.000000 0.060666 -0.249673
C54   C     C_R   0.148859 0.500000 0.060666 -0.249673
C55   C     C_R   0.587948 0.000000 0.916317 -0.158347
C56   C     C_R   0.087948 0.500000 0.916317 -0.158347
C57   C     C_R   0.502008 0.000000 0.159877 0.060608
C58   C     C_R   0.002008 0.500000 0.159877 0.060608
C59   C     C_R   0.655210 1.000000 0.364794 0.077481
C60   C     C_R   0.155210 0.500000 0.364794 0.077481
C61   C     C_R   0.671902 0.292816 0.146588 -0.150716
C62   C     C_R   0.671902 0.707183 0.146588 -0.150716
C63   C     C_R   0.171902 0.792816 0.146588 -0.150717
C64   C     C_R   0.171902 0.207183 0.146588 -0.150717
C65   C     C_R   0.316313 0.847170 0.251163 -0.044485
C66   C     C_R   0.316313 0.152830 0.251163 -0.044486
C67   C     C_R   0.816313 0.347170 0.251163 -0.044486
C68   C     C_R   0.816313 0.652830 0.251163 -0.044485
C69   C     C_R   0.758544 0.158335 0.758500 -0.203273
C70   C     C_R   0.758544 0.841665 0.758500 -0.203273
C71   C     C_R   0.258544 0.658335 0.758500 -0.203274
C72   C     C_R   0.258544 0.341665 0.758500 -0.203273
C73   C     C_R   0.334099 0.694763 0.868053 -0.138236
C74   C     C_R   0.334099 0.305237 0.868053 -0.138237
C75   C     C_R   0.834099 0.194763 0.868053 -0.138237
C76   C     C_R   0.834099 0.805237 0.868053 -0.138237
C77   C     C_R   0.333135 0.729768 0.966595 -0.149511
C78   C     C_R   0.333135 0.270232 0.966595 -0.149511
C79   C     C_R   0.833135 0.229768 0.966595 -0.149511
C80   C     C_R   0.833135 0.770232 0.966595 -0.149511
C81   C     C_R   0.753884 0.232150 0.953640 0.071091
C82   C     C_R   0.753884 0.767850 0.953640 0.071091
C83   C     C_R   0.253884 0.732150 0.953640 0.071091
C84   C     C_R   0.253884 0.267850 0.953640 0.071091
C85   C     C_R   0.675861 0.196946 0.838911 0.083900
C86   C     C_R   0.675861 0.803054 0.838911 0.083900
C87   C     C_R   0.175861 0.696946 0.838911 0.083900
C88   C     C_R   0.175861 0.303054 0.838911 0.083900
Cu1   Cu    Cu3+1 0.526340 0.000000 0.421010 0.951500
Cu2   Cu    Cu3+1 0.026340 0.500000 0.421010 0.951500
Cu3   Cu    Cu3+1 0.473640 0.000000 0.578990 0.917769
Cu4   Cu    Cu3+1 0.973640 0.500000 0.578990 0.917769
H1    H     H_    0.239138 0.863195 0.322553 0.151838
H2    H     H_    0.239138 0.136805 0.322553 0.151838
H3    H     H_    0.739138 0.363195 0.322553 0.151838
H4    H     H_    0.739138 0.636805 0.322553 0.151838
H5    H     H_    0.720234 0.000000 0.111715 0.149714
H6    H     H_    0.220234 0.500000 0.111715 0.149714
H7    H     H_    0.754794 0.000000 0.336697 0.139577
H8    H     H_    0.254794 0.500000 0.336697 0.139577
H9    H     H_    0.432673 0.000000 0.117794 0.118858
H10   H     H_    0.932673 0.500000 0.117794 0.118858
H11   H     H_    0.299062 0.000000 0.515089 0.123027
H12   H     H_    0.799061 0.500000 0.515089 0.123027
H13   H     H_    0.339956 1.000000 0.897646 0.172314
H14   H     H_    0.839956 0.500000 0.897646 0.172314
H15   H     H_    0.617760 0.000000 0.866929 0.205905
H16   H     H_    0.117760 0.500000 0.866929 0.205905
H17   H     H_    0.614248 0.290263 0.143539 0.181771
H18   H     H_    0.614248 0.709737 0.143540 0.181771
H19   H     H_    0.114248 0.790263 0.143539 0.181771
H20   H     H_    0.114248 0.209737 0.143540 0.181771
H21   H     H_    0.376828 0.823692 0.159304 0.159663
H22   H     H_    0.376828 0.176308 0.159304 0.159663
H23   H     H_    0.876828 0.323692 0.159304 0.159663
H24   H     H_    0.876828 0.676308 0.159304 0.159663
H25   H     H_    0.763502 0.127627 0.688886 0.152789
H26   H     H_    0.763502 0.872373 0.688886 0.152789
H27   H     H_    0.263502 0.627627 0.688886 0.152789
H28   H     H_    0.263502 0.372373 0.688886 0.152789
H29   H     H_    0.396578 0.752095 0.053853 0.160173
H30   H     H_    0.396578 0.247905 0.053853 0.160173
H31   H     H_    0.896578 0.252095 0.053853 0.160173
H32   H     H_    0.896578 0.747905 0.053853 0.160173
H33   H     H_    0.395401 0.692500 0.880671 0.146897
H34   H     H_    0.395401 0.307499 0.880671 0.146897
H35   H     H_    0.895401 0.192500 0.880671 0.146898
H36   H     H_    0.895401 0.807499 0.880671 0.146898
H37   H     H_    0.532036 0.184395 0.726477 0.168237
H38   H     H_    0.532036 0.815605 0.726477 0.168237
H39   H     H_    0.032036 0.684395 0.726477 0.168237
H40   H     H_    0.032036 0.315605 0.726477 0.168237
H41   H     H_    0.704390 1.000000 0.477259 0.115571
H42   H     H_    0.204390 0.500000 0.477259 0.115571
N1    N     N_R   0.566260 1.000000 0.302220 -0.184181
N2    N     N_R   0.066260 0.500000 0.302220 -0.184181
N3    N     N_R   0.434410 1.000000 0.697680 -0.206162
N4    N     N_R   0.934410 0.500000 0.697680 -0.206162
O1    O     O_R   0.608610 0.924520 0.551740 -0.579300
O2    O     O_R   0.608610 0.075480 0.551740 -0.579300
O3    O     O_R   0.108610 0.424520 0.551740 -0.579300
O4    O     O_R   0.108610 0.575480 0.551740 -0.579300
O5    O     O_R   0.564110 0.924510 0.685150 -0.603529
O6    O     O_R   0.564110 0.075490 0.685150 -0.603529
O7    O     O_R   0.064110 0.424510 0.685150 -0.603529
O8    O     O_R   0.064110 0.575490 0.685150 -0.603529
O9    O     O_R   0.435880 0.075470 0.314850 -0.583424
O10   O     O_R   0.435880 0.924530 0.314850 -0.583424
O11   O     O_R   0.935880 0.575470 0.314850 -0.583424
O12   O     O_R   0.935880 0.424530 0.314850 -0.583424
O13   O     O_R   0.391380 0.075460 0.448260 -0.592871
O14   O     O_R   0.391380 0.924540 0.448260 -0.592871
O15   O     O_R   0.891380 0.575460 0.448260 -0.592871
O16   O     O_R   0.891380 0.424540 0.448260 -0.592871
C89   C     C_2   0.210755 0.000000 0.619008 0.359337
H43   H     H_    0.166258 0.000000 0.505972 0.049745
O17   O     O_2   0.177848 0.000000 0.677623 -0.536703
C90   C     C_2   0.710755 0.500000 0.619008 0.359337
H44   H     H_    0.666258 0.500000 0.505972 0.049745
O18   O     O_2   0.677848 0.500000 0.677623 -0.536703
C91   C     C_2   0.515479 0.205573 0.916886 0.301822
H45   H     H_    0.450052 0.202701 0.814287 0.079365
O19   O     O_2   0.521465 0.188702 0.017994 -0.572563
C92   C     C_2   0.515479 0.794427 0.916886 0.301821
H46   H     H_    0.450052 0.797300 0.814287 0.079365
O20   O     O_2   0.521465 0.811298 0.017994 -0.572563
C93   C     C_2   0.015479 0.705573 0.916886 0.301821
H47   H     H_    0.950052 0.702700 0.814287 0.079365
O21   O     O_2   0.021465 0.688702 0.017994 -0.572563
C94   C     C_2   0.015479 0.294427 0.916886 0.301821
H48   H     H_    0.950052 0.297299 0.814287 0.079365
O22   O     O_2   0.021465 0.311298 0.017994 -0.572563

loop_
_geom_bond_atom_site_label_1
_geom_bond_atom_site_label_2
_ccdc_geom_bond_type
C28   H4    S    
C26   H2    S    
Cu1   O10   S    
C34   C60   A    
C48   N4    A    
C25   H1    S    
Cu1   N1    S    
C89   O17   D    
C2    O6    A    
C14   C18   A    
C53   C55   A    
C27   H3    S    
C3    O3    A    
C25   C63   A    
Cu2   O12   S    
C61   H17   S    
C91   H45   S    
C92   O20   D    
C93   O21   D    
C74   H34   S    
C15   C19   A    
C18   C86   A    
C75   C79   A    
C2    C29   S    
C17   C85   A    
C92   H46   S    
C28   C68   A    
C5    C11   A    
C35   H11   S    
C4    O4    A    
Cu3   O14   S    
C12   C64   A    
C9    C13   A    
C73   H33   S    
C64   H20   S    
C41   O11   A    
C94   H48   S    
C77   C83   A    
C6    C22   A    
C39   O13   A    
C49   C57   A    
C77   H29   S    
C40   O14   A    
C7    C9    A    
C43   H13   S    
C23   C67   A    
C29   C69   A    
C37   C89   S    
C56   H16   S    
C26   C64   A    
C27   C61   A    
C91   O19   D    
Cu3   N3    S    
C11   C15   A    
Cu3   O5    S    
C22   C66   A    
C12   C16   A    
C44   C46   A    
Cu1   O1    S    
C34   H8    S    
Cu4   O15   S    
C58   H10   S    
C30   C86   A    
C60   N2    A    
C29   C85   A    
C1    O1    A    
C31   C71   A    
C42   O16   A    
Cu4   N4    S    
C33   C59   A    
C90   O18   D    
C15   C93   S    
C10   C62   A    
C20   H40   S    
Cu2   O11   S    
C78   H30   S    
C6    C12   A    
C30   C70   A    
C52   C54   A    
C41   C68   S    
C46   C48   A    
C45   C47   A    
C19   H39   S    
Cu2   Cu4   S    
C54   C56   A    
C31   C87   A    
C40   O10   A    
Cu4   O8    S    
C26   C66   A    
C76   C80   A    
C6    C84   A    
C38   C90   S    
C21   H21   S    
C10   C14   A    
C93   H47   S    
C71   C73   A    
C63   H19   S    
C49   C51   A    
C82   C86   A    
C79   H31   S    
C59   H41   S    
C55   H15   S    
C33   H7    S    
C50   C58   A    
C37   C43   A    
C38   C44   A    
C1    O5    A    
C78   C84   A    
Cu2   N2    S    
C50   C52   A    
C62   H18   S    
C45   C49   A    
C16   C20   A    
Cu1   O2    S    
C4    O8    A    
C47   N3    A    
C25   C65   A    
C13   C91   S    
C43   C45   A    
Cu2   O4    S    
C72   C74   A    
C7    C81   A    
C24   H24   S    
C44   H14   S    
C72   H28   S    
C70   C76   A    
C90   H44   S    
C76   H36   S    
C39   C66   S    
C8    C82   A    
C18   H38   S    
Cu1   Cu3   S    
C60   H42   S    
C35   C37   A    
C47   C55   A    
Cu3   O6    S    
C80   H32   S    
Cu1   O9    S    
C41   O15   A    
C21   C65   A    
Cu4   O7    S    
C34   C52   A    
C57   N1    A    
C84   C88   A    
C83   C87   A    
C5    C83   A    
C3    O7    A    
C48   C56   A    
C33   C51   A    
C57   H9    S    
C46   C50   A    
C79   C81   A    
C71   H27   S    
C40   C65   S    
C58   N2    A    
C36   C38   A    
C19   C87   A    
C2    O2    A    
C35   N3    A    
Cu3   O13   S    
C69   H25   S    
C36   H12   S    
C42   C67   S    
C94   O22   D    
C70   H26   S    
C7    C23   A    
Cu2   O3    S    
C20   C88   A    
C59   N1    A    
C1    C30   S    
C8    C24   A    
C80   C82   A    
C53   H5    S    
C69   C75   A    
C9    C61   A    
C75   H35   S    
C14   C92   S    
C3    C32   S    
C42   O12   A    
C4    C31   S    
C27   C67   A    
C24   C68   A    
C23   H23   S    
C13   C17   A    
C16   C94   S    
C22   H22   S    
C5    C21   A    
C8    C10   A    
C74   C78   A    
C39   O9    A    
C89   H43   S    
C73   C77   A    
C54   H6    S    
Cu4   O16   S    
C51   C53   A    
C11   C63   A    
C36   N4    A    
C17   H37   S    
C81   C85   A    
C28   C62   A    
C32   C72   A    
C32   C88   A    
