data_mof_unit_21911.cif
_audit_creation_date              2012-12-11T21:12:05-0500
_audit_creation_method            fapswitch 2.2
_symmetry_space_group_name_H-M    P1
_symmetry_Int_Tables_number       1
_space_group_crystal_system       triclinic
_cell_length_a                    8.432208
_cell_length_b                    18.772752
_cell_length_c                    27.427352
_cell_angle_alpha                 101.579417
_cell_angle_beta                  90.441397
_cell_angle_gamma                 88.12443
_cell_volume                      4250.98832374

loop_
_atom_site_label
_atom_site_type_symbol
_atom_type_description
_atom_site_fract_x
_atom_site_fract_y
_atom_site_fract_z
_atom_type_partial_charge
Ba1   Ba    Ba6+2 0.160810 0.465630 0.521640 1.324529
Ba2   Ba    Ba6+2 0.649380 0.534380 0.478400 1.316042
C1    C     C_3   0.406764 0.319298 0.699232 0.367557
C2    C     C_R   0.103899 0.098074 0.470029 -0.441638
C3    C     C_R   0.251738 0.960568 0.486487 0.553888
C4    C     C_3   0.914339 0.278228 0.645448 -0.820812
C5    C     C_R   0.096823 0.985210 0.503062 0.192206
C6    C     C_R   0.294302 0.886896 0.477683 -0.177872
C7    C     C_R   0.188642 0.835445 0.487479 -0.161823
C8    C     C_R   0.050671 0.861145 0.515579 0.250524
C9    C     C_R   0.002867 0.936502 0.522833 -0.176103
C10   C     C_R   0.215954 0.759719 0.470040 -0.144439
C11   C     C_R   0.107242 0.710900 0.483370 0.573197
C12   C     C_3   0.475134 0.284315 0.648570 0.494895
C13   C     C_R   0.989399 0.734762 0.519891 -0.176039
C14   C     C_R   0.958571 0.811455 0.535144 -0.020415
C15   C     C_R   0.883237 0.079883 0.521305 0.139723
C16   C     C_3   0.989144 0.202529 0.641817 -1.115908
C17   C     C_R   0.816166 0.149548 0.515588 -0.032083
C18   C     C_R   0.898662 0.194629 0.488358 -0.257834
C19   C     C_R   0.040346 0.165094 0.464506 0.729717
C20   C     C_R   0.835491 0.840325 0.567880 -0.352593
C21   C     C_R   0.787288 0.913795 0.574916 0.541625
C22   C     C_R   0.859804 0.961886 0.548314 0.080248
C23   C     C_3   0.509827 0.325515 0.314204 -0.031084
C24   C     C_R   0.796803 0.033420 0.546057 -0.066835
C25   C     C_R   0.642995 0.057498 0.563094 0.077077
C26   C     C_R   0.663443 0.172314 0.535266 -0.060766
C27   C     C_R   0.579274 0.125036 0.558255 -0.228223
C28   C     C_3   0.884604 0.628805 0.639930 0.989319
C29   C     C_R   0.591617 0.238085 0.526875 -0.314908
C30   C     C_R   0.664404 0.275250 0.493680 0.061895
C31   C     C_R   0.826818 0.262714 0.481328 0.016362
C32   C     C_R   0.426683 0.518036 0.184109 0.631984
C33   C     C_R   0.150312 0.538022 0.168828 0.488274
C34   C     C_3   0.424751 0.305800 0.264172 0.225337
C35   C     C_2   0.111823 0.578892 0.279463 -0.060630
C36   C     C_3   0.072037 0.575406 0.332962 -0.104747
C37   C     C_1   0.278662 0.485066 0.332122 -0.269401
C38   C     C_2   0.335887 0.495424 0.288989 -0.416425
C39   C     C_2   0.237946 0.537446 0.256281 0.325946
C40   C     C_3   0.999590 0.649383 0.684078 0.152279
C41   C     C_R   0.338916 0.526270 0.100545 0.094169
C42   C     C_R   0.459591 0.511631 0.132981 -0.176094
C43   C     C_R   0.612120 0.491388 0.113704 -0.159409
C44   C     C_R   0.183468 0.540364 0.118606 0.044893
C45   C     C_3   0.882812 0.742036 0.348846 0.397817
C46   C     C_2   0.125381 0.500284 0.340311 0.059707
C47   C     C_2   0.637523 0.470364 0.635615 0.075346
C48   C     C_R   0.546358 0.486131 0.977533 -0.041012
C49   C     C_R   0.298710 0.556044 0.969233 -0.126614
C50   C     C_R   0.437365 0.517839 0.947614 0.061858
C51   C     C_R   0.673149 0.441856 0.953985 -0.081803
C52   C     C_3   0.860493 0.264912 0.359767 -0.207079
C53   C     C_R   0.692745 0.429806 0.902667 -0.285053
C54   C     C_R   0.592631 0.464995 0.873211 0.023827
C55   C     C_R   0.468315 0.511251 0.895881 -0.117112
C56   C     C_3   0.888468 0.765514 0.297406 0.220441
C57   C     C_R   0.373918 0.549561 0.866711 -0.077724
C58   C     C_R   0.414533 0.545272 0.815782 0.458631
C59   C     C_R   0.613741 0.453588 0.821333 0.583062
C60   C     C_2   0.725518 0.470382 0.723143 0.006698
C61   C     C_3   0.744009 0.435070 0.669097 -0.537258
C62   C     C_1   0.506582 0.506443 0.654459 -0.226238
C63   C     C_2   0.458878 0.506912 0.700961 -0.046188
C64   C     C_3   0.914799 0.185644 0.338278 0.454178
C65   C     C_2   0.577343 0.492572 0.740127 0.078181
C66   C     C_R   0.522830 0.498188 0.029798 0.114648
C67   C     C_3   0.364354 0.769784 0.355376 0.849678
C68   C     C_R   0.373225 0.524948 0.049555 0.156899
C69   C     C_R   0.256122 0.548144 0.018308 -0.120678
C70   C     C_R   0.642127 0.482881 0.062922 -0.339631
C71   C     C_R   0.063228 0.553480 0.085373 -0.334477
C72   C     C_R   0.212284 0.600373 0.940743 0.254388
C73   C     C_R   0.246757 0.594280 0.889779 0.435197
C74   C     C_R   0.098878 0.556899 0.036161 -0.047885
C75   C     C_3   0.474356 0.699250 0.626614 0.259907
C76   C     C_3   0.531077 0.757031 0.671019 -0.032917
C77   C     C_3   0.446111 0.783476 0.307698 0.333803
C78   C     C_R   0.032500 0.055403 0.499770 -0.108496
F1    F     F_    0.898521 0.141844 0.372558 -0.746341
F2    F     F_    0.935856 0.563763 0.611192 -0.745094
F3    F     F_    0.565212 0.223382 0.653618 -0.668879
F4    F     F_    0.316175 0.270256 0.717335 -0.654107
F5    F     F_    0.128155 0.638587 0.464904 -0.748933
F6    F     F_    0.115668 0.196370 0.431448 -0.741841
F7    F     F_    0.366730 0.006916 0.480462 -0.780189
F8    F     F_    0.675656 0.936937 0.610320 -0.698297
F9    F     F_    0.155416 0.633207 0.862744 -0.588249
F10   F     F_    0.740339 0.616363 0.658943 -0.734352
H1    H     H_    0.553391 0.324086 0.636697 -0.207649
H2    H     H_    0.639418 0.735810 0.685693 0.146516
H3    H     H_    0.504718 0.336527 0.725768 0.049547
H4    H     H_    0.603705 0.364616 0.311711 -0.005086
H5    H     H_    0.568937 0.274403 0.319737 0.103862
H6    H     H_    0.347223 0.351070 0.257138 0.014173
H7    H     H_    0.352143 0.257784 0.263701 -0.022350
H8    H     H_    0.895696 0.161400 0.634305 0.394551
H9    H     H_    0.003628 0.723370 0.357516 -0.141910
H10   H     H_    0.794105 0.738319 0.272973 0.012668
H11   H     H_    0.001037 0.743319 0.278930 0.027893
H12   H     H_    0.034428 0.600568 0.698889 0.032110
H13   H     H_    0.339830 0.822756 0.380541 -0.203239
H14   H     H_    0.252188 0.741839 0.345131 1.721955
H15   H     H_    0.858336 0.280268 0.608783 0.411943
H16   H     H_    0.570619 0.793998 0.316737 0.097329
H17   H     H_    0.410256 0.871184 0.462091 0.206935
H18   H     H_    0.773102 0.806180 0.588036 0.281119
H19   H     H_    0.458198 0.137697 0.570378 0.271473
H20   H     H_    0.204599 0.078340 0.446735 0.376591
H21   H     H_    0.822402 0.287050 0.675013 0.486571
H22   H     H_    0.562829 0.023413 0.577435 0.254315
H23   H     H_    0.107071 0.671366 0.671270 0.150450
H24   H     H_    0.442400 0.464748 0.275393 0.286171
H25   H     H_    0.708463 0.480067 0.137679 0.262667
H26   H     H_    0.824223 0.466299 0.748077 0.219787
H27   H     H_    0.789652 0.393869 0.886193 0.258604
H28   H     H_    0.754390 0.412851 0.974236 0.149001
H29   H     H_    0.761482 0.466519 0.050582 0.189608
H30   H     H_    0.040750 0.614832 0.261221 0.147987
H31   H     H_    0.940976 0.562099 0.097487 0.250944
H32   H     H_    0.076383 0.190863 0.610893 0.426746
H33   H     H_    0.333592 0.512418 0.709419 0.187953
H34   H     H_    0.828057 0.289327 0.327455 0.215559
H35   H     H_    0.001171 0.563847 0.011800 0.225252
H36   H     H_    0.649679 0.451626 0.595681 0.112489
H37   H     H_    0.049640 0.198322 0.677265 0.487954
H38   H     H_    0.839856 0.827799 0.747114 0.389695
H39   H     H_    0.180223 0.075367 0.336792 0.409210
H40   H     H_    0.142279 0.743156 0.613672 0.325917
H41   H     H_    0.375228 0.723281 0.783034 0.406745
H42   H     H_    0.735868 0.343060 0.181471 0.369802
H43   H     H_    0.067484 0.851354 0.398564 0.319324
H44   H     H_    0.888066 0.919266 0.233928 0.389157
H45   H     H_    0.753930 0.259420 0.379840 0.223113
H46   H     H_    0.426586 0.939627 0.351126 0.364918
H47   H     H_    0.465971 0.626693 0.304913 0.327981
H48   H     H_    0.446425 0.194784 0.423938 0.397300
H49   H     H_    0.034308 0.783438 0.953979 0.373941
H50   H     H_    0.140848 0.340153 0.327448 0.370721
H51   H     H_    0.830469 0.164480 0.307861 0.213767
H52   H     H_    0.577624 0.669412 0.607781 0.169080
H53   H     H_    0.331362 0.367698 0.696056 0.139754
H54   H     H_    0.564687 0.807630 0.659116 0.227986
N1    N     N_R   0.272408 0.531633 0.202619 -0.294467
N2    N     N_R   0.534847 0.497729 0.793045 -0.294085
O1    O     O_2   0.106080 0.324280 0.466820 -0.303763
O2    O     O_2   0.739408 0.547231 0.326782 -0.369318
O3    O     O_3   0.772389 0.686260 0.347156 -0.529062
O4    O     O_3   0.859130 0.413620 0.470620 -0.448728
O5    O     O_3   0.459240 0.537930 0.559910 -0.454528
O6    O     O_2   0.583120 0.462390 0.379940 -0.363963
O7    O     O_3   0.404036 0.347645 0.354790 -0.427358
O8    O     O_2   0.545260 0.755017 0.472371 -0.337318
O9    O     O_3   0.467290 0.725864 0.378557 -0.629471
O10   O     O_2   0.537551 0.512238 0.211923 -0.455502
O11   O     O_2   0.700237 0.402801 0.801348 -0.562931
O12   O     O_3   0.367019 0.652067 0.640888 -0.511227
O13   O     O_2   0.011853 0.539972 0.181870 -0.513595
O14   O     O_2   0.343739 0.584776 0.792160 -0.382474
O15   O     O_3   0.376230 0.370290 0.556910 -0.460658
O16   O     O_2   0.259062 0.243405 0.523538 -0.401433
O17   O     O_3   0.970663 0.311828 0.388273 -0.415993
O18   O     O_3   0.349634 0.263201 0.615267 -0.445439
O19   O     O_2   0.227190 0.537650 0.620070 -0.402150
O20   O     O_3   0.971110 0.406970 0.583250 -0.430930
O21   O     O_2   0.070666 0.469791 0.673082 -0.446296
O22   O     O_2   0.773031 0.689333 0.754614 -0.200850
O23   O     O_3   0.030927 0.330597 0.658255 -0.307755
O24   O     O_2   0.043433 0.726239 0.776558 -0.148723
O25   O     O_3   0.887186 0.795148 0.717575 -0.488943
O26   O     O_2   0.098747 0.193814 0.260840 -0.208265
O27   O     O_2   0.226984 0.217442 0.343002 -0.152081
O28   O     O_3   0.162755 0.084355 0.302747 -0.392843
O29   O     O_2   0.478746 0.797700 0.567887 -0.262571
O30   O     O_2   0.348052 0.681179 0.540330 -0.322670
O31   O     O_3   0.205924 0.782821 0.606231 -0.463195
O32   O     O_2   0.470824 0.838158 0.761059 -0.241609
O33   O     O_2   0.241056 0.808954 0.706718 -0.156428
O34   O     O_2   0.704230 0.675760 0.533200 -0.427370
O35   O     O_3   0.369985 0.706106 0.746492 -0.400259
O36   O     O_2   0.676905 0.224047 0.223330 -0.262616
O37   O     O_2   0.476474 0.259202 0.166437 -0.224137
O38   O     O_3   0.666567 0.358099 0.210983 -0.446875
O39   O     O_2   0.671301 0.849131 0.395436 -0.261314
O40   O     O_2   0.822131 0.777392 0.443954 -0.308738
O41   O     O_3   0.967280 0.877176 0.411001 -0.448102
O42   O     O_2   0.727293 0.899086 0.315782 -0.220085
O43   O     O_2   0.013589 0.901114 0.321118 -0.187733
O44   O     O_3   0.885675 0.866541 0.233925 -0.420420
O45   O     O_3   0.951180 0.586390 0.529420 -0.353102
O46   O     O_2   0.486414 0.884465 0.251613 -0.187264
O47   O     O_2   0.221446 0.839925 0.254732 -0.161249
O48   O     O_3   0.325500 0.930297 0.332686 -0.476931
O49   O     O_2   0.283536 0.688990 0.240100 -0.305884
O50   O     O_2   0.544529 0.721416 0.215474 -0.181029
O51   O     O_3   0.535003 0.635399 0.277918 -0.453319
O52   O     O_2   0.387396 0.337042 0.466886 -0.200913
O53   O     O_2   0.618326 0.355905 0.424220 -0.328662
O54   O     O_3   0.500308 0.227080 0.405307 -0.448792
O55   O     O_2   0.916471 0.654807 0.962101 -0.265257
O56   O     O_3   0.434080 0.629720 0.443130 -0.388165
O57   O     O_2   0.124593 0.701355 0.022447 -0.234824
O58   O     O_3   0.114018 0.745492 0.939145 -0.373638
O59   O     O_2   0.873609 0.425230 0.353090 -0.267850
O60   O     O_2   0.914578 0.446718 0.269236 -0.190862
O61   O     O_3   0.089287 0.349014 0.296966 -0.458664
O62   O     O_3   0.870051 0.686898 0.613545 -0.650402
O63   O     O_3   0.351080 0.462080 0.440130 -0.378966
O64   O     O_3   0.839200 0.593040 0.416790 -0.409387
P1    P     P_3+3 0.929380 0.335110 0.452880 1.368284
P2    P     P_3+3 0.398530 0.559060 0.613740 1.271845
P3    P     P_3+3 0.952937 0.413243 0.647053 1.336567
P4    P     P_3+3 0.880940 0.664900 0.547160 1.263194
P5    P     P_3+3 0.859200 0.601919 0.354533 1.225644
P6    P     P_3+3 0.398045 0.276917 0.555914 1.342922
P7    P     P_3+3 0.400989 0.442613 0.375882 1.324402
P8    P     P_3+3 0.407656 0.720930 0.439242 1.202718
S1    S     S_3+6 0.922538 0.715491 0.735456 0.095322
S2    S     S_3+6 0.539984 0.302049 0.448037 0.001845
S3    S     S_3+6 0.087023 0.675934 0.968192 0.127492
S4    S     S_3+6 0.995793 0.429678 0.314692 0.033954
S5    S     S_3+6 0.107033 0.172773 0.310840 0.220518
S6    S     S_3+6 0.376921 0.742069 0.583298 -0.008681
S7    S     S_3+6 0.397412 0.780262 0.722384 0.146109
S8    S     S_3+6 0.564361 0.283895 0.214413 0.115771
S9    S     S_3+6 0.830194 0.813251 0.400507 0.047310
S10   S     S_3+6 0.877491 0.861228 0.294316 0.130981
S11   S     S_3+6 0.367503 0.860653 0.285096 0.094849
S12   S     S_3+6 0.449084 0.706045 0.258031 0.016062

loop_
_geom_bond_atom_site_label_1
_geom_bond_atom_site_label_2
_ccdc_geom_bond_type
Ba2   O4    S    
O61   S4    S    
C53   C54   A    
O2    P5    D    
O33   S7    D    
C47   C61   S    
O58   S3    S    
Ba1   P1    S    
H41   O35   S    
C4    H21   S    
O59   S4    D    
C17   C18   A    
Ba2   O56   S    
C49   C72   A    
O55   S3    D    
C36   P5    S    
C28   F10   S    
C62   P2    S    
C64   H51   S    
O16   P6    D    
C75   C76   S    
O18   P6    S    
C5    C9    A    
C47   H36   S    
C72   S3    S    
C24   C25   A    
C67   O9    S    
Ba2   O34   S    
C60   C65   D    
C5    C78   A    
O44   S10   S    
C15   C24   A    
C27   H19   S    
C26   C27   A    
C22   C24   A    
C2    C78   A    
C59   O11   D    
H49   O58   S    
O45   P4    S    
C69   C74   A    
C32   N1    Am   
C55   C57   A    
C25   C27   A    
C13   C14   A    
O39   S9    D    
C9    C22   A    
C45   H9    S    
C54   C55   A    
O57   S3    D    
O9    P8    S    
Ba1   Ba2   S    
C33   N1    Am   
Ba1   O1    S    
C43   H25   S    
C75   H52   S    
C77   S11   S    
O32   S7    D    
C52   H34   S    
C75   S6    S    
C45   C56   S    
C6    H17   S    
C34   S8    S    
C56   H10   S    
C38   H24   S    
O40   S9    D    
C45   O3    S    
C6    C7    A    
C63   C65   S    
C48   C50   A    
C21   C22   A    
C68   C69   A    
O38   S8    S    
C52   O17   S    
O8    P8    D    
C7    C8    A    
O7    P7    S    
O25   S1    S    
C75   O12   S    
C76   S7    S    
C67   H13   S    
C8    C9    A    
Ba1   O15   S    
C23   H4    S    
O31   S6    S    
C47   C62   D    
Ba1   P2    S    
O12   P2    S    
C74   H35   S    
O48   S11   S    
C49   C69   A    
C12   F3    S    
C65   N2    S    
C13   P4    S    
O1    P1    D    
C40   H12   S    
O37   S8    D    
C10   P8    S    
C41   C44   A    
C51   C53   A    
Ba2   O6    S    
O46   S11   D    
C4    C16   S    
Ba2   O64   S    
C48   C51   A    
C72   C73   A    
O28   S5    S    
C23   O7    S    
C49   C50   A    
O47   S11   D    
C1    H53   S    
Ba2   O45   S    
C40   S1    S    
O5    P2    S    
C37   C38   D    
C3    C5    A    
O17   P1    S    
C51   H28   S    
O36   S8    D    
C29   P6    S    
O20   P3    S    
C76   H2    S    
O51   S12   S    
Ba1   O63   S    
C15   C78   A    
C77   H16   S    
C14   C20   A    
O29   S6    D    
C28   F2    S    
C41   C42   A    
O3    P5    S    
C77   S12   S    
H46   O48   S    
C35   C36   S    
H40   O31   S    
C76   H54   S    
C16   H37   S    
C45   S9    S    
O41   S9    S    
C34   H6    S    
C40   H23   S    
C29   C30   A    
C59   N2    Am   
Ba1   O19   S    
C66   C70   A    
C28   O62   S    
O6    P7    D    
C60   C61   S    
C32   C42   A    
Ba1   O4    S    
C1    H3    S    
C56   H11   S    
C61   P3    S    
C17   C26   A    
C30   S2    S    
C1    C12   S    
C16   H32   S    
C18   C31   A    
Ba1   O45   S    
C34   H7    S    
C38   C39   S    
O15   P6    S    
H47   O51   S    
C25   H22   S    
C23   H5    S    
C41   C68   A    
C71   H31   S    
C21   F8    S    
C11   C13   A    
O54   S2    S    
C71   C74   A    
H39   O28   S    
C67   C77   S    
O43   S10   D    
O21   P3    D    
O27   S5    D    
H50   O61   S    
C57   C73   A    
C56   S10   S    
C42   C43   A    
O24   S1    D    
C53   H27   S    
C67   H14   S    
Ba2   O5    S    
C2    H20   S    
C19   F6    S    
Ba2   O63   S    
O62   P4    S    
O30   S6    D    
C54   C59   A    
C36   C46   S    
C37   P7    S    
C26   C29   A    
O52   S2    D    
O53   S2    D    
C58   O14   D    
O50   S12   D    
C64   S5    S    
O42   S10   D    
C3    C6    A    
O19   P2    D    
Ba2   P4    S    
C52   C64   S    
C32   O10   D    
O23   P3    S    
O35   S7    S    
O4    P1    S    
H44   O44   S    
O34   P4    D    
O63   P7    S    
O26   S5    D    
C8    C14   A    
C60   H26   S    
C30   C31   A    
C64   F1    S    
C2    C19   A    
C31   P1    S    
O56   P8    S    
C35   H30   S    
C46   S4    S    
Ba1   O20   S    
O60   S4    D    
C20   H18   S    
C52   H45   S    
C62   C63   D    
C15   C17   A    
C4    H15   S    
Ba1   O5    S    
C63   H33   S    
O22   S1    D    
C35   C39   D    
C7    C10   A    
C33   O13   D    
C12   H1    S    
C70   H29   S    
C50   C55   A    
H43   O41   S    
C23   C34   S    
C3    F7    S    
C57   C58   A    
C58   N2    Am   
C39   N1    S    
C18   C19   A    
O49   S12   D    
H38   O25   S    
C66   C68   A    
C73   F9    S    
C11   F5    S    
C1    F4    S    
C20   C21   A    
C28   C40   S    
C16   H8    S    
C10   C11   A    
C33   C44   A    
C48   C66   A    
C12   O18   S    
C44   C71   A    
H42   O38   S    
O64   P5    S    
C37   C46   D    
C43   C70   A    
C4    O23   S    
H48   O54   S    
