data_mof_unit_52895.cif
_audit_creation_date              2012-10-26T20:17:39-0400
_audit_creation_method            fapswitch 2.2
_symmetry_space_group_name_H-M    P1
_symmetry_Int_Tables_number       1
_space_group_crystal_system       triclinic
_cell_length_a                    27.731501
_cell_length_b                    8.806149
_cell_length_c                    7.571766
_cell_angle_alpha                 103.336261
_cell_angle_beta                  93.336898
_cell_angle_gamma                 95.278224
_cell_volume                      1785.56069694

loop_
_atom_site_label
_atom_site_type_symbol
_atom_type_description
_atom_site_fract_x
_atom_site_fract_y
_atom_site_fract_z
_atom_type_partial_charge
C1    C     C_R   0.498024 0.200610 0.454912 0.547902
C2    C     C_R   0.872309 0.433437 0.626264 0.030499
C3    C     C_R   0.353703 0.483784 0.503008 -0.016941
C4    C     C_R   0.644929 0.497293 0.492090 -0.011666
C5    C     C_R   0.973311 0.403228 0.597398 -0.002098
C6    C     C_R   0.023311 0.525720 0.333453 -0.001976
C7    C     C_R   0.973449 0.546713 0.353830 0.014016
C8    C     C_R   0.023041 0.381227 0.576004 0.013599
C9    C     C_R   0.948467 0.482742 0.483794 0.026095
C10   C     C_R   0.048192 0.447378 0.448239 0.025891
C11   C     C_R   0.947974 0.352148 0.733338 -0.125732
C12   C     C_R   0.501746 0.799257 0.544972 0.547979
C13   C     C_R   0.048921 0.577331 0.198287 -0.124867
C14   C     C_R   0.898315 0.363335 0.747829 -0.000621
C15   C     C_R   0.098937 0.570358 0.188367 0.001917
C16   C     C_R   0.407507 0.498679 0.502874 0.523474
C17   C     C_R   0.592054 0.497536 0.496813 0.524234
C18   C     C_R   0.048463 0.291636 0.675505 -0.147378
C19   C     C_R   0.947885 0.634456 0.252381 -0.147387
C20   C     C_2   0.486451 0.034861 0.444339 -0.003912
C21   C     C_2   0.512974 0.964912 0.555255 -0.003934
C22   C     C_R   0.173417 0.348873 0.542281 0.378856
C23   C     C_R   0.098769 0.435141 0.435882 -0.045089
C24   C     C_R   0.823882 0.591262 0.399420 0.377911
C25   C     C_R   0.176344 0.507453 0.326430 0.389505
C26   C     C_R   0.821391 0.441409 0.624342 0.387813
C27   C     C_R   0.276033 0.558190 0.616301 0.041762
C28   C     C_R   0.717913 0.386588 0.377180 0.046860
C29   C     C_R   0.327699 0.572049 0.640683 -0.003011
C30   C     C_R   0.666444 0.378000 0.373769 -0.001496
C31   C     C_R   0.327933 0.376337 0.354575 -0.158803
C32   C     C_R   0.674128 0.619440 0.613236 -0.160309
C33   C     C_R   0.277414 0.353899 0.335715 0.052652
C34   C     C_R   0.898192 0.499068 0.500287 -0.044822
C35   C     C_R   0.724636 0.629549 0.618075 0.051077
C36   C     C_R   0.251238 0.448001 0.463962 0.260402
C37   C     C_R   0.746696 0.512516 0.500428 0.261076
C38   C     C_3   0.441520 0.370716 0.943531 -0.057625
C39   C     C_3   0.429240 0.215401 0.992746 -0.413276
C40   C     C_3   0.558621 0.629849 0.056857 -0.055269
C41   C     C_3   0.571545 0.784661 0.004132 -0.404887
C42   C     C_3   0.252655 0.224192 0.180864 -0.265945
C43   C     C_3   0.260855 0.258539 0.995685 -0.404801
C44   C     C_3   0.753969 0.767262 0.749749 -0.271803
C45   C     C_R   0.123249 0.352908 0.546308 0.016504
C46   C     C_3   0.750372 0.754480 0.946150 -0.405744
C47   C     C_3   0.635083 0.239661 0.248687 -0.260921
C48   C     C_3   0.628228 0.261734 0.054474 -0.422882
C49   C     C_3   0.354452 0.682846 0.809111 -0.264080
C50   C     C_3   0.378125 0.830780 0.766074 -0.421463
C51   C     C_3   0.742002 0.260231 0.251993 -0.360372
C52   C     C_3   0.247377 0.663009 0.750008 -0.368022
C53   C     C_3   0.875167 0.301070 0.896988 -0.351795
C54   C     C_3   0.122372 0.629052 0.037461 -0.354882
C55   C     C_3   0.438223 0.960232 0.337214 -0.289739
C56   C     C_R   0.873702 0.581313 0.389695 0.015498
C57   C     C_3   0.395740 0.046801 0.412430 -0.460993
C58   C     C_3   0.561980 0.037067 0.656625 -0.296040
C59   C     C_3   0.603681 0.959327 0.562019 -0.461172
C60   C     C_R   0.097489 0.278194 0.660854 -0.125018
C61   C     C_R   0.899123 0.650949 0.270043 -0.126975
C62   C     C_R   0.125012 0.505369 0.314631 0.032152
Cu1   Cu    Cu3+1 0.505380 0.517380 0.684380 0.888390
Cu2   Cu    Cu3+1 0.494620 0.482620 0.315620 0.887765
H1    H     H_    0.347444 0.305357 0.252641 0.110546
H2    H     H_    0.419062 0.231529 0.133110 0.188080
H3    H     H_    0.396612 0.153838 0.904976 0.070504
H4    H     H_    0.411123 0.442255 0.976237 0.116834
H5    H     H_    0.443621 0.332329 0.798761 0.199271
H6    H     H_    0.583523 0.766671 0.865241 0.186010
H7    H     H_    0.540399 0.856216 0.019687 0.161177
H8    H     H_    0.602709 0.852696 0.096138 0.070229
H9    H     H_    0.556094 0.670025 0.201281 0.197834
H10   H     H_    0.588948 0.556128 0.030604 0.127171
H11   H     H_    0.244950 0.367316 0.984127 0.219484
H12   H     H_    0.657385 0.709266 0.704653 0.103530
H13   H     H_    0.300152 0.272030 0.974540 0.131435
H14   H     H_    0.243057 0.158743 0.887140 0.184475
H15   H     H_    0.267445 0.112245 0.187207 0.136011
H16   H     H_    0.212943 0.204872 0.191725 0.171298
H17   H     H_    0.712441 0.761030 0.984615 0.139938
H18   H     H_    0.762486 0.641490 0.962685 0.232071
H19   H     H_    0.774004 0.852653 0.039059 0.163055
H20   H     H_    0.792910 0.775903 0.722991 0.170416
H21   H     H_    0.740266 0.878280 0.732999 0.142131
H22   H     H_    0.589812 0.278634 0.022158 0.165306
H23   H     H_    0.115388 0.210974 0.743271 0.159659
H24   H     H_    0.651880 0.364351 0.034453 0.162800
H25   H     H_    0.637448 0.155745 0.956995 0.126025
H26   H     H_    0.651503 0.129215 0.247039 0.123194
H27   H     H_    0.599022 0.219389 0.300488 0.160936
H28   H     H_    0.399905 0.803447 0.646984 0.169567
H29   H     H_    0.349759 0.905431 0.738769 0.139359
H30   H     H_    0.402884 0.894683 0.885034 0.132474
H31   H     H_    0.330724 0.717824 0.920866 0.135064
H32   H     H_    0.382096 0.624570 0.869989 0.165035
H33   H     H_    0.728488 0.248745 0.108269 0.144290
H34   H     H_    0.881188 0.717405 0.186758 0.158704
H35   H     H_    0.782027 0.284664 0.258513 0.147418
H36   H     H_    0.734157 0.146226 0.289113 0.126309
H37   H     H_    0.249670 0.630330 0.883080 0.151464
H38   H     H_    0.261986 0.787816 0.768252 0.126521
H39   H     H_    0.208359 0.655619 0.704805 0.146506
H40   H     H_    0.857078 0.394044 0.985220 0.180491
H41   H     H_    0.848561 0.197385 0.836294 0.172261
H42   H     H_    0.902179 0.262742 0.987135 0.105779
H43   H     H_    0.147046 0.738005 0.095586 0.176059
H44   H     H_    0.142723 0.537339 0.957942 0.173295
H45   H     H_    0.966312 0.304348 0.833785 0.110917
H46   H     H_    0.095209 0.657495 0.939623 0.108165
H47   H     H_    0.399936 0.169113 0.398440 0.152237
H48   H     H_    0.361000 0.986908 0.337409 0.143258
H49   H     H_    0.394262 0.050464 0.559037 0.142576
H50   H     H_    0.440516 0.963669 0.192458 0.142167
H51   H     H_    0.428473 0.836204 0.339034 0.180053
H52   H     H_    0.600205 0.832310 0.557718 0.153587
H53   H     H_    0.603361 0.974199 0.420610 0.138629
H54   H     H_    0.639034 0.013930 0.636164 0.138288
H55   H     H_    0.570375 0.164124 0.668588 0.182337
H56   H     H_    0.030646 0.622832 0.095647 0.110735
H57   H     H_    0.562243 0.020759 0.797470 0.139966
H58   H     H_    0.031586 0.227654 0.764804 0.109752
H59   H     H_    0.964474 0.694989 0.159381 0.110094
H60   H     H_    0.459844 0.141970 0.969289 0.157339
N1    N     N_R   0.199023 0.431804 0.440799 -0.398684
N2    N     N_R   0.798734 0.517476 0.510531 -0.399041
N3    N     N_2   0.486510 0.456430 0.038510 -0.133416
N4    N     N_2   0.513490 0.543570 0.961490 -0.133561
O1    O     O_R   0.503500 0.286120 0.619780 -0.531184
O2    O     O_2   0.800352 0.671807 0.296446 -0.540576
O3    O     O_2   0.794146 0.371727 0.731128 -0.532076
O4    O     O_2   0.203821 0.587645 0.230051 -0.537413
O5    O     O_R   0.496500 0.713880 0.380220 -0.528920
O6    O     O_R   0.494410 0.256780 0.308360 -0.511362
O7    O     O_R   0.505590 0.743220 0.691640 -0.506268
O8    O     O_R   0.434810 0.514700 0.655690 -0.531604
O9    O     O_R   0.565190 0.485300 0.344310 -0.528158
O10   O     O_R   0.425720 0.485350 0.344280 -0.517064
O11   O     O_R   0.574280 0.514650 0.655720 -0.516917
O12   O     O_2   0.196833 0.266037 0.642564 -0.543957

loop_
_geom_bond_atom_site_label_1
_geom_bond_atom_site_label_2
_ccdc_geom_bond_type
C51   H33   S    
C52   H39   S    
C42   H16   S    
C23   C45   A    
C11   H45   S    
C36   N1    S    
C38   N3    S    
C45   C60   A    
C29   C49   S    
C43   H14   S    
C34   C56   A    
C52   H38   S    
C54   H43   S    
C33   C42   S    
C35   C37   A    
C5    C11   A    
C1    O1    A    
C38   C39   S    
C11   C14   A    
C57   H48   S    
C27   C29   A    
C53   H40   S    
C40   N4    S    
C22   O12   S    
C33   C36   A    
C40   H9    S    
C54   H46   S    
C7    C9    A    
C26   N2    A    
C3    C29   A    
C25   N1    A    
C46   H18   S    
C53   H42   S    
C23   C62   A    
C61   H34   S    
C59   H52   S    
C1    C20   S    
C12   O7    A    
C31   C33   A    
Cu1   N4    S    
C41   H7    S    
C2    C34   A    
C38   H5    S    
C42   H15   S    
C59   H53   S    
C24   N2    A    
C39   H3    S    
C20   C55   S    
C60   H23   S    
C44   C46   S    
Cu2   O9    S    
C51   H35   S    
Cu2   O6    S    
C52   H37   S    
C32   C35   A    
C30   C47   S    
C17   O11   A    
C50   H30   S    
C22   N1    A    
C57   H49   S    
C58   C59   S    
C12   C21   S    
C8    C18   A    
C39   H60   S    
Cu1   Cu2   S    
Cu1   O7    S    
C15   C54   S    
C5    C9    A    
C24   O2    S    
C46   H17   S    
C47   C48   S    
Cu2   N3    S    
C19   H59   S    
C22   C45   A    
C48   H24   S    
C2    C26   A    
C49   H31   S    
C3    C31   A    
C35   C44   S    
C4    C32   A    
C18   H58   S    
C41   H8    S    
C4    C17   S    
C50   H28   S    
C40   C41   S    
C38   H4    S    
C59   H54   S    
C7    C19   A    
C48   H25   S    
C55   C57   S    
C9    C34   A    
C10   C23   A    
C39   H2    S    
C48   H22   S    
C43   H13   S    
C42   C43   S    
N3    N4    D    
C16   O8    A    
C1    O6    A    
Cu2   O10   S    
C13   H56   S    
C27   C52   S    
C43   H11   S    
C37   N2    S    
C18   C60   A    
C51   H36   S    
C31   H1    S    
Cu2   O5    S    
C58   H57   S    
C47   H27   S    
C16   O10   A    
C44   H20   S    
C32   H12   S    
C5    C8    A    
C50   H29   S    
C6    C7    A    
C55   H50   S    
Cu1   O11   S    
C27   C36   A    
C24   C56   A    
C54   H44   S    
C12   O5    A    
Cu1   O8    S    
C13   C15   A    
C21   C58   S    
C6    C13   A    
C57   H47   S    
C55   H51   S    
C28   C37   A    
C19   C61   A    
C28   C30   A    
C58   H55   S    
C28   C51   S    
C15   C62   A    
C40   H10   S    
C25   C62   A    
Cu1   O1    S    
C49   H32   S    
C2    C14   A    
C47   H26   S    
C6    C10   A    
C26   O3    S    
C46   H19   S    
C53   H41   S    
C14   C53   S    
C20   C21   D    
C8    C10   A    
C49   C50   S    
C56   C61   A    
C17   O9    A    
C25   O4    S    
C4    C30   A    
C3    C16   S    
C44   H21   S    
C41   H6    S    
