data_mof_unit_22907.cif
_audit_creation_date              2012-12-11T15:50:00-0500
_audit_creation_method            fapswitch 2.2
_symmetry_space_group_name_H-M    P1
_symmetry_Int_Tables_number       1
_space_group_crystal_system       triclinic
_cell_length_a                    16.562914
_cell_length_b                    7.241288
_cell_length_c                    15.269418
_cell_angle_alpha                 90.008499
_cell_angle_beta                  94.677879
_cell_angle_gamma                 90.009517
_cell_volume                      1825.26517304

loop_
_atom_site_label
_atom_site_type_symbol
_atom_type_description
_atom_site_fract_x
_atom_site_fract_y
_atom_site_fract_z
_atom_type_partial_charge
O1    O     O_R   0.663460 0.361880 0.165960 -0.499878
O2    O     O_R   0.336540 0.638120 0.834040 -0.507073
O3    O     O_R   0.836540 0.861880 0.334040 -0.503888
O4    O     O_R   0.163460 0.138120 0.665960 -0.507557
O5    O     O_R   0.827100 0.690020 0.163730 -0.516474
O6    O     O_R   0.172900 0.309980 0.836270 -0.527625
O7    O     O_R   0.672900 0.190020 0.336270 -0.513479
O8    O     O_R   0.327100 0.809980 0.663730 -0.528029
C1    C     C_R   0.853203 0.522999 0.143423 0.783809
C2    C     C_R   0.146873 0.477045 0.856662 0.763721
C3    C     C_R   0.646865 0.022989 0.356655 0.731626
C4    C     C_R   0.353128 0.977047 0.643338 0.763028
O9    O     O_R   0.663490 0.691490 0.155490 -0.546118
O10   O     O_R   0.336510 0.308510 0.844510 -0.535175
O11   O     O_R   0.836510 0.191490 0.344510 -0.543854
O12   O     O_R   0.163490 0.808510 0.655490 -0.536136
O13   O     O_R   0.671770 0.863400 0.325740 -0.546674
O14   O     O_R   0.328230 0.136600 0.674260 -0.533149
O15   O     O_R   0.828230 0.363400 0.174260 -0.538062
O16   O     O_R   0.171770 0.636600 0.825740 -0.533044
C5    C     C_R   0.634341 0.522663 0.135352 0.760864
C6    C     C_R   0.365571 0.477357 0.864746 0.778876
C7    C     C_R   0.865625 0.022679 0.364684 0.771699
C8    C     C_R   0.134440 0.977317 0.635224 0.774759
O17   O     O_3   0.752910 0.528900 0.305870 -0.373889
O18   O     O_3   0.247090 0.471100 0.694130 -0.374892
O19   O     O_3   0.747090 0.028900 0.194130 -0.370453
O20   O     O_3   0.252910 0.971100 0.805870 -0.373656
V1    V     V_3+5 0.749460 0.803130 0.239640 1.612019
V2    V     V_3+5 0.250540 0.196870 0.760360 1.635980
V3    V     V_3+5 0.750540 0.303130 0.260360 1.624754
V4    V     V_3+5 0.249460 0.696870 0.739640 1.633721
C9    C     C_R   0.937037 0.125737 0.506035 -0.289104
C10   C     C_R   0.063208 0.874414 0.493688 -0.258611
C11   C     C_R   0.562884 0.625994 0.994103 -0.248693
C12   C     C_R   0.436765 0.374394 0.006199 -0.244690
H1    H     H_    0.887440 0.221334 0.511660 0.188523
H2    H     H_    0.112741 0.778603 0.488134 0.187199
H3    H     H_    0.612482 0.721652 0.988536 0.194970
H4    H     H_    0.387261 0.278397 0.011589 0.190864
C13   C     C_R   0.999035 0.114687 0.574441 0.488812
C14   C     C_R   0.001048 0.884870 0.425434 0.425151
C15   C     C_R   0.500924 0.614958 0.925648 0.487878
C16   C     C_R   0.498871 0.384800 0.074512 0.487229
C17   C     C_R   0.064079 0.988868 0.567873 -0.211308
C18   C     C_R   0.936106 0.011159 0.431882 -0.218467
C19   C     C_R   0.435905 0.489003 0.932110 -0.228000
C20   C     C_R   0.563825 0.511190 0.068176 -0.239361
C21   C     C_1   0.415815 0.986366 0.581214 -0.144337
C22   C     C_1   0.583995 0.013850 0.418565 -0.113958
C23   C     C_1   0.084192 0.486362 0.918791 -0.142971
C24   C     C_1   0.916055 0.513867 0.081489 -0.098516
C25   C     C_1   0.468660 0.994940 0.529921 0.048272
C26   C     C_1   0.531079 0.005339 0.469775 0.068928
C27   C     C_1   0.031356 0.494944 0.970093 0.050467
C28   C     C_1   0.968953 0.505353 0.030257 0.071136
S1    S     S_3+6 0.989438 0.251746 0.669200 0.005437
O21   O     O_2   0.043627 0.417716 0.666245 -0.339511
O22   O     O_2   0.903315 0.315601 0.672249 -0.323976
O23   O     O_3   0.016288 0.127148 0.759906 -0.512628
H5    H     H_    0.995409 0.197535 0.808876 0.356210
S2    S     S_3+6 0.009643 0.743077 0.331923 0.031452
O24   O     O_2   0.985366 0.849954 0.249602 -0.319868
O25   O     O_2   0.095310 0.676811 0.328113 -0.310028
O26   O     O_3   0.948447 0.558909 0.337443 -0.492186
H6    H     H_    0.967041 0.496498 0.393202 0.329172
S3    S     S_3+6 0.510561 0.752085 0.830933 0.014663
O27   O     O_2   0.456326 0.917941 0.833869 -0.333142
O28   O     O_2   0.596677 0.816115 0.827973 -0.322761
O29   O     O_3   0.483805 0.627468 0.740185 -0.513883
H7    H     H_    0.504666 0.697970 0.691244 0.355704
S4    S     S_3+6 0.490312 0.242242 0.167685 0.014403
O30   O     O_2   0.515962 0.346411 0.250461 -0.342023
O31   O     O_2   0.404139 0.179107 0.171347 -0.322616
O32   O     O_3   0.550207 0.056541 0.159494 -0.500089
H8    H     H_    0.528901 0.962729 0.198814 0.348500

loop_
_geom_bond_atom_site_label_1
_geom_bond_atom_site_label_2
_ccdc_geom_bond_type
O17   V3    S    
C27   C28   S    
O1    C5    A    
O19   V1    S    
O13   V1    S    
O3    C7    A    
C10   C14   A    
O15   V3    S    
C4    C21   S    
C25   C26   S    
O7    C3    A    
C22   C26   T    
C8    C17   S    
O9    V1    S    
O4    C8    A    
S1    O22   D    
C11   C20   A    
O1    V3    S    
C12   C19   A    
O2    V4    S    
C14   C18   A    
O3    V1    S    
S2    O25   D    
C1    O15   A    
C2    O16   A    
O2    C6    A    
O29   H7    S    
O14   V2    S    
C11   C15   A    
C14   S2    S    
C5    C20   S    
O11   C7    A    
C6    C19   S    
O12   C8    A    
C7    C18   S    
C9    C18   A    
C1    C24   S    
O10   V2    S    
S4    O32   S    
C2    C23   S    
O5    V1    S    
O7    V3    S    
S3    O27   D    
O8    V4    S    
C12   H4    S    
S4    O31   D    
O18   V4    S    
S1    O23   S    
C9    H1    S    
O23   H5    S    
S3    O28   D    
C11   H3    S    
O32   H8    S    
O5    C1    A    
S2    O24   D    
O8    C4    A    
O9    C5    A    
C10   C17   A    
O6    V2    S    
C12   C16   A    
O16   V4    S    
C3    O13   A    
S2    O26   S    
C10   H2    S    
S4    O30   D    
O6    C2    A    
O11   V3    S    
O12   V4    S    
S3    O29   S    
C9    C13   A    
O10   C6    A    
O20   V2    S    
C13   S1    S    
C3    C22   S    
S1    O21   D    
C21   C25   T    
C16   S4    S    
C23   C27   T    
C16   C20   A    
C15   S3    S    
O26   H6    S    
C4    O14   A    
C13   C17   A    
C15   C19   A    
O4    V2    S    
C24   C28   T    
