data_mof_unit_42109.cif
_audit_creation_date              2012-12-10T18:20:38-0500
_audit_creation_method            fapswitch 2.2
_symmetry_space_group_name_H-M    P1
_symmetry_Int_Tables_number       1
_space_group_crystal_system       triclinic
_cell_length_a                    14.198533
_cell_length_b                    13.568806
_cell_length_c                    14.982905
_cell_angle_alpha                 89.366364
_cell_angle_beta                  88.701587
_cell_angle_gamma                 83.336827
_cell_volume                      2866.22670311

loop_
_atom_site_label
_atom_site_type_symbol
_atom_type_description
_atom_site_fract_x
_atom_site_fract_y
_atom_site_fract_z
_atom_type_partial_charge
C1    C     C_R   0.501261 0.500313 0.326993 0.953246
C2    C     C_R   0.611389 0.343683 0.952960 0.479603
C3    C     C_R   0.808169 0.414131 0.517404 0.504239
C4    C     C_R   0.190959 0.588051 0.498599 0.524043
C5    C     C_R   0.789929 0.586261 0.481429 0.523352
C6    C     C_R   0.210103 0.411762 0.498335 0.515027
C7    C     C_R   0.889795 0.589973 0.487778 -0.180662
C8    C     C_R   0.109832 0.409704 0.505724 -0.178791
C9    C     C_R   0.949471 0.500526 0.499703 -0.065592
C10   C     C_R   0.050012 0.499740 0.500025 -0.067260
C11   C     C_R   0.908594 0.411738 0.511668 -0.119498
C12   C     C_R   0.498843 0.498717 0.672880 0.969730
C13   C     C_R   0.090767 0.589051 0.493841 -0.111041
C14   C     C_R   0.931264 0.680264 0.480316 0.564456
C15   C     C_R   0.068330 0.319606 0.515220 0.566008
C16   C     C_R   0.516829 0.314514 0.499986 0.899252
C17   C     C_R   0.483208 0.685444 0.501641 0.867177
C18   C     C_R   0.030781 0.678356 0.484641 -0.278999
C19   C     C_R   0.968543 0.322327 0.519658 -0.290519
C20   C     C_1   0.470461 0.789264 0.503139 -0.146835
C21   C     C_1   0.529602 0.210708 0.500090 -0.126567
C22   C     C_2   0.458916 0.981166 0.504503 -0.164091
C23   C     C_R   0.509921 0.502795 0.952495 -0.117549
C24   C     C_2   0.540900 0.018797 0.500732 -0.148183
C25   C     C_1   0.538280 0.122777 0.500303 0.011985
C26   C     C_1   0.461628 0.877182 0.504045 0.013137
C27   C     C_R   0.550507 0.417718 0.812543 0.410523
C28   C     C_R   0.455007 0.583011 0.184938 0.428951
C29   C     C_R   0.496147 0.494889 0.768630 -0.304703
C30   C     C_R   0.506053 0.504279 0.231031 -0.321445
C31   C     C_R   0.438722 0.567760 0.815440 0.458969
C32   C     C_R   0.568118 0.432365 0.186357 0.442372
C33   C     C_R   0.454047 0.579929 0.906278 -0.113822
C34   C     C_R   0.514174 0.505769 0.045796 -0.121281
C35   C     C_R   0.564022 0.425595 0.093155 -0.103072
C36   C     C_3   0.526198 0.270454 0.751216 -0.221844
C37   C     C_3   0.421751 0.713981 0.283175 -0.171098
C38   C     C_3   0.280695 0.581485 0.792738 -0.277737
C39   C     C_3   0.721011 0.398229 0.229415 -0.210334
C40   C     C_3   0.480563 0.813036 0.089606 -0.288657
C41   C     C_3   0.755935 0.287343 0.894724 -0.218934
C42   C     C_3   0.766642 0.315767 0.631077 -0.212964
C43   C     C_3   0.229307 0.716451 0.580438 -0.267825
C44   C     C_3   0.730337 0.679251 0.364536 -0.248387
C45   C     C_R   0.558269 0.420960 0.905675 -0.113375
C46   C     C_3   0.274590 0.304163 0.393636 -0.200254
C47   C     C_3   0.902219 0.835323 0.413039 -0.304810
C48   C     C_3   0.101784 0.154278 0.476042 -0.304114
C49   C     C_R   0.465087 0.587507 0.091925 -0.119535
C50   C     C_R   0.416761 0.667109 0.951632 0.109559
C51   C     C_R   0.607340 0.341729 0.046124 0.102068
C52   C     C_R   0.426303 0.671930 0.043800 0.520188
H1    H     H_    0.608711 0.972423 0.497594 0.180774
H2    H     H_    0.405568 0.789981 0.255780 0.194835
H3    H     H_    0.282383 0.506421 0.763170 0.164622
H4    H     H_    0.220105 0.629386 0.764060 0.176614
H5    H     H_    0.266464 0.577679 0.866013 0.171283
H6    H     H_    0.767741 0.352488 0.276105 0.195323
H7    H     H_    0.721011 0.477113 0.248547 0.121959
H8    H     H_    0.752095 0.387039 0.161011 0.147476
H9    H     H_    0.509593 0.827717 0.021778 0.183032
H10   H     H_    0.537092 0.772216 0.130549 0.130100
H11   H     H_    0.459498 0.885941 0.121406 0.199823
H12   H     H_    0.391083 0.027521 0.507426 0.170664
H13   H     H_    0.796308 0.225525 0.857331 0.188692
H14   H     H_    0.791902 0.294368 0.959202 0.146576
H15   H     H_    0.758272 0.356137 0.853905 0.147987
H16   H     H_    0.724613 0.253906 0.647920 0.215873
H17   H     H_    0.733084 0.383431 0.665684 0.201214
H18   H     H_    0.839018 0.295331 0.657052 0.123450
H19   H     H_    0.252605 0.791617 0.575589 0.194631
H20   H     H_    0.280711 0.670275 0.622379 0.233146
H21   H     H_    0.157825 0.724069 0.613388 0.133361
H22   H     H_    0.802582 0.677396 0.333773 0.130322
H23   H     H_    0.061204 0.747750 0.481853 0.187582
H24   H     H_    0.690094 0.751456 0.346499 0.174910
H25   H     H_    0.693320 0.620207 0.335605 0.151016
H26   H     H_    0.204386 0.295239 0.365265 0.127093
H27   H     H_    0.321070 0.233480 0.383359 0.175291
H28   H     H_    0.307232 0.363325 0.356379 0.169539
H29   H     H_    0.928938 0.796219 0.350821 0.143385
H30   H     H_    0.956395 0.879519 0.439366 0.162981
H31   H     H_    0.840013 0.888283 0.394776 0.200335
H32   H     H_    0.080482 0.180577 0.407882 0.138727
H33   H     H_    0.045032 0.116061 0.508822 0.165144
H34   H     H_    0.937801 0.253751 0.529956 0.187412
H35   H     H_    0.164988 0.098590 0.467915 0.195980
H36   H     H_    0.467112 0.303067 0.708756 0.134798
H37   H     H_    0.497579 0.244611 0.816063 0.188550
H38   H     H_    0.562005 0.204385 0.716183 0.184781
H39   H     H_    0.499606 0.699387 0.293959 0.065890
H40   H     H_    0.383603 0.714288 0.348167 0.202511
I1    I     I_    0.355452 0.800817 0.886552 -0.283046
I2    I     I_    0.653204 0.200525 0.106837 -0.304861
N1    N     N_R   0.750030 0.500040 0.500070 -0.199028
N2    N     N_R   0.249970 0.499960 0.499930 -0.198975
O1    O     O_R   0.580280 0.500020 0.367860 -0.622220
O2    O     O_3   0.383905 0.645560 0.227569 -0.550276
O3    O     O_3   0.365451 0.623259 0.772083 -0.588433
O4    O     O_3   0.629303 0.367434 0.235793 -0.566380
O5    O     O_3   0.399895 0.761138 0.086211 -0.552591
O6    O     O_3   0.662054 0.265034 0.908635 -0.549584
O7    O     O_3   0.768425 0.328363 0.537481 -0.590231
O8    O     O_3   0.229242 0.676879 0.493747 -0.592141
O9    O     O_3   0.732325 0.671145 0.458474 -0.519114
O10   O     O_3   0.267408 0.323766 0.486108 -0.532937
O11   O     O_3   0.873016 0.770108 0.479630 -0.559555
O12   O     O_R   0.419720 0.499980 0.632140 -0.617786
O13   O     O_3   0.126119 0.231342 0.530626 -0.560317
O14   O     O_R   0.419730 0.500030 0.367840 -0.602876
O15   O     O_R   0.580270 0.499970 0.632160 -0.614389
O16   O     O_R   0.591830 0.359650 0.500030 -0.543600
O17   O     O_R   0.408170 0.640350 0.499970 -0.580461
O18   O     O_R   0.431280 0.359660 0.500010 -0.576657
O19   O     O_R   0.568720 0.640340 0.499990 -0.555542
O20   O     O_3   0.593202 0.337994 0.763791 -0.607478
Zn1   Zn    Zn3+2 0.607200 0.499990 0.500020 1.014422
Zn2   Zn    Zn3+2 0.392800 0.500010 0.499980 1.002265

loop_
_geom_bond_atom_site_label_1
_geom_bond_atom_site_label_2
_ccdc_geom_bond_type
C36   H37   S    
C43   H21   S    
C30   C32   A    
C18   H23   S    
C23   C45   A    
C12   C29   S    
C27   C29   A    
C14   C18   A    
C19   H34   S    
C42   O7    S    
O14   Zn2   S    
C17   O17   A    
C41   H15   S    
C5    O9    S    
C44   O9    S    
N1    Zn1   S    
C15   C19   A    
C11   C19   A    
C43   H20   S    
C40   H11   S    
C13   C18   A    
N2    Zn2   S    
C44   H25   S    
C46   H27   S    
C2    O6    S    
C36   H38   S    
C4    O8    S    
C42   H18   S    
C17   C20   S    
C40   H10   S    
C41   O6    S    
C34   C35   A    
C47   H30   S    
C4    C13   A    
C44   H24   S    
C15   O13   S    
C43   O8    S    
C40   O5    S    
C4    N2    A    
C31   O3    S    
C7    C14   A    
C38   H3    S    
C23   C33   A    
C50   C52   A    
C31   C33   A    
C47   H31   S    
C9    C10   A    
C27   O20   S    
C23   C34   A    
C48   O13   S    
C12   O12   A    
C42   H16   S    
C37   O2    S    
C5    N1    A    
C2    C45   A    
C52   O5    S    
C37   H39   S    
C32   C35   A    
O12   Zn2   S    
C24   C25   S    
C1    O1    A    
C5    C7    A    
C6    C8    A    
O19   Zn1   S    
C33   C50   A    
C39   H6    S    
C42   H17   S    
C36   H36   S    
C40   H9    S    
C32   O4    S    
C1    O14   A    
C38   H5    S    
C28   C49   A    
C16   O16   A    
C49   C52   A    
C39   H7    S    
C6    O10   S    
C48   H35   S    
C50   I1    S    
C44   H22   S    
C9    C11   A    
O18   Zn2   S    
C37   H2    S    
C14   O11   S    
C8    C15   A    
C6    N2    A    
C35   C51   A    
C22   C24   D    
C36   O20   S    
C17   O19   A    
C46   H26   S    
C28   O2    S    
C7    C9    A    
C21   C25   T    
C34   C49   A    
C43   H19   S    
C37   H40   S    
C38   O3    S    
C10   C13   A    
C16   O18   A    
C41   H13   S    
C16   C21   S    
C41   H14   S    
C47   O11   S    
O15   Zn1   S    
C28   C30   A    
C24   H1    S    
C29   C31   A    
C46   H28   S    
C27   C45   A    
C39   O4    S    
O16   Zn1   S    
C20   C26   T    
C3    O7    S    
C39   H8    S    
C46   O10   S    
C1    C30   S    
C47   H29   S    
O1    Zn1   S    
C3    C11   A    
C2    C51   A    
C51   I2    S    
C22   H12   S    
O17   Zn2   S    
C48   H32   S    
C38   H4    S    
C8    C10   A    
C22   C26   S    
C48   H33   S    
C3    N1    A    
C12   O15   A    
