data_mof_unit_16042.cif
_audit_creation_date              2012-12-10T16:59:21-0500
_audit_creation_method            fapswitch 2.2
_symmetry_space_group_name_H-M    P1
_symmetry_Int_Tables_number       1
_space_group_crystal_system       triclinic
_cell_length_a                    19.348091
_cell_length_b                    10.933361
_cell_length_c                    9.794165
_cell_angle_alpha                 90.868159
_cell_angle_beta                  89.207382
_cell_angle_gamma                 91.935255
_cell_volume                      2070.25096106

loop_
_atom_site_label
_atom_site_type_symbol
_atom_type_description
_atom_site_fract_x
_atom_site_fract_y
_atom_site_fract_z
_atom_type_partial_charge
C1    C     C_R   0.501913 0.266009 0.498951 0.816434
C2    C     C_R   0.291669 0.503992 0.503407 -0.038077
C3    C     C_R   0.929847 0.499549 0.496587 0.408614
C4    C     C_R   0.070012 0.499792 0.498105 0.422291
C5    C     C_R   0.816769 0.518218 0.619056 -0.158774
C6    C     C_R   0.744826 0.518062 0.619688 -0.188649
C7    C     C_R   0.708391 0.500373 0.497669 -0.028841
C8    C     C_R   0.745265 0.482393 0.374922 -0.197131
C9    C     C_R   0.817315 0.481725 0.374355 -0.152548
C10   C     C_R   0.853734 0.499753 0.496469 0.058639
C11   C     C_2   0.504644 0.932314 0.394488 -0.245219
C12   C     C_R   0.367740 0.501995 0.501126 0.773692
C13   C     C_2   0.488887 0.867049 0.506924 0.297519
C14   C     C_2   0.496046 0.064619 0.389368 -0.130192
C15   C     C_2   0.510583 0.135469 0.498155 -0.251636
C16   C     C_2   0.470084 0.413444 0.920591 0.496287
C17   C     C_2   0.462279 0.423840 0.074880 0.278801
C18   C     C_R   0.497911 0.734638 0.501663 0.737844
C19   C     C_R   0.632356 0.500275 0.499148 0.768116
C20   C     C_R   0.254458 0.566256 0.607434 0.174158
C21   C     C_R   0.182068 0.563115 0.604501 -0.147595
C22   C     C_R   0.146168 0.501211 0.499360 0.010282
C23   C     C_R   0.183450 0.441980 0.395628 -0.156784
C24   C     C_R   0.255386 0.443327 0.397794 -0.235252
Cu1   Cu    Cu3+1 0.500010 0.500020 0.638630 0.934053
Cu2   Cu    Cu3+1 0.499990 0.499980 0.361370 0.957364
H1    H     H_    0.480457 0.103814 0.293891 0.156682
H2    H     H_    0.531875 0.097484 0.589005 0.157589
H3    H     H_    0.497733 0.586624 0.883146 0.219280
H4    H     H_    0.153623 0.610863 0.683792 0.155058
H5    H     H_    0.157069 0.393549 0.313215 0.160276
H6    H     H_    0.282759 0.395508 0.317110 0.151783
H7    H     H_    0.843312 0.532037 0.714965 0.154346
H8    H     H_    0.717832 0.532143 0.715869 0.159774
H9    H     H_    0.718569 0.467863 0.279424 0.140236
H10   H     H_    0.844401 0.467667 0.278197 0.152832
H11   H     H_    0.524896 0.888355 0.302784 0.146377
N1    N     N_R   0.034731 0.462100 0.385371 -0.236387
N2    N     N_R   0.965956 0.462165 0.384562 -0.239266
N3    N     N_R   0.965165 0.536818 0.609292 -0.239956
N4    N     N_R   0.033847 0.537125 0.609950 -0.240706
N5    N     N_2   0.499250 0.498660 0.846910 -0.339668
N6    N     N_2   0.499230 0.498630 0.153040 -0.010497
O1    O     O_R   0.500010 0.321960 0.617040 -0.529275
O2    O     O_R   0.499990 0.321920 0.382900 -0.596933
O3    O     O_R   0.400160 0.500010 0.617110 -0.602714
O4    O     O_R   0.400130 0.499970 0.382960 -0.579378
O5    O     O_R   0.500010 0.678080 0.617100 -0.594496
O6    O     O_R   0.499990 0.678040 0.382960 -0.562999
O7    O     O_R   0.599870 0.500030 0.617040 -0.575738
O8    O     O_R   0.599840 0.499990 0.382890 -0.611411
C25   C     C_3   0.290152 0.641286 0.717841 -0.863960
H12   H     H_    0.327801 0.707398 0.670638 0.246575
H13   H     H_    0.253008 0.694743 0.779969 0.224034
H14   H     H_    0.316983 0.580791 0.788329 0.233641
O9    O     O_3   0.449743 0.918791 0.612476 -0.604420
C26   C     C_3   0.482073 0.912429 0.741402 0.052024
H15   H     H_    0.492044 0.007451 0.779500 0.166589
H16   H     H_    0.533255 0.868422 0.739122 0.127171
C27   C     C_3   0.432920 0.848464 0.843852 -0.342470
H17   H     H_    0.380727 0.887273 0.838321 0.225960
H18   H     H_    0.427630 0.749632 0.818177 0.233179
C28   C     C_3   0.458855 0.863694 0.989823 -0.893900
H19   H     H_    0.511736 0.828578 0.997719 0.269276
H20   H     H_    0.423923 0.811550 0.060438 0.274287
H21   H     H_    0.459638 0.961765 0.021416 0.245074
O10   O     O_3   0.452767 0.300840 0.860148 -0.592783
C29   C     C_3   0.382280 0.295293 0.821100 0.115302
H22   H     H_    0.379355 0.306694 0.709613 0.190217
H23   H     H_    0.349996 0.366407 0.870907 0.103539
C30   C     C_3   0.350743 0.167782 0.848691 -0.400523
H24   H     H_    0.378405 0.100083 0.784822 0.250096
H25   H     H_    0.356551 0.143626 0.957364 0.225170
C31   C     C_3   0.274166 0.159889 0.813087 -0.888303
H26   H     H_    0.244806 0.224937 0.877818 0.257568
H27   H     H_    0.253244 0.065668 0.831511 0.261228
H28   H     H_    0.267054 0.181572 0.703805 0.259811
C32   C     C_3   0.414963 0.326185 0.136876 -0.838405
H29   H     H_    0.362285 0.332676 0.095586 0.189150
H30   H     H_    0.435364 0.234515 0.113392 0.217960
H31   H     H_    0.407120 0.332167 0.246747 0.270269
O11   O     O_3   0.531066 0.595788 0.093165 -0.579715
C33   C     C_3   0.602713 0.591134 0.115003 0.183470
H32   H     H_    0.619973 0.495469 0.126436 0.141510
H33   H     H_    0.615919 0.647830 0.206548 0.175069
C34   C     C_3   0.641972 0.646752 0.993056 -0.443465
H34   H     H_    0.628929 0.593735 0.898786 0.239380
H35   H     H_    0.626502 0.742704 0.979547 0.220153
C35   C     C_3   0.720044 0.645607 0.013237 -0.928018
H36   H     H_    0.734680 0.698214 0.106982 0.263096
H37   H     H_    0.746994 0.688249 0.924201 0.264238
H38   H     H_    0.737147 0.550087 0.021888 0.252723

loop_
_geom_bond_atom_site_label_1
_geom_bond_atom_site_label_2
_ccdc_geom_bond_type
C28   H20   S    
H3    N5    S    
C19   O7    A    
C2    C12   S    
C24   H6    S    
C26   H15   S    
C7    C8    A    
C31   H27   S    
C13   C18   S    
C27   C28   S    
N1    N2    A    
C11   C14   S    
C32   H30   S    
C26   H16   S    
C4    N4    A    
O9    C26   S    
C27   H18   S    
C11   H11   S    
Cu1   O7    S    
Cu2   O2    S    
C29   H22   S    
C8    C9    A    
C31   H28   S    
C5    H7    S    
C9    H10   S    
C23   C24   A    
C1    C15   S    
C14   H1    S    
C35   H37   S    
C9    C10   A    
C25   H14   S    
C13   O9    S    
C28   H21   S    
C3    N2    A    
C21   C22   A    
C12   O4    A    
Cu1   O1    S    
C25   H13   S    
Cu2   N6    S    
C31   H26   S    
C2    C20   A    
O10   C29   S    
C12   O3    A    
Cu2   O6    S    
C30   H25   S    
C32   H29   S    
C16   C17   S    
C26   C27   S    
Cu1   Cu2   S    
C6    H8    S    
C27   H17   S    
C8    H9    S    
C23   H5    S    
C17   N6    D    
C4    C22   S    
C1    O1    A    
C33   H32   S    
C14   C15   D    
C16   O10   S    
C35   H38   S    
Cu1   O5    S    
Cu2   O4    S    
N3    N4    A    
C33   H33   S    
C4    N1    A    
C3    N3    A    
C7    C19   S    
C2    C24   A    
C16   N5    D    
C25   H12   S    
C34   H34   S    
C34   C35   S    
C18   O5    A    
Cu1   N5    S    
C30   C31   S    
C6    C7    A    
C21   H4    S    
C5    C10   A    
C20   C25   S    
C3    C10   S    
Cu2   O8    S    
C11   C13   D    
C32   H31   S    
C1    O2    A    
C15   H2    S    
C5    C6    A    
C29   C30   S    
C17   C32   S    
C34   H35   S    
C28   H19   S    
C19   O8    A    
C30   H24   S    
C33   C34   S    
C20   C21   A    
C29   H23   S    
O11   C33   S    
N6    O11   S    
C22   C23   A    
C35   H36   S    
Cu1   O3    S    
C18   O6    A    
