data_mof_unit_21370.cif
_audit_creation_date              2012-12-11T15:54:08-0500
_audit_creation_method            fapswitch 2.2
_symmetry_space_group_name_H-M    P1
_symmetry_Int_Tables_number       1
_space_group_crystal_system       triclinic
_cell_length_a                    10.714647
_cell_length_b                    10.700233
_cell_length_c                    17.065117
_cell_angle_alpha                 80.727473
_cell_angle_beta                  99.272195
_cell_angle_gamma                 118.81034
_cell_volume                      1684.02424524

loop_
_atom_site_label
_atom_site_type_symbol
_atom_type_description
_atom_site_fract_x
_atom_site_fract_y
_atom_site_fract_z
_atom_type_partial_charge
C1    C     C_R   0.361485 0.230171 0.627598 0.552007
C2    C     C_1   0.320842 0.160153 0.778232 0.010630
C3    C     C_1   0.335990 0.663547 0.277677 -0.024437
C4    C     C_R   0.413723 0.619936 0.601643 0.554229
C5    C     C_1   0.323130 0.672918 0.206965 -0.020664
C6    C     C_R   0.864180 0.683696 0.166600 -0.027324
C7    C     C_R   0.909259 0.600470 0.223252 -0.051381
C8    C     C_R   0.900068 0.594728 0.302692 -0.058614
C9    C     C_R   0.828926 0.781540 0.274360 0.362928
C10   C     C_R   0.835660 0.784176 0.193094 0.361200
C11   C     C_3   0.873015 0.446654 0.227119 -0.239407
C12   C     C_R   0.513630 0.713017 0.734409 -0.157467
C13   C     C_3   0.862243 0.438678 0.315312 -0.238503
C14   C     C_R   0.845541 0.674234 0.328690 -0.033517
C15   C     C_R   0.338361 0.183285 0.155238 0.016918
C16   C     C_R   0.775524 0.618529 0.627244 0.547549
C17   C     C_R   0.267953 0.249927 0.178715 0.001009
C18   C     C_R   0.273149 0.262128 0.257804 0.017244
C19   C     C_R   0.441209 0.168978 0.291884 -0.164390
C20   C     C_R   0.437987 0.157695 0.211219 -0.160551
C21   C     C_3   0.116903 0.227253 0.163267 -0.246484
C22   C     C_3   0.124114 0.241398 0.251036 -0.249594
C23   C     C_R   0.491310 0.729397 0.809937 -0.148871
C24   C     C_R   0.346729 0.207919 0.316066 0.023783
C25   C     C_R   0.889341 0.700878 0.856446 0.565801
C26   C     C_R   0.315962 0.705959 0.898304 0.580065
C27   C     C_R   0.284301 0.114189 0.857731 0.554106
C28   C     C_R   0.354294 0.232942 0.397296 0.549142
C29   C     C_R   0.891368 0.693089 0.085490 0.568028
C30   C     C_R   0.312730 0.700720 0.123863 0.550427
C31   C     C_R   0.287633 0.111138 0.083534 0.537793
C32   C     C_R   0.365636 0.653928 0.360691 0.555842
C33   C     C_R   0.774580 0.624318 0.400894 0.569900
C34   C     C_3   0.096690 0.495195 0.769196 0.733366
C35   C     C_R   0.353608 0.651903 0.836931 -0.004992
C36   C     C_R   0.250498 0.537873 0.794818 0.044394
C37   C     C_R   0.273545 0.519107 0.720820 -0.047951
C38   C     C_3   0.120382 0.470591 0.688904 0.179145
C39   C     C_R   0.399382 0.617323 0.685810 -0.027129
C40   C     C_1   0.818420 0.655394 0.706714 0.042635
C41   C     C_1   0.845730 0.682827 0.774560 0.038236
C42   C     C_1   0.345326 0.188354 0.709866 0.006589
Cl1   Cl    Cl    0.031814 0.286392 0.670052 -0.506499
Cr1   Cr    Cr6+3 0.608440 0.389080 0.519680 1.063260
Cr2   Cr    Cr6+3 0.288640 0.400090 0.490760 1.063547
Cr3   Cr    Cr6+3 0.602940 0.710800 0.489510 1.091306
Cr4   Cr    Cr6+3 0.052530 0.947560 0.964210 1.112604
Cr5   Cr    Cr6+3 0.059970 0.626800 0.992920 1.086847
Cr6   Cr    Cr6+3 0.373320 0.938440 0.995370 1.079007
F1    F     F_    0.066591 0.608080 0.764048 -0.648846
F2    F     F_    0.005125 0.373507 0.813400 -0.549729
F3    F     F_    0.789432 0.872004 0.297573 -0.592195
F4    F     F_    0.804745 0.877434 0.140557 -0.601975
H1    H     H_    0.616305 0.783370 0.711651 0.154350
H2    H     H_    0.051087 0.140634 0.284705 0.202703
H3    H     H_    0.577540 0.813511 0.842836 0.168298
H4    H     H_    0.105717 0.543740 0.638419 0.134333
H5    H     H_    0.964154 0.433738 0.214173 0.151865
H6    H     H_    0.768811 0.382024 0.193138 0.152882
H7    H     H_    0.751494 0.366527 0.331344 0.169029
H8    H     H_    0.946885 0.419625 0.353666 0.157881
H9    H     H_    0.511254 0.140329 0.335193 0.143124
H10   H     H_    0.500946 0.113292 0.194713 0.163271
H11   H     H_    0.037518 0.118348 0.147080 0.231792
H12   H     H_    0.108654 0.316778 0.123663 0.151594
H13   H     H_    0.122015 0.339535 0.262457 0.138477
O1    O     O_R   0.754020 0.497590 0.609930 -0.469332
O2    O     O_R   0.406180 0.826930 0.920660 -0.510845
O3    O     O_R   0.358620 0.062870 0.901950 -0.499529
O4    O     O_R   0.481420 0.271390 0.600630 -0.492905
O5    O     O_R   0.163910 0.085460 0.050210 -0.506965
O6    O     O_R   0.935200 0.815170 0.045770 -0.448915
O7    O     O_R   0.916120 0.596690 0.069430 -0.533505
O8    O     O_R   0.192310 0.631200 0.086170 -0.528217
O9    O     O_R   0.406770 0.819480 0.096420 -0.470603
O10   O     O_R   0.359170 0.055960 0.064880 -0.512577
O11   O     O_3   0.161940 0.837600 0.984160 -0.284370
O12   O     O_R   0.295080 0.533620 0.397890 -0.513754
O13   O     O_R   0.263810 0.254550 0.589590 -0.464444
O14   O     O_R   0.300820 0.531200 0.560890 -0.483601
O15   O     O_R   0.491480 0.744020 0.564270 -0.501195
O16   O     O_R   0.726290 0.693800 0.583010 -0.532219
O17   O     O_R   0.747830 0.500190 0.434090 -0.527541
O18   O     O_R   0.475680 0.273800 0.437630 -0.504760
O19   O     O_R   0.257620 0.257160 0.413750 -0.510408
O20   O     O_R   0.485280 0.746620 0.388440 -0.462172
O21   O     O_R   0.720550 0.696220 0.420010 -0.430090
O22   O     O_3   0.500010 0.499990 0.499980 -0.306878
O23   O     O_R   0.163320 0.092900 0.874450 -0.460765
O24   O     O_R   0.934650 0.822080 0.882840 -0.500811
O25   O     O_R   0.915520 0.604140 0.893670 -0.441455
O26   O     O_R   0.191760 0.638110 0.923230 -0.440758

loop_
_geom_bond_atom_site_label_1
_geom_bond_atom_site_label_2
_ccdc_geom_bond_type
C8    C13   S    
Cr6   O2    S    
C28   O18   A    
C19   C20   A    
Cr1   O17   S    
C14   C33   S    
C23   H3    S    
C13   H7    S    
C7    C11   S    
C12   C23   A    
C25   O24   A    
C18   C24   A    
C36   C37   A    
C5    C30   S    
C30   O8    A    
C29   O7    A    
C19   H9    S    
C26   O26   A    
C38   H4    S    
C10   F4    S    
C22   H13   S    
C21   H11   S    
Cr3   O16   S    
C4    O15   A    
C35   C36   A    
Cr5   O25   S    
Cr6   O9    S    
Cr1   O4    S    
Cr2   O12   S    
C11   H5    S    
C9    C10   A    
C27   O3    A    
C29   O6    A    
C31   O5    A    
C20   H10   S    
Cr6   O3    S    
C21   C22   S    
Cr4   O23   S    
C9    F3    S    
C11   H6    S    
C6    C7    A    
Cr3   O22   S    
C15   C20   A    
C25   O25   A    
C34   F1    S    
Cr5   O8    S    
C7    C8    A    
Cr2   O22   S    
C25   C41   S    
Cr1   O18   S    
C17   C21   S    
C34   C38   S    
Cr5   O11   S    
Cr2   O19   S    
C9    C14   A    
C37   C38   S    
Cr3   O15   S    
C1    C42   S    
C4    C39   S    
C32   O20   A    
C16   O16   A    
C17   C18   A    
C34   F2    S    
Cr6   O10   S    
Cr2   O13   S    
C16   O1    A    
C33   O17   A    
Cr4   O5    S    
C2    C27   S    
C16   C40   S    
C40   C41   T    
C23   C35   A    
C1    O13   A    
Cr4   O24   S    
Cr4   O11   S    
Cr3   O21   S    
C15   C17   A    
C8    C14   A    
C21   H12   S    
C18   C22   S    
Cr5   O7    S    
C4    O14   A    
C24   C28   S    
C3    C5    T    
C6    C10   A    
C15   C31   S    
C22   H2    S    
C1    O4    A    
C26   O2    A    
C12   C39   A    
C19   C24   A    
C33   O21   A    
C38   Cl1   S    
C37   C39   A    
C30   O9    A    
C11   C13   S    
C31   O10   A    
C2    C42   T    
Cr6   O11   S    
C27   O23   A    
Cr2   O14   S    
C34   C36   S    
C3    C32   S    
Cr4   O6    S    
C32   O12   A    
C26   C35   S    
C6    C29   S    
C13   H8    S    
Cr5   O26   S    
C28   O19   A    
Cr1   O1    S    
Cr1   O22   S    
C12   H1    S    
Cr3   O20   S    
