data_mof_unit_14405.cif
_audit_creation_date              2012-12-10T18:29:16-0500
_audit_creation_method            fapswitch 2.2
_symmetry_space_group_name_H-M    P1
_symmetry_Int_Tables_number       1
_space_group_crystal_system       triclinic
_cell_length_a                    35.869909
_cell_length_b                    26.15666
_cell_length_c                    22.12257
_cell_angle_alpha                 89.948696
_cell_angle_beta                  143.999285
_cell_angle_gamma                 89.88919
_cell_volume                      12200.2763741

loop_
_atom_site_label
_atom_site_type_symbol
_atom_type_description
_atom_site_fract_x
_atom_site_fract_y
_atom_site_fract_z
_atom_type_partial_charge
C1    C     C_R   0.650616 0.750045 0.000155 0.843510
C2    C     C_R   0.650525 0.249994 0.000061 0.838399
C3    C     C_R   0.150615 0.250045 0.000155 0.832597
C4    C     C_R   0.150529 0.749997 0.000069 0.858288
C5    C     C_3   0.749800 0.551162 0.997656 -0.027038
C6    C     C_3   0.747398 0.448900 0.995528 -0.036612
C7    C     C_3   0.250102 0.051127 0.998379 -0.028333
C8    C     C_3   0.247578 0.948877 0.996004 -0.040050
C9    C     C_3   0.493887 0.204569 0.962799 -0.105515
C10   C     C_3   0.494095 0.795705 0.963516 -0.105864
C11   C     C_3   0.996572 0.703591 0.968169 -0.106023
C12   C     C_3   0.995306 0.296164 0.965951 -0.105371
C13   C     C_3   0.939818 0.740191 0.903706 -0.096435
C14   C     C_3   0.939564 0.259019 0.903169 -0.097134
C15   C     C_3   0.439297 0.242952 0.902679 -0.096249
C16   C     C_3   0.439355 0.757745 0.902743 -0.097120
C17   C     C_1   0.888846 0.749901 0.999577 -0.094848
C18   C     C_1   0.888686 0.249969 0.999312 -0.106500
C19   C     C_1   0.388840 0.249904 0.999567 -0.096631
C20   C     C_1   0.388690 0.749964 0.999317 -0.104897
C21   C     C_1   0.610942 0.249833 0.000026 -0.059303
C22   C     C_1   0.611108 0.750278 0.000293 -0.029507
C23   C     C_1   0.110965 0.749850 0.000069 -0.054733
C24   C     C_1   0.111113 0.250275 0.000305 -0.035097
C25   C     C_3   0.018671 0.712857 0.062886 0.052275
C26   C     C_3   0.017552 0.287583 0.060997 0.053825
C27   C     C_3   0.516463 0.211101 0.058461 0.051042
C28   C     C_3   0.516549 0.788377 0.058978 0.054159
C29   C     C_3   0.962105 0.749454 0.998417 0.104185
C30   C     C_3   0.961995 0.250441 0.998208 0.105443
C31   C     C_3   0.462063 0.249480 0.998335 0.104570
C32   C     C_3   0.461993 0.750420 0.998198 0.105241
C33   C     C_3   0.559922 0.255573 0.095917 -0.033286
C34   C     C_3   0.559887 0.743667 0.095876 -0.031135
C35   C     C_3   0.059516 0.758341 0.095108 -0.033175
C36   C     C_3   0.059702 0.242409 0.095513 -0.032667
C37   C     C_3   0.537215 0.249073 0.000258 0.068654
C38   C     C_3   0.537306 0.750965 0.000420 0.065163
C39   C     C_3   0.037284 0.749106 0.000391 0.067675
C40   C     C_3   0.037329 0.250960 0.000472 0.066087
C41   C     C_3   0.002766 0.794915 0.030604 0.113596
C42   C     C_3   0.003963 0.205290 0.032689 0.115807
C43   C     C_3   0.505335 0.293930 0.035753 0.112251
C44   C     C_3   0.505149 0.705732 0.035060 0.116723
C45   C     C_R   0.849478 0.750021 0.999980 0.837342
C46   C     C_R   0.849389 0.249939 0.999887 0.805934
C47   C     C_R   0.349477 0.250021 0.999980 0.838796
C48   C     C_R   0.349389 0.749938 0.999886 0.802596
C49   C     C_3   0.482732 0.287435 0.940091 0.119850
C50   C     C_3   0.482671 0.713024 0.939598 0.116812
C51   C     C_3   0.980639 0.785685 0.935884 0.122511
C52   C     C_3   0.981692 0.213836 0.937641 0.115846
C53   C     C_1   0.921930 0.749732 0.999052 0.050496
C54   C     C_1   0.921762 0.250120 0.998757 0.046734
C55   C     C_1   0.421910 0.249744 0.999015 0.050432
C56   C     C_1   0.421766 0.750108 0.998761 0.046583
C57   C     C_1   0.577653 0.249529 0.000138 0.111514
C58   C     C_1   0.577816 0.750575 0.000413 0.113347
C59   C     C_1   0.077696 0.749556 0.000220 0.110985
C60   C     C_1   0.077829 0.250571 0.000444 0.114095
C61   C     C_3   0.494015 0.716824 0.561207 -0.155302
C62   C     C_3   0.496825 0.287738 0.559949 -0.121139
C63   C     C_3   0.997609 0.210850 0.560296 -0.131095
C64   C     C_3   0.995807 0.786029 0.560113 -0.133618
C65   C     C_3   0.433674 0.718224 0.439311 -0.303268
C66   C     C_3   0.435838 0.285010 0.438486 -0.282066
C67   C     C_3   0.936368 0.213798 0.438732 -0.280069
C68   C     C_3   0.934424 0.782969 0.438619 -0.270403
C69   C     C_3   0.565940 0.730524 0.560192 -0.220201
C70   C     C_3   0.568033 0.266443 0.559911 -0.210718
C71   C     C_3   0.068086 0.234959 0.559854 -0.210426
C72   C     C_3   0.067178 0.767308 0.559630 -0.216365
C73   C     C_3   0.518897 0.807907 0.558947 -0.075798
C74   C     C_3   0.518930 0.193577 0.560925 -0.066845
C75   C     C_3   0.016294 0.305601 0.559381 -0.061280
C76   C     C_3   0.019882 0.692726 0.561265 -0.069665
C77   C     C_3   0.548307 0.752085 0.601907 -0.041109
C78   C     C_3   0.549565 0.248807 0.602075 -0.091235
C79   C     C_3   0.049158 0.251058 0.601828 -0.079615
C80   C     C_3   0.049300 0.748381 0.602100 -0.063469
C81   C     C_3   0.446729 0.752089 0.396946 -0.016663
C82   C     C_3   0.447898 0.248429 0.397330 -0.115217
C83   C     C_3   0.947452 0.251419 0.397044 -0.101486
C84   C     C_3   0.947219 0.747735 0.397188 -0.058747
C85   C     C_3   0.505430 0.724938 0.438837 0.041980
C86   C     C_3   0.507259 0.272488 0.438450 0.074340
C87   C     C_3   0.007500 0.228539 0.438653 0.062563
C88   C     C_3   0.006075 0.773376 0.438201 0.046066
C89   C     C_R   0.890235 0.748803 0.282108 0.916369
C90   C     C_R   0.890405 0.250732 0.282017 0.859753
C91   C     C_R   0.390624 0.249263 0.282166 0.856380
C92   C     C_R   0.390048 0.751128 0.281967 0.918637
C93   C     C_3   0.463219 0.810155 0.438372 0.086740
C94   C     C_3   0.462510 0.190982 0.440082 0.101833
C95   C     C_3   0.960367 0.308634 0.438746 0.119648
C96   C     C_3   0.963489 0.690067 0.440400 0.069171
C97   C     C_3   0.820694 0.968729 0.115565 0.061789
C98   C     C_3   0.816892 0.030527 0.119204 0.010956
C99   C     C_3   0.320956 0.468624 0.114212 0.056615
C100  C     C_3   0.317460 0.530439 0.118223 0.026132
C101  C     C_3   0.693972 0.968804 0.968369 -0.234273
C102  C     C_3   0.689051 0.030698 0.956098 -0.172362
C103  C     C_3   0.194787 0.468818 0.970879 -0.238732
C104  C     C_3   0.189679 0.530707 0.958281 -0.169138
C105  C     C_3   0.740136 0.969835 0.914500 0.328597
C106  C     C_3   0.748681 0.031183 0.925458 0.333620
C107  C     C_3   0.237768 0.469681 0.911712 0.327315
C108  C     C_3   0.246452 0.531032 0.922576 0.333798
C109  C     C_3   0.751655 0.948864 0.000064 -0.148023
C110  C     C_3   0.751165 0.051099 0.000398 -0.169749
C111  C     C_3   0.251269 0.448807 0.999589 -0.150852
C112  C     C_3   0.250889 0.551046 0.999969 -0.167903
C113  C     C_R   0.607651 0.751365 0.717704 0.755748
C114  C     C_R   0.608154 0.249306 0.717653 0.782407
C115  C     C_R   0.108091 0.250739 0.717613 0.757424
C116  C     C_R   0.108050 0.749141 0.717678 0.787294
C117  C     C_R   0.751103 0.891175 0.000838 0.905894
C118  C     C_R   0.750472 0.108804 0.000420 0.879260
C119  C     C_R   0.250841 0.391160 0.000536 0.908457
C120  C     C_R   0.250375 0.608785 0.000282 0.878584
C121  C     C_R   0.749856 0.608865 0.997598 0.906739
C122  C     C_R   0.749235 0.391189 0.997610 0.746912
C123  C     C_R   0.249947 0.108848 0.997914 0.909821
C124  C     C_R   0.249286 0.891185 0.997821 0.747867
C125  C     C_3   0.705110 0.529702 0.886817 -0.061511
C126  C     C_3   0.696198 0.470470 0.881855 -0.008831
C127  C     C_3   0.206811 0.029595 0.888418 -0.046923
C128  C     C_3   0.197558 0.970442 0.882817 -0.011894
C129  C     C_3   0.728697 0.531347 0.036006 -0.158338
C130  C     C_3   0.735471 0.469636 0.047226 -0.157998
C131  C     C_3   0.227470 0.031345 0.034263 -0.152602
C132  C     C_3   0.234056 0.969620 0.045359 -0.156630
C133  C     C_3   0.818425 0.528561 0.073726 -0.258856
C134  C     C_3   0.814571 0.469215 0.061301 -0.272593
C135  C     C_3   0.319080 0.028508 0.076514 -0.260961
C136  C     C_3   0.315339 0.969172 0.064073 -0.272659
H1    H     H_    0.426460 0.678853 0.412932 0.135328
H2    H     H_    0.427399 0.323602 0.408156 0.204311
H3    H     H_    0.928727 0.175474 0.408720 0.212432
H4    H     H_    0.925328 0.821738 0.408330 0.168881
H5    H     H_    0.584984 0.691794 0.594540 0.015755
H6    H     H_    0.589056 0.304763 0.593353 0.010348
H7    H     H_    0.090627 0.196953 0.594315 0.006826
H8    H     H_    0.087647 0.805737 0.593076 0.011932
H9    H     H_    0.732250 0.534203 0.879830 0.244078
H10   H     H_    0.708173 0.453408 0.853043 0.198651
H11   H     H_    0.235119 0.033938 0.883643 0.244819
H12   H     H_    0.210556 0.953319 0.855636 0.198497
H13   H     H_    0.497540 0.815172 0.575525 0.223097
H14   H     H_    0.498661 0.188544 0.579742 0.234555
H15   H     H_    0.994986 0.308876 0.576581 0.231242
H16   H     H_    0.999796 0.686690 0.580231 0.238028
H17   H     H_    0.848313 0.535845 0.153180 0.219787
H18   H     H_    0.852150 0.453149 0.140285 0.198512
H19   H     H_    0.347897 0.035742 0.155278 0.220034
H20   H     H_    0.352127 0.953031 0.142847 0.199599
O1    O     O_3   0.749990 0.749990 0.000000 -0.521472
O2    O     O_3   0.749990 0.250010 0.000000 -0.488580
O3    O     O_3   0.249990 0.249990 0.000000 -0.512026
O4    O     O_3   0.249990 0.750010 0.000000 -0.494155
O5    O     O_R   0.888390 0.719350 0.233690 -0.617900
O6    O     O_R   0.888390 0.280650 0.233690 -0.603253
O7    O     O_R   0.388390 0.219350 0.233690 -0.598315
O8    O     O_R   0.388390 0.780650 0.233690 -0.625818
O9    O     O_R   0.611600 0.719370 0.766300 -0.657210
O10   O     O_R   0.611600 0.280630 0.766300 -0.691001
O11   O     O_R   0.111600 0.219370 0.766300 -0.695284
O12   O     O_R   0.111600 0.780630 0.766300 -0.685685
O13   O     O_R   0.698440 0.780630 0.061300 -0.578456
O14   O     O_R   0.698440 0.219370 0.061300 -0.621889
O15   O     O_R   0.198440 0.280630 0.061300 -0.600056
O16   O     O_R   0.198440 0.719370 0.061300 -0.601584
O17   O     O_R   0.801540 0.780630 0.938710 -0.631263
O18   O     O_R   0.801540 0.219370 0.938710 -0.640529
O19   O     O_R   0.301540 0.280630 0.938710 -0.632212
O20   O     O_R   0.301540 0.719370 0.938710 -0.640555
O21   O     O_R   0.637170 0.719360 0.938750 -0.627528
O22   O     O_R   0.637170 0.280640 0.938750 -0.646980
O23   O     O_R   0.137170 0.219360 0.938750 -0.624418
O24   O     O_R   0.137170 0.780640 0.938750 -0.651722
O25   O     O_R   0.862810 0.719350 0.061240 -0.630700
O26   O     O_R   0.862810 0.280650 0.061240 -0.644174
O27   O     O_R   0.362810 0.219350 0.061240 -0.630043
O28   O     O_R   0.362810 0.780650 0.061240 -0.643054
O29   O     O_R   0.845300 0.780620 0.233710 -0.608696
O30   O     O_R   0.845300 0.219380 0.233710 -0.663439
O31   O     O_R   0.345300 0.280620 0.233710 -0.660666
O32   O     O_R   0.345300 0.719380 0.233710 -0.604965
O33   O     O_R   0.654690 0.780640 0.766300 -0.641199
O34   O     O_R   0.654690 0.219360 0.766300 -0.627916
O35   O     O_R   0.154690 0.280640 0.766300 -0.638538
O36   O     O_R   0.154690 0.719360 0.766300 -0.632311
O37   O     O_R   0.759080 0.866840 0.061290 -0.612527
O38   O     O_R   0.759080 0.133160 0.061290 -0.668451
O39   O     O_R   0.259080 0.366840 0.061290 -0.607159
O40   O     O_R   0.259080 0.633160 0.061290 -0.672167
O41   O     O_R   0.697810 0.633140 0.938720 -0.621425
O42   O     O_R   0.697810 0.366860 0.938720 -0.674689
O43   O     O_R   0.197810 0.133140 0.938720 -0.634997
O44   O     O_R   0.197810 0.866860 0.938720 -0.674048
O45   O     O_R   0.740900 0.866850 0.938740 -0.665740
O46   O     O_R   0.740900 0.133150 0.938740 -0.638963
O47   O     O_R   0.240900 0.366850 0.938740 -0.660970
O48   O     O_R   0.240900 0.633150 0.938740 -0.641672
O49   O     O_R   0.802180 0.633140 0.061250 -0.583673
O50   O     O_R   0.802180 0.366860 0.061250 -0.633986
O51   O     O_R   0.302180 0.133140 0.061250 -0.583646
O52   O     O_R   0.302180 0.866860 0.061250 -0.634129
Zn1   Zn    Zn3+2 0.824550 0.706220 0.087530 1.065246
Zn2   Zn    Zn3+2 0.824550 0.293780 0.087530 0.995474
Zn3   Zn    Zn3+2 0.324550 0.206220 0.087530 1.062637
Zn4   Zn    Zn3+2 0.324550 0.793780 0.087530 0.997472
Zn5   Zn    Zn3+2 0.762980 0.793760 0.087560 1.082959
Zn6   Zn    Zn3+2 0.762980 0.206240 0.087560 1.013450
Zn7   Zn    Zn3+2 0.262980 0.293760 0.087560 1.058531
Zn8   Zn    Zn3+2 0.262980 0.706240 0.087560 1.040168
Zn9   Zn    Zn3+2 0.737010 0.793770 0.912460 0.973938
Zn10  Zn    Zn3+2 0.737010 0.206230 0.912460 0.983377
Zn11  Zn    Zn3+2 0.237010 0.293770 0.912460 0.979086
Zn12  Zn    Zn3+2 0.237010 0.706230 0.912460 0.977957
Zn13  Zn    Zn3+2 0.675440 0.706230 0.912460 1.021613
Zn14  Zn    Zn3+2 0.675440 0.293770 0.912460 0.958746
Zn15  Zn    Zn3+2 0.175440 0.206230 0.912460 0.992197
Zn16  Zn    Zn3+2 0.175440 0.793770 0.912460 0.964262
C137  C     C_3   0.644440 0.560412 0.790598 -0.812253
H21   H     H_    0.656452 0.599702 0.791460 0.238841
H22   H     H_    0.621105 0.543322 0.719915 0.235669
H23   H     H_    0.609635 0.562412 0.782130 0.288082
C138  C     C_3   0.625990 0.453211 0.796219 -0.855470
H24   H     H_    0.598173 0.465390 0.719701 0.256908
H25   H     H_    0.620494 0.411363 0.788419 0.264030
H26   H     H_    0.601686 0.468639 0.804233 0.239065
C139  C     C_3   0.146940 0.060497 0.791636 -0.841477
H27   H     H_    0.160318 0.099507 0.794466 0.226061
H28   H     H_    0.124485 0.043413 0.721650 0.249952
H29   H     H_    0.111131 0.063170 0.780938 0.274108
C140  C     C_3   0.127202 0.953293 0.795458 -0.851575
H30   H     H_    0.100457 0.965362 0.719638 0.258800
H31   H     H_    0.121756 0.911433 0.787909 0.261749
H32   H     H_    0.101889 0.968920 0.801465 0.239838
C141  C     C_3   0.005859 0.846760 0.065615 -0.873350
H33   H     H_    0.038824 0.872040 0.083793 0.260398
H34   H     H_    0.957923 0.864442 0.003498 0.257087
H35   H     H_    0.023093 0.841881 0.135280 0.237602
C142  C     C_3   0.008461 0.153693 0.070134 -0.882683
H36   H     H_    0.042169 0.128612 0.089619 0.260533
H37   H     H_    0.025483 0.159071 0.139486 0.235192
H38   H     H_    0.961026 0.135497 0.008812 0.256992
C143  C     C_3   0.511412 0.344672 0.076736 -0.873358
H39   H     H_    0.545832 0.369380 0.097826 0.259315
H40   H     H_    0.464543 0.364104 0.016759 0.257748
H41   H     H_    0.528316 0.337805 0.145736 0.237818
C144  C     C_3   0.511009 0.654641 0.075236 -0.882337
H42   H     H_    0.545376 0.629822 0.096043 0.261186
H43   H     H_    0.527874 0.660929 0.144273 0.234758
H44   H     H_    0.464073 0.635643 0.014914 0.256580
C145  C     C_2   0.626695 0.262629 0.205042 0.451666
H45   H     H_    0.635982 0.266812 0.265174 0.070257
O53   O     O_2   0.670635 0.263697 0.226834 -0.540898
C146  C     C_2   0.626606 0.735787 0.204936 0.448206
H46   H     H_    0.635817 0.731097 0.264934 0.066745
O54   O     O_2   0.670590 0.734612 0.226826 -0.526498
C147  C     C_2   0.125773 0.768517 0.203200 0.447403
H47   H     H_    0.134761 0.774422 0.262734 0.068801
O55   O     O_2   0.169626 0.770205 0.224818 -0.528363
C148  C     C_2   0.126197 0.233103 0.204136 0.453988
H48   H     H_    0.135267 0.227619 0.263857 0.068545
O56   O     O_2   0.170156 0.231655 0.225979 -0.537726
C149  C     C_3   0.039978 0.671507 0.134889 -0.869673
H49   H     H_    0.081798 0.651041 0.171047 0.262325
H50   H     H_    0.052916 0.689186 0.195717 0.242528
H51   H     H_    0.000856 0.643926 0.090791 0.254640
C150  C     C_3   0.037640 0.329459 0.130941 -0.871423
H52   H     H_    0.078917 0.350243 0.166201 0.267456
H53   H     H_    0.997748 0.356663 0.085456 0.249550
H54   H     H_    0.051000 0.312227 0.192547 0.241458
C151  C     C_3   0.535328 0.167763 0.125562 -0.863789
H55   H     H_    0.575936 0.146297 0.159289 0.264827
H56   H     H_    0.549254 0.183661 0.188362 0.242102
H57   H     H_    0.494637 0.141501 0.078326 0.254272
C152  C     C_3   0.535513 0.831165 0.126663 -0.874519
H58   H     H_    0.576225 0.852407 0.160789 0.265162
H59   H     H_    0.494910 0.857764 0.079756 0.250996
H60   H     H_    0.549322 0.814748 0.189165 0.241706
C153  C     C_2   0.514910 0.660310 0.593605 0.363296
H61   H     H_    0.527246 0.638600 0.569954 0.062526
O57   O     O_2   0.515736 0.637436 0.642914 -0.562208
C154  C     C_2   0.520404 0.343208 0.590482 0.298661
H62   H     H_    0.569472 0.352453 0.645582 0.078368
O58   O     O_2   0.484748 0.378388 0.557156 -0.535518
C155  C     C_2   0.022871 0.155797 0.591205 0.320106
H63   H     H_    0.072088 0.147591 0.646004 0.078538
O59   O     O_2   0.988458 0.119802 0.558535 -0.527955
C156  C     C_2   0.017889 0.841904 0.589894 0.283754
H64   H     H_    0.066447 0.852252 0.643635 0.092238
O60   O     O_2   0.981532 0.876142 0.557250 -0.572928
C157  C     C_2   0.480232 0.735142 0.608796 0.404437
H65   H     H_    0.509603 0.721793 0.684441 0.165127
O61   O     O_2   0.438397 0.765757 0.566556 -0.601211
C158  C     C_2   0.482650 0.276940 0.608765 0.538999
H66   H     H_    0.503988 0.300647 0.671529 0.112157
O62   O     O_2   0.448655 0.242050 0.581039 -0.593155
C159  C     C_2   0.983236 0.219714 0.609248 0.535282
H67   H     H_    0.005292 0.195329 0.672091 0.119071
O63   O     O_2   0.948232 0.253709 0.581485 -0.597852
C160  C     C_2   0.982609 0.773811 0.610086 0.409914
H68   H     H_    0.004193 0.796939 0.673578 0.133629
O64   O     O_2   0.949148 0.738382 0.582463 -0.599275
C161  C     C_2   0.370338 0.722513 0.389808 0.577157
H69   H     H_    0.361607 0.696449 0.415651 0.094420
O65   O     O_2   0.328179 0.752262 0.320290 -0.559186
C162  C     C_2   0.372886 0.279355 0.389436 0.591989
H70   H     H_    0.338951 0.250119 0.333209 0.063127
O66   O     O_2   0.357225 0.310754 0.406995 -0.490684
C163  C     C_2   0.873367 0.218398 0.389850 0.583425
H71   H     H_    0.838677 0.247495 0.333272 0.066466
O67   O     O_2   0.858497 0.186216 0.407754 -0.495603
C164  C     C_2   0.872300 0.778289 0.392787 0.561045
H72   H     H_    0.864694 0.803714 0.420925 0.111740
O68   O     O_2   0.829331 0.749571 0.322424 -0.558524
C165  C     C_2   0.493488 0.667591 0.412519 0.339968
H73   H     H_    0.531198 0.639645 0.467805 0.093209
O69   O     O_2   0.443208 0.652401 0.326060 -0.575946
C166  C     C_2   0.496166 0.329840 0.411526 0.357722
H74   H     H_    0.526853 0.359039 0.470375 0.084533
O70   O     O_2   0.452137 0.344199 0.322068 -0.557417
C167  C     C_2   0.998260 0.171218 0.413183 0.376537
H75   H     H_    0.033519 0.142825 0.472060 0.096414
O71   O     O_2   0.951486 0.156204 0.324627 -0.569864
C168  C     C_2   0.993835 0.830833 0.411553 0.359596
H76   H     H_    0.023343 0.860047 0.470482 0.088048
O72   O     O_2   0.950066 0.845298 0.322205 -0.562247
C169  C     C_3   0.564558 0.854025 0.618647 -0.898608
H77   H     H_    0.602010 0.851412 0.633152 0.306947
H78   H     H_    0.537945 0.890346 0.577084 0.242473
H79   H     H_    0.587205 0.857047 0.693444 0.235485
C170  C     C_3   0.563836 0.146334 0.620323 -0.870549
H80   H     H_    0.599424 0.146621 0.630616 0.290736
H81   H     H_    0.589556 0.143885 0.697595 0.294382
H82   H     H_    0.536005 0.110485 0.580446 0.234037
C171  C     C_3   0.059319 0.353320 0.619291 -0.899597
H83   H     H_    0.096325 0.354190 0.632676 0.301788
H84   H     H_    0.030527 0.388878 0.578161 0.243876
H85   H     H_    0.082718 0.354641 0.694906 0.236473
C172  C     C_3   0.065743 0.646086 0.620747 -0.879922
H86   H     H_    0.101516 0.647770 0.631472 0.291839
H87   H     H_    0.091139 0.642886 0.697757 0.293424
H88   H     H_    0.038719 0.609956 0.580537 0.233932
C173  C     C_3   0.405769 0.838176 0.393174 -0.711423
H89   H     H_    0.416541 0.879405 0.413813 0.243905
H90   H     H_    0.362398 0.835890 0.307970 0.243688
H91   H     H_    0.394947 0.823691 0.424708 0.285037
C174  C     C_3   0.404530 0.166144 0.396704 -0.800454
H92   H     H_    0.413329 0.124693 0.416070 0.273513
H93   H     H_    0.395634 0.182101 0.430515 0.239088
H94   H     H_    0.360525 0.169659 0.311738 0.255037
C175  C     C_3   0.901446 0.332604 0.394014 -0.852055
H95   H     H_    0.909291 0.373981 0.413016 0.271729
H96   H     H_    0.857806 0.329363 0.308969 0.223863
H97   H     H_    0.892385 0.315958 0.427245 0.247296
C176  C     C_3   0.906530 0.663418 0.397733 -0.667635
H98   H     H_    0.916771 0.622064 0.418104 0.242406
H99   H     H_    0.897254 0.678533 0.431377 0.269638
H100  H     H_    0.862518 0.666316 0.312699 0.279230
C177  C     C_2   0.481497 0.844355 0.408728 0.460697
H101  H     H_    0.530402 0.849102 0.459914 0.133211
O73   O     O_2   0.441932 0.868902 0.328468 -0.548917
C178  C     C_2   0.478526 0.154168 0.409206 0.484516
H102  H     H_    0.526923 0.147437 0.459062 0.119207
O74   O     O_2   0.437503 0.130022 0.328931 -0.518931
C179  C     C_2   0.976009 0.346446 0.408391 0.485710
H103  H     H_    0.024361 0.354406 0.459388 0.128507
O75   O     O_2   0.934534 0.370024 0.327002 -0.546237
C180  C     C_2   0.980396 0.654600 0.409647 0.458864
H104  H     H_    0.028937 0.648830 0.459610 0.128765
O76   O     O_2   0.939967 0.630425 0.329365 -0.519437
C181  C     C_2   0.624543 0.754055 0.607820 0.491153
H105  H     H_    0.669795 0.734298 0.671219 0.081654
O77   O     O_2   0.623236 0.794708 0.579258 -0.602823
C182  C     C_2   0.625498 0.239417 0.607695 0.483044
H106  H     H_    0.672044 0.256440 0.674243 0.087816
O78   O     O_2   0.621939 0.199070 0.575837 -0.608531
C183  C     C_2   0.124326 0.263551 0.606477 0.487953
H107  H     H_    0.171478 0.246943 0.672381 0.089632
O79   O     O_2   0.119145 0.304753 0.574462 -0.609245
C184  C     C_2   0.125061 0.741292 0.607359 0.482615
H108  H     H_    0.171538 0.758074 0.675334 0.087707
O80   O     O_2   0.121983 0.701915 0.574157 -0.607032
C185  C     C_3   0.517029 0.743352 0.387517 -0.736629
H109  H     H_    0.559243 0.723553 0.423645 0.220600
H110  H     H_    0.476959 0.733156 0.304737 0.239109
H111  H     H_    0.525231 0.784294 0.392060 0.251467
C186  C     C_3   0.517906 0.251402 0.386796 -0.692732
H112  H     H_    0.478293 0.261630 0.303985 0.249783
H113  H     H_    0.560814 0.269154 0.422882 0.219966
H114  H     H_    0.524129 0.209982 0.390935 0.242282
C187  C     C_3   0.017531 0.250463 0.386546 -0.714372
H115  H     H_    0.061493 0.234098 0.424105 0.217250
H116  H     H_    0.978771 0.239283 0.304466 0.244552
H117  H     H_    0.021536 0.292123 0.388497 0.250107
C188  C     C_3   0.016942 0.753856 0.386166 -0.693407
H118  H     H_    0.977102 0.764301 0.303422 0.247510
H119  H     H_    0.059506 0.772509 0.422289 0.224235
H120  H     H_    0.023754 0.712601 0.389749 0.244288
C189  C     C_3   0.846222 0.942117 0.208572 -0.683095
H121  H     H_    0.853758 0.900502 0.214077 0.295291
H122  H     H_    0.894668 0.956184 0.282671 0.242521
H123  H     H_    0.818392 0.947852 0.213336 0.201053
C190  C     C_3   0.823449 0.046411 0.196553 -0.752234
H124  H     H_    0.869660 0.034200 0.276519 0.270182
H125  H     H_    0.825153 0.087994 0.206886 0.265374
H126  H     H_    0.788758 0.030299 0.181694 0.180842
C191  C     C_3   0.347942 0.441996 0.208544 -0.674144
H127  H     H_    0.355048 0.400317 0.213343 0.295672
H128  H     H_    0.396730 0.455925 0.281873 0.240140
H129  H     H_    0.321317 0.447918 0.215566 0.204448
C192  C     C_3   0.325905 0.546452 0.197774 -0.779138
H130  H     H_    0.372625 0.534240 0.277283 0.264789
H131  H     H_    0.327751 0.588075 0.208013 0.265362
H132  H     H_    0.292040 0.530442 0.184883 0.180072
C193  C     C_2   0.872980 0.950765 0.140412 0.409608
H133  H     H_    0.907485 0.975884 0.165815 0.115682
O81   O     O_2   0.879704 0.905368 0.137434 -0.556034
C194  C     C_2   0.875626 0.058832 0.172258 0.405533
H134  H     H_    0.870929 0.094233 0.141156 0.090916
O82   O     O_2   0.929302 0.045941 0.257408 -0.550974
C195  C     C_2   0.372066 0.450546 0.136313 0.407042
H135  H     H_    0.405940 0.475625 0.159853 0.115596
O83   O     O_2   0.378615 0.405104 0.133243 -0.554934
C196  C     C_2   0.375561 0.558665 0.168908 0.408213
H136  H     H_    0.370243 0.594124 0.137216 0.083360
O84   O     O_2   0.429617 0.545702 0.253146 -0.559074
C197  C     C_2   0.703365 0.950864 0.047216 0.573275
H137  H     H_    0.722070 0.975052 0.106426 0.052393
O85   O     O_2   0.686258 0.908745 0.042496 -0.511361
C198  C     C_2   0.678492 0.054842 0.005225 0.444966
H138  H     H_    0.709006 0.083254 0.064625 0.122266
O86   O     O_2   0.632031 0.043263 0.974420 -0.481673
C199  C     C_2   0.205983 0.451093 0.051935 0.578801
H139  H     H_    0.225653 0.475382 0.111809 0.050232
O87   O     O_2   0.189226 0.409092 0.048365 -0.502485
C200  C     C_2   0.180546 0.554906 0.009449 0.441824
H140  H     H_    0.211864 0.582891 0.069584 0.117105
O88   O     O_2   0.134543 0.543600 0.980026 -0.482635
C201  C     C_3   0.672490 0.953892 0.801367 -0.904247
H141  H     H_    0.632566 0.974281 0.769139 0.200330
H142  H     H_    0.666580 0.959936 0.744271 0.247424
H143  H     H_    0.663238 0.913048 0.793481 0.256781
C202  C     C_3   0.696542 0.056296 0.813519 -0.725481
H144  H     H_    0.646976 0.055010 0.763101 0.209764
H145  H     H_    0.705724 0.095797 0.810200 0.272265
H146  H     H_    0.697333 0.036911 0.770010 0.208179
C203  C     C_3   0.169422 0.453584 0.799540 -0.904143
H147  H     H_    0.130099 0.474039 0.769066 0.200511
H148  H     H_    0.162097 0.459632 0.740749 0.248454
H149  H     H_    0.160253 0.412635 0.792256 0.255320
C204  C     C_3   0.193206 0.556103 0.810485 -0.729322
H150  H     H_    0.143976 0.554405 0.761413 0.210326
H151  H     H_    0.201745 0.595742 0.806550 0.272831
H152  H     H_    0.193038 0.536829 0.765635 0.209031
C205  C     C_3   0.782966 0.945044 0.918806 -0.718031
H153  H     H_    0.770224 0.962237 0.857768 0.205150
H154  H     H_    0.834343 0.950604 0.988393 0.216187
H155  H     H_    0.775612 0.904004 0.900439 0.278845
C206  C     C_3   0.810273 0.048363 0.970881 -0.917545
H156  H     H_    0.806605 0.041561 0.916621 0.250860
H157  H     H_    0.819322 0.089865 0.985851 0.249516
H158  H     H_    0.853843 0.028624 0.041109 0.196375
C207  C     C_3   0.278982 0.444914 0.912690 -0.713073
H159  H     H_    0.265451 0.462654 0.851144 0.204349
H160  H     H_    0.330503 0.449779 0.981527 0.216577
H161  H     H_    0.270463 0.404115 0.892110 0.278178
C208  C     C_3   0.307152 0.548057 0.965272 -0.916089
H162  H     H_    0.302079 0.541449 0.909255 0.250528
H163  H     H_    0.316665 0.589481 0.980628 0.250400
H164  H     H_    0.350920 0.528077 0.034576 0.195689
C209  C     C_2   0.660119 0.549235 0.958680 0.471920
H165  H     H_    0.620297 0.529628 0.887361 0.082407
O89   O     O_2   0.648182 0.585699 0.975825 -0.545131
C210  C     C_2   0.677013 0.446193 0.001062 0.248323
H166  H     H_    0.643896 0.422247 0.933865 0.156259
O90   O     O_2   0.665934 0.454832 0.039821 -0.560785
C211  C     C_2   0.158618 0.049247 0.955164 0.463001
H167  H     H_    0.119342 0.030208 0.882847 0.080557
O91   O     O_2   0.145809 0.084988 0.971963 -0.553006
C212  C     C_2   0.174805 0.946296 0.996887 0.259354
H168  H     H_    0.141991 0.922644 0.929314 0.154207
O92   O     O_2   0.162633 0.954791 0.034028 -0.556781
C213  C     C_2   0.630355 0.942477 0.871121 0.437476
H169  H     H_    0.628401 0.908003 0.841716 0.044640
O93   O     O_2   0.581575 0.955481 0.832939 -0.490716
C214  C     C_2   0.628624 0.050598 0.845584 0.487351
H170  H     H_    0.592870 0.026171 0.779676 0.104116
O94   O     O_2   0.617245 0.096456 0.828463 -0.598536
C215  C     C_2   0.130840 0.442411 0.874916 0.438924
H171  H     H_    0.128216 0.407807 0.844919 0.045874
O95   O     O_2   0.082763 0.455473 0.838789 -0.490379
C216  C     C_2   0.128521 0.550548 0.848025 0.485880
H172  H     H_    0.091951 0.526057 0.782620 0.105743
O96   O     O_2   0.117479 0.596442 0.830661 -0.597819
C217  C     C_2   0.856523 0.553415 0.072888 0.551861
H173  H     H_    0.907543 0.547769 0.138763 0.061059
O97   O     O_2   0.831591 0.578597 0.000114 -0.566904
C218  C     C_2   0.834231 0.448967 0.024872 0.359680
H174  H     H_    0.868577 0.418006 0.067136 0.116147
O98   O     O_2   0.812321 0.466222 0.949237 -0.568000
C219  C     C_2   0.358604 0.053323 0.078516 0.552204
H175  H     H_    0.409706 0.048140 0.146186 0.060860
O99   O     O_2   0.334742 0.077892 0.006045 -0.565081
C220  C     C_2   0.336611 0.949022 0.030180 0.365598
H176  H     H_    0.371453 0.918381 0.073825 0.118347
O100  O     O_2   0.315551 0.966064 0.955207 -0.568706
C221  C     C_2   0.767203 0.555295 0.138368 0.558166
H177  H     H_    0.756546 0.543958 0.170533 0.119357
O101  O     O_2   0.808792 0.586844 0.184824 -0.573532
C222  C     C_2   0.790373 0.449042 0.159032 0.436784
H178  H     H_    0.786349 0.411334 0.174117 0.089319
O102  O     O_2   0.840315 0.471761 0.231599 -0.564205
C223  C     C_2   0.264888 0.055315 0.135933 0.557832
H179  H     H_    0.253565 0.043722 0.166986 0.120120
O103  O     O_2   0.306211 0.087249 0.182870 -0.574058
C224  C     C_2   0.287934 0.948928 0.156989 0.427674
H180  H     H_    0.283315 0.911220 0.171156 0.090857
O104  O     O_2   0.337742 0.971567 0.230506 -0.569905
C225  C     C_2   0.873496 0.730122 0.795633 0.414622
H181  H     H_    0.864396 0.724273 0.735963 0.083222
O105  O     O_2   0.829715 0.728464 0.774192 -0.551855
C226  C     C_2   0.873002 0.268216 0.794573 0.413309
H182  H     H_    0.863817 0.273648 0.734712 0.085181
O106  O     O_2   0.829120 0.269629 0.772917 -0.554505
C227  C     C_2   0.372460 0.236003 0.793590 0.413743
H183  H     H_    0.363057 0.231876 0.733319 0.085366
O107  O     O_2   0.328599 0.234965 0.771992 -0.554780
C228  C     C_2   0.372576 0.765515 0.793710 0.412830
H184  H     H_    0.363260 0.770153 0.733585 0.083516
O108  O     O_2   0.328663 0.766651 0.771993 -0.552977
C229  C     C_2   0.486289 0.153972 0.921992 0.449338
H185  H     H_    0.453949 0.125956 0.898206 0.080526
O109  O     O_2   0.516120 0.144014 0.915342 -0.510236
C230  C     C_2   0.486712 0.846640 0.923495 0.447739
H186  H     H_    0.454460 0.874807 0.900080 0.079775
O110  O     O_2   0.516619 0.856703 0.917067 -0.510418
C231  C     C_2   0.991948 0.651896 0.933314 0.446603
H187  H     H_    0.961262 0.623232 0.912838 0.081671
O111  O     O_2   0.022354 0.641766 0.927815 -0.512076
C232  C     C_2   0.989281 0.347604 0.928656 0.449808
H188  H     H_    0.957773 0.376063 0.906736 0.078508
O112  O     O_2   0.019463 0.357752 0.922781 -0.507018
C233  C     C_3   0.463855 0.330868 0.873121 -0.847990
H189  H     H_    0.423182 0.352236 0.839335 0.255346
H190  H     H_    0.504508 0.357192 0.920470 0.259291
H191  H     H_    0.450020 0.315078 0.810361 0.243122
C234  C     C_3   0.463708 0.670146 0.872047 -0.839619
H192  H     H_    0.422936 0.648991 0.837858 0.253148
H193  H     H_    0.449990 0.686461 0.809587 0.241660
H194  H     H_    0.504282 0.643492 0.919069 0.263531
C235  C     C_3   0.959315 0.827132 0.864000 -0.853201
H195  H     H_    0.917434 0.847498 0.827789 0.255428
H196  H     H_    0.998395 0.854781 0.908206 0.260245
H197  H     H_    0.946466 0.809563 0.803204 0.240790
C236  C     C_3   0.961600 0.171865 0.867826 -0.837277
H198  H     H_    0.920268 0.151169 0.832516 0.253718
H199  H     H_    0.948323 0.188994 0.806251 0.243949
H200  H     H_    0.001461 0.144605 0.913421 0.262010

loop_
_geom_bond_atom_site_label_1
_geom_bond_atom_site_label_2
_ccdc_geom_bond_type
O1    Zn13  S    
C195  H135  S    
C42   C142  S    
C108  C204  S    
C82   C94   S    
C13   C225  S    
C234  H192  S    
C122  O50   A    
C36   C42   S    
C227  H183  S    
C107  C207  S    
C73   C93   S    
C234  H193  S    
C210  H166  S    
C110  C118  S    
C170  H80   S    
C75   C95   S    
C159  O63   D    
C7    C127  S    
C235  H195  S    
C198  H138  S    
C208  H164  S    
C9    C27   S    
C120  O40   A    
C114  O34   A    
C182  O78   D    
O12   Zn16  S    
C187  H116  S    
C101  C213  S    
C104  C216  S    
C219  O99   D    
C10   C28   S    
C150  H54   S    
O3    Zn3   S    
C147  O55   D    
C204  H150  S    
C36   C148  S    
C88   C168  S    
C13   C51   S    
C175  H95   S    
C14   C52   S    
C155  H63   S    
C135  C219  S    
C226  H182  S    
C202  H145  S    
C132  C212  S    
C130  C222  S    
C46   O18   A    
O28   Zn4   S    
C64   C160  S    
C151  H56   S    
C65   H1    S    
C171  H84   S    
C116  O36   A    
C191  H128  S    
C142  H36   S    
C124  O52   A    
C77   C113  S    
C178  H102  S    
C174  H93   S    
O33   Zn9   S    
C63   C67   S    
C25   C29   S    
C176  H100  S    
C70   H6    S    
C168  H76   S    
C27   C31   S    
C131  C211  S    
C147  H47   S    
C61   C157  S    
C47   O27   A    
C7    C123  S    
C48   O28   A    
C4    C23   S    
C97   C189  S    
C90   O30   A    
C128  C140  S    
C207  H159  S    
C82   C91   S    
C85   C185  S    
C152  H60   S    
C33   C43   S    
C12   C40   S    
C203  H149  S    
C184  O80   D    
C201  H141  S    
C138  H24   S    
C45   O17   A    
C66   C82   S    
C159  H67   S    
O52   Zn4   S    
C216  H172  S    
C172  H88   S    
C85   C165  S    
O4    Zn16  S    
C175  H97   S    
C149  H50   S    
C185  H109  S    
C204  H152  S    
C68   H4    S    
C183  H107  S    
C170  H82   S    
C113  O33   A    
C218  H174  S    
C71   H7    S    
C207  H161  S    
C44   C50   S    
C72   H8    S    
C73   C169  S    
C84   C88   S    
C95   C179  S    
C222  H178  S    
C22   C58   T    
C88   C188  S    
O37   Zn5   S    
O13   Zn5   S    
C186  H112  S    
C68   C164  S    
C10   C38   S    
C99   C191  S    
C9    C15   S    
C153  O57   D    
C10   C16   S    
C189  H121  S    
C76   C96   S    
C11   C13   S    
C71   C183  S    
O8    Zn4   S    
O2    Zn14  S    
O24   Zn16  S    
C119  O39   A    
C15   C49   S    
C212  H168  S    
C196  O84   D    
C117  O37   A    
C61   C65   S    
C10   C230  S    
C215  H171  S    
C233  H190  S    
C165  H73   S    
C142  H38   S    
C33   C145  S    
C51   C235  S    
C73   C77   S    
C228  H184  S    
C116  O12   A    
C65   C161  S    
C145  O53   D    
C190  H124  S    
O16   Zn8   S    
C106  C206  S    
C75   C79   S    
C41   C51   S    
C37   C57   S    
C42   C52   S    
C182  H106  S    
C39   C51   S    
O1    Zn1   S    
C173  H89   S    
C40   C60   S    
C79   C115  S    
C69   C77   S    
C69   C181  S    
C6    C130  S    
C137  H23   S    
C71   C79   S    
C188  H118  S    
C9    C229  S    
C205  H153  S    
C27   C33   S    
C5    C133  S    
C30   C54   S    
C143  H39   S    
C164  H72   S    
C31   C43   S    
C90   O6    A    
C64   C68   S    
C123  O43   A    
C155  O59   D    
C17   C45   S    
C138  H26   S    
O41   Zn13  S    
C199  O87   D    
C144  H42   S    
C19   C47   S    
C11   C25   S    
O26   Zn2   S    
C162  H70   S    
C111  C119  S    
C145  H45   S    
C43   C143  S    
C180  H104  S    
C164  O68   D    
C81   C92   S    
C8    C128  S    
C231  H187  S    
C61   C77   S    
C185  H111  S    
C107  C108  S    
C105  C205  S    
O18   Zn10  S    
C67   H3    S    
C139  H27   S    
C93   C177  S    
C87   C167  S    
C1    C22   S    
C225  H181  S    
O51   Zn3   S    
C157  O61   D    
C3    C24   S    
C118  O46   A    
C97   C193  S    
C192  H131  S    
C206  H156  S    
C62   C154  S    
C161  O65   D    
C186  H114  S    
C127  C139  S    
O3    Zn7   S    
C62   C66   S    
C101  C102  S    
C80   C116  S    
C126  C138  S    
C189  H123  S    
C104  C112  S    
C66   C162  S    
C166  H74   S    
C236  H199  S    
C228  O108  D    
C12   C26   S    
C221  O101  D    
C154  O58   D    
C201  H143  S    
C102  C214  S    
C97   C109  S    
O50   Zn2   S    
C160  O64   D    
C211  H167  S    
C66   H2    S    
C99   C111  S    
C27   C151  S    
C34   C146  S    
C122  O42   A    
C190  H126  S    
C213  O93   D    
C148  O56   D    
C143  H40   S    
C103  C199  S    
C96   C180  S    
C194  H134  S    
C26   C30   S    
C173  H91   S    
C129  C221  S    
C74   C78   S    
C120  O48   A    
C217  H173  S    
C99   C195  S    
C12   C232  S    
C188  H120  S    
C69   C85   S    
C107  C203  S    
C129  C130  S    
C205  H155  S    
C136  C220  S    
C223  O103  D    
C91   O31   A    
C143  H41   S    
C16   C228  S    
C4    O16   A    
C29   C41   S    
C107  C111  S    
C62   C78   S    
C76   C80   S    
C12   C14   S    
C146  H46   S    
C210  O90   D    
C144  H44   S    
C92   O32   A    
C15   C31   S    
C100  C192  S    
C152  H59   S    
C21   C57   T    
C141  H35   S    
O46   Zn10  S    
C225  O105  D    
C98   C190  S    
C115  O35   A    
C72   C80   S    
C125  H9    S    
C187  H115  S    
O4    Zn12  S    
C137  H22   S    
O29   Zn5   S    
C106  C202  S    
C72   C88   S    
C35   C41   S    
C139  H29   S    
C25   C149  S    
C181  O77   D    
C224  H180  S    
C11   C231  S    
C129  C209  S    
C236  H198  S    
C140  H32   S    
C5    C125  S    
C75   H15   S    
C6    C122  S    
C2    O22   A    
C94   C174  S    
C86   C166  S    
C200  H140  S    
C200  O88   D    
C81   C85   S    
C48   O20   A    
C83   C87   S    
C191  H127  S    
C98   C110  S    
C8    C136  S    
C64   C80   S    
C74   C94   S    
C121  O49   A    
O10   Zn14  S    
C178  O74   D    
C174  H92   S    
O32   Zn8   S    
C45   O25   A    
C135  C136  S    
C67   C83   S    
C176  H99   S    
C193  H133  S    
C168  O72   D    
O48   Zn12  S    
C169  H77   S    
C13   C29   S    
C230  H186  S    
C16   C50   S    
C15   C227  S    
C113  O9    A    
C156  H64   S    
O40   Zn8   S    
C44   C144  S    
C76   H16   S    
C101  C109  S    
C179  H103  S    
O4    Zn8   S    
C18   C46   S    
C214  H170  S    
C153  H61   S    
C103  C111  S    
C232  H188  S    
C35   C147  S    
C203  H148  S    
C93   C173  S    
C38   C58   S    
C218  O98   D    
C197  O85   D    
C216  O96   D    
C72   C184  S    
C172  H87   S    
C7    C131  S    
C20   C56   T    
O15   Zn7   S    
C5    C129  S    
C28   C34   S    
C163  H71   S    
C175  H96   S    
C149  H49   S    
C224  O104  D    
C204  H151  S    
C91   O7    A    
C78   C114  S    
C89   O29   A    
C4    O24   A    
C125  C137  S    
O34   Zn10  S    
C89   O5    A    
C170  H81   S    
C198  O86   D    
C97   C98   S    
C169  H78   S    
C28   C152  S    
C132  C224  S    
C68   C84   S    
C70   C182  S    
C223  H179  S    
C101  C197  S    
C6    C126  S    
C222  O102  D    
C187  H117  S    
O39   Zn7   S    
C128  H12   S    
C82   C86   S    
O5    Zn1   S    
C33   C37   S    
C108  C112  S    
C109  C117  S    
C23   C59   T    
C199  H139  S    
C233  H189  S    
C26   C150  S    
C37   C49   S    
C65   C81   S    
C28   C32   S    
C158  H66   S    
C236  H200  S    
C39   C59   S    
C2    C21   S    
O1    Zn9   S    
C119  O47   A    
C212  O92   D    
O11   Zn15  S    
C20   C48   S    
C25   C35   S    
C71   C87   S    
C103  C215  S    
C211  O91   D    
C67   C163  S    
C100  C112  S    
C191  H129  S    
O3    Zn11  S    
C142  H37   S    
C133  C134  S    
C14   C226  S    
C235  H197  S    
C16   C32   S    
C127  C128  S    
C17   C53   T    
C174  H94   S    
C195  O83   D    
C112  C120  S    
C19   C55   T    
C208  H163  S    
C209  O89   D    
O17   Zn9   S    
C227  O107  D    
C8    C124  S    
O38   Zn6   S    
C177  H101  S    
C166  O70   D    
C49   C233  S    
O14   Zn6   S    
O6    Zn2   S    
C105  C106  S    
C124  O44   A    
C76   C172  S    
C189  H122  S    
C184  H108  S    
C167  H75   S    
C138  H25   S    
C229  O109  D    
C154  H62   S    
C100  C196  S    
C46   O26   A    
C134  H18   S    
C105  C109  S    
C134  C218  S    
C162  O66   D    
C131  C223  S    
C118  O38   A    
C180  O76   D    
C105  C201  S    
O20   Zn12  S    
C149  H51   S    
C103  C104  S    
C185  H110  S    
C133  C217  S    
C30   C42   S    
C69   H5    S    
C31   C55   S    
C32   C56   S    
O2    Zn2   S    
C63   C159  S    
C70   C78   S    
C62   C158  S    
C157  H65   S    
C35   C39   S    
C96   C176  S    
C3    O15   A    
C192  H130  S    
C126  H10   S    
C135  H19   S    
C219  H175  S    
C63   C79   S    
C161  H69   S    
C87   C187  S    
C151  H55   S    
C186  H113  S    
C209  H165  S    
C29   C53   S    
C133  H17   S    
C108  C208  S    
O42   Zn14  S    
C141  H33   S    
C233  H191  S    
C177  O73   D    
C41   C141  S    
C136  H20   S    
C74   C170  S    
O27   Zn3   S    
C140  H31   S    
C5    C121  S    
C102  C198  S    
O25   Zn1   S    
C221  H177  S    
C84   C96   S    
C1    O13   A    
C201  H142  S    
C3    O23   A    
C196  H136  S    
C206  H157  S    
C1    O21   A    
C165  O69   D    
C8    C132  S    
C220  O100  D    
C231  O111  D    
C150  H53   S    
C61   C153  S    
C190  H125  S    
C160  H68   S    
C213  H169  S    
O2    Zn10  S    
C202  H146  S    
C130  C210  S    
O9    Zn13  S    
C193  O81   D    
C63   C155  S    
C14   C30   S    
C117  O45   A    
C94   C178  S    
C188  H119  S    
C169  H79   S    
C114  O10   A    
C235  H196  S    
C205  H154  S    
O4    Zn4   S    
O31   Zn7   S    
C163  O67   D    
C158  O62   D    
O44   Zn16  S    
C36   C40   S    
C34   C44   S    
C208  H162  S    
C146  O54   D    
O35   Zn11  S    
C144  H43   S    
O7    Zn3   S    
C52   C236  S    
C43   C49   S    
C179  O75   D    
C152  H58   S    
C40   C52   S    
C98   C194  S    
C95   C175  S    
O23   Zn15  S    
C141  H34   S    
C183  O79   D    
C7    C135  S    
C220  H176  S    
C81   C93   S    
C99   C100  S    
O49   Zn1   S    
C24   C60   T    
C83   C95   S    
C229  H185  S    
C9    C37   S    
C150  H52   S    
C32   C44   S    
C123  O51   A    
C215  O95   D    
O2    Zn6   S    
C11   C39   S    
C139  H28   S    
C121  O41   A    
C181  H105  S    
C73   H13   S    
C226  O106  D    
C2    O14   A    
C202  H144  S    
C217  O97   D    
C151  H57   S    
C84   C89   S    
O36   Zn12  S    
C115  O11   A    
C70   C86   S    
C192  H132  S    
C104  C200  S    
C106  C110  S    
C171  H85   S    
C26   C36   S    
C83   C90   S    
C86   C186  S    
C137  H21   S    
C34   C38   S    
O19   Zn11  S    
C75   C171  S    
O22   Zn14  S    
C38   C50   S    
C50   C234  S    
C176  H98   S    
O1    Zn5   S    
C206  H158  S    
O47   Zn11  S    
O21   Zn13  S    
C207  H160  S    
C230  O110  D    
O45   Zn9   S    
C6    C134  S    
C156  O60   D    
C92   O8    A    
C125  C126  S    
C167  O71   D    
O3    Zn15  S    
O30   Zn6   S    
C194  O82   D    
C234  H194  S    
C214  O94   D    
C232  O112  D    
C203  H147  S    
C47   O19   A    
C102  C110  S    
C148  H48   S    
C18   C54   T    
O43   Zn15  S    
C173  H90   S    
C197  H137  S    
C171  H83   S    
C74   H14   S    
C64   C156  S    
C172  H86   S    
C140  H30   S    
C131  C132  S    
C127  H11   S    
