data_mof_unit_19919.cif
_audit_creation_date              2012-12-11T14:49:39-0500
_audit_creation_method            fapswitch 2.2
_symmetry_space_group_name_H-M    P1
_symmetry_Int_Tables_number       1
_space_group_crystal_system       monoclinic
_cell_length_a                    16.521148
_cell_length_b                    7.090287
_cell_length_c                    17.255176
_cell_angle_alpha                 90.0
_cell_angle_beta                  100.455648
_cell_angle_gamma                 90.0
_cell_volume                      1987.70406474

loop_
_atom_site_label
_atom_site_type_symbol
_atom_type_description
_atom_site_fract_x
_atom_site_fract_y
_atom_site_fract_z
_atom_type_partial_charge
O1    O     O_R   0.579510 0.506290 0.439030 -0.543946
O2    O     O_R   0.420490 0.006290 0.560970 -0.543946
O3    O     O_R   0.412540 0.170090 0.405290 -0.488081
O4    O     O_R   0.587460 0.670090 0.594710 -0.488081
C1    C     C_R   0.384886 0.346137 0.382500 0.946320
C2    C     C_R   0.615114 0.846137 0.617500 0.946320
O5    O     O_R   0.578390 0.176230 0.429330 -0.533566
O6    O     O_R   0.421610 0.676230 0.570670 -0.533566
O7    O     O_R   0.587530 0.011250 0.585190 -0.523367
O8    O     O_R   0.412470 0.511250 0.414810 -0.523367
C3    C     C_R   0.604737 0.345816 0.413528 0.852641
C4    C     C_R   0.395263 0.845816 0.586472 0.852641
O9    O     O_3   0.502800 0.340940 0.551110 -0.371824
O10   O     O_3   0.497200 0.840940 0.448890 -0.371824
V1    V     V_3+5 0.499480 0.064020 0.490520 1.843946
V2    V     V_3+5 0.500520 0.564020 0.509480 1.843946
C5    C     C_R   0.170004 0.906594 0.864133 -0.390878
C6    C     C_R   0.829996 0.406594 0.135867 -0.390878
C7    C     C_R   0.330545 0.860714 0.636574 -0.387451
C8    C     C_R   0.669454 0.360714 0.363426 -0.387451
C9    C     C_R   0.194005 0.968186 0.653828 0.779923
C10   C     C_R   0.805995 0.468186 0.346172 0.779923
C11   C     C_R   0.252985 0.939350 0.605950 0.209851
C12   C     C_R   0.747015 0.439350 0.394050 0.209851
C13   C     C_R   0.347900 0.811169 0.716858 0.712251
C14   C     C_R   0.652100 0.311169 0.283141 0.712251
C15   C     C_R   0.289130 0.843397 0.766306 -0.362362
C16   C     C_R   0.710870 0.343397 0.233694 -0.362362
C17   C     C_R   0.211225 0.922301 0.734411 -0.361604
C18   C     C_R   0.788775 0.422301 0.265589 -0.361604
C19   C     C_R   0.152172 0.953036 0.783615 0.706859
C20   C     C_R   0.847828 0.453036 0.216385 0.706859
C21   C     C_R   0.248341 0.833069 0.895418 0.207276
C22   C     C_R   0.751659 0.333069 0.104582 0.207276
C23   C     C_R   0.306896 0.801071 0.847288 0.781907
C24   C     C_R   0.693103 0.301071 0.152712 0.781907
C25   C     C_3   0.739773 0.779843 0.834159 0.416064
C26   C     C_3   0.260227 0.279843 0.165841 0.416063
C27   C     C_3   0.662750 0.780071 0.764868 1.072579
C28   C     C_3   0.337250 0.280071 0.235132 1.072579
C29   C     C_3   0.842531 0.816900 0.737323 0.700921
C30   C     C_3   0.157469 0.316900 0.262676 0.700919
C31   C     C_3   0.773981 0.100210 0.784208 1.075142
C32   C     C_3   0.226019 0.600210 0.215792 1.075142
C33   C     C_3   0.812382 0.904774 0.811681 -0.787517
C34   C     C_3   0.187618 0.404774 0.188319 -0.787517
C35   C     C_3   0.686519 0.866456 0.688556 -0.802077
C36   C     C_3   0.313481 0.366456 0.311444 -0.802077
C37   C     C_3   0.766111 0.764551 0.672829 0.979890
C38   C     C_3   0.233888 0.264551 0.327171 0.979890
C39   C     C_3   0.708952 0.080907 0.706795 0.703402
C40   C     C_3   0.291048 0.580907 0.293205 0.703402
O11   O     O_R   0.087500 0.266000 0.085220 -0.536286
O12   O     O_R   0.912500 0.766000 0.914780 -0.536286
O13   O     O_R   0.921600 0.589950 0.070670 -0.530702
O14   O     O_R   0.078400 0.089950 0.929330 -0.530702
C41   C     C_R   0.894759 0.421060 0.085959 0.860077
C42   C     C_R   0.105241 0.921060 0.914041 0.860077
O15   O     O_R   0.087460 0.596020 0.094710 -0.490113
O16   O     O_R   0.912540 0.096020 0.905290 -0.490113
O17   O     O_R   0.079520 0.760970 0.939020 -0.544408
O18   O     O_R   0.920480 0.260970 0.060980 -0.544407
C43   C     C_R   0.115838 0.425561 0.117859 0.955686
C44   C     C_R   0.884162 0.925561 0.882141 0.955686
O19   O     O_3   0.997180 0.425140 0.948910 -0.372658
O20   O     O_3   0.002820 0.925140 0.051090 -0.372658
V3    V     V_3+5 0.000520 0.702080 0.009480 1.811776
V4    V     V_3+5 0.999480 0.202080 0.990520 1.811776
F1    F     F_    0.076525 0.023520 0.753383 -0.519316
F2    F     F_    0.923475 0.523520 0.246617 -0.519316
F3    F     F_    0.632267 0.598651 0.750009 -0.480956
F4    F     F_    0.367733 0.098651 0.249990 -0.480956
Cl1   Cl    Cl    0.911234 0.618734 0.757536 -0.263522
Cl2   Cl    Cl    0.088766 0.118734 0.242464 -0.263522
F5    F     F_    0.753063 0.572333 0.672215 -0.518436
F6    F     F_    0.246937 0.072333 0.327785 -0.518436
F7    F     F_    0.834905 0.227130 0.773597 -0.499052
F8    F     F_    0.165095 0.727131 0.226403 -0.499053
F9    F     F_    0.735404 0.171808 0.842218 -0.499368
F10   F     F_    0.264596 0.671808 0.157782 -0.499368
F11   F     F_    0.639120 0.181522 0.715948 -0.488037
F12   F     F_    0.360880 0.681522 0.284051 -0.488037
Cl3   Cl    Cl    0.745721 0.189324 0.625445 -0.257241
Cl4   Cl    Cl    0.254279 0.689324 0.374555 -0.257241
F13   F     F_    0.889343 0.950130 0.706368 -0.487212
F14   F     F_    0.110657 0.450131 0.293632 -0.487211
F15   F     F_    0.781959 0.813087 0.599343 -0.526115
F16   F     F_    0.218041 0.313086 0.400657 -0.526115
Cl5   Cl    Cl    0.276565 0.785586 0.996281 -0.263580
Cl6   Cl    Cl    0.723435 0.285586 0.003719 -0.263580
F17   F     F_    0.120037 0.043384 0.621021 -0.466567
F18   F     F_    0.879963 0.543384 0.378978 -0.466567
F19   F     F_    0.381397 0.729185 0.880463 -0.466534
F20   F     F_    0.618603 0.229185 0.119537 -0.466534
Cl7   Cl    Cl    0.226619 0.001456 0.506449 -0.265772
Cl8   Cl    Cl    0.773381 0.501456 0.493551 -0.265772
F21   F     F_    0.423011 0.737499 0.746782 -0.518321
F22   F     F_    0.576989 0.237499 0.253218 -0.518321
Cl9   Cl    Cl    0.773074 0.544960 0.856692 -0.295981
Cl10  Cl    Cl    0.226926 0.044960 0.143308 -0.295981
Cl11  Cl    Cl    0.710309 0.852761 0.924975 -0.278948
Cl12  Cl    Cl    0.289691 0.352761 0.075025 -0.278948
F23   F     F_    0.599049 0.885008 0.785598 -0.494710
F24   F     F_    0.400951 0.385008 0.214402 -0.494710

loop_
_geom_bond_atom_site_label_1
_geom_bond_atom_site_label_2
_ccdc_geom_bond_type
O20   V4    S    
C15   C17   A    
C37   F15   S    
O1    C3    A    
O2    C4    A    
C2    O7    A    
C41   O18   A    
C35   C37   S    
O5    C3    A    
O12   C44   A    
C21   Cl5   S    
C12   Cl8   S    
C31   F9    S    
C30   C34   S    
C40   Cl4   S    
O11   V4    S    
C25   Cl11  S    
O15   V3    S    
C8    C12   A    
O14   C42   A    
O19   V3    S    
C37   F5    S    
C30   F14   S    
C18   C20   A    
C10   C18   A    
C39   F11   S    
C38   F16   S    
C5    C42   S    
C26   Cl12  S    
C32   C40   S    
C42   O17   A    
C36   C38   S    
O20   V3    S    
O6    V2    S    
C5    C21   A    
C29   C37   S    
C32   C34   S    
C23   F19   S    
C9    C11   A    
C1    C36   S    
C3    C8    S    
C30   Cl2   S    
C2    C35   S    
C32   F10   S    
C26   Cl10  S    
C20   F2    S    
O12   V3    S    
C15   C23   A    
O14   V4    S    
C9    C17   A    
O4    V2    S    
C7    C11   A    
C22   Cl6   S    
C38   F6    S    
C28   F24   S    
C6    C22   A    
O17   V3    S    
C6    C41   S    
O13   V3    S    
C19   F1    S    
O6    C4    A    
O19   V4    S    
O5    V1    S    
O1    V2    S    
C29   C33   S    
C40   F12   S    
O2    V1    S    
C31   C33   S    
O16   V4    S    
C14   F22   S    
C13   F21   S    
C30   C38   S    
O13   C41   A    
C13   C15   A    
C5    C19   A    
C10   C12   A    
O4    C2    A    
C6    C20   A    
C25   C33   S    
C39   Cl3   S    
C25   Cl9   S    
O3    V1    S    
C27   C35   S    
C9    F17   S    
C28   C36   S    
C10   F18   S    
C28   F4    S    
O15   C43   A    
O3    C1    A    
C35   C39   S    
C27   F23   S    
C31   F7    S    
C29   F13   S    
C33   C44   S    
C14   C16   A    
O18   V4    S    
C34   C43   S    
O16   C44   A    
C32   F8    S    
O7    V1    S    
C1    O8    A    
C25   C27   S    
O8    V2    S    
C26   C28   S    
O11   C43   A    
C31   C39   S    
C8    C14   A    
C4    C7    S    
C16   C18   A    
C21   C23   A    
C11   Cl7   S    
C22   C24   A    
C7    C13   A    
C26   C34   S    
C29   Cl1   S    
C24   F20   S    
C36   C40   S    
C16   C24   A    
C17   C19   A    
O9    V2    S    
C27   F3    S    
O10   V1    S    
