data_mof_unit_21881.cif
_audit_creation_date              2012-12-10T18:11:38-0500
_audit_creation_method            fapswitch 2.2
_symmetry_space_group_name_H-M    P1
_symmetry_Int_Tables_number       1
_space_group_crystal_system       triclinic
_cell_length_a                    10.583702
_cell_length_b                    12.651182
_cell_length_c                    12.952744
_cell_angle_alpha                 81.710649
_cell_angle_beta                  90.122036
_cell_angle_gamma                 102.330108
_cell_volume                      1675.88214931

loop_
_atom_site_label
_atom_site_type_symbol
_atom_type_description
_atom_site_fract_x
_atom_site_fract_y
_atom_site_fract_z
_atom_type_partial_charge
C1    C     C_R   0.474029 0.438618 0.692507 0.901020
C2    C     C_3   0.061066 0.586999 0.537887 -0.176126
C3    C     C_3   0.955238 0.492763 0.592719 0.154503
C4    C     C_3   0.875963 0.499091 0.494692 -0.104849
C5    C     C_R   0.611892 0.731177 0.048831 0.161728
C6    C     C_R   0.582494 0.595848 0.202142 -0.182713
C7    C     C_R   0.411011 0.287927 0.849293 0.135788
C8    C     C_R   0.420447 0.258852 0.957849 0.237454
C9    C     C_R   0.463014 0.339768 0.020019 -0.237925
C10   C     C_R   0.490767 0.451592 0.977824 0.038520
C11   C     C_R   0.457159 0.480119 0.874650 -0.044213
C12   C     C_R   0.741754 0.500666 0.497684 0.905469
C13   C     C_R   0.540058 0.536480 0.036880 0.020098
C14   C     C_R   0.542967 0.647637 0.994615 -0.033292
C15   C     C_R   0.470744 0.669190 0.905271 0.116126
C16   C     C_R   0.424138 0.583152 0.847730 0.188859
C17   C     C_R   0.582312 0.515623 0.138906 0.099495
C18   C     C_R   0.628385 0.704852 0.156806 0.096172
C19   C     C_R   0.443020 0.400702 0.805949 -0.146189
C20   C     C_R   0.246793 0.075662 0.442680 0.110431
C21   C     C_R   0.669573 0.806046 0.618458 0.296154
C22   C     C_R   0.696286 0.907778 0.652187 -0.236006
C23   C     C_R   0.535047 0.560455 0.310488 0.894521
C24   C     C_R   0.622578 0.983586 0.622969 0.157885
C25   C     C_R   0.522007 0.960064 0.552360 -0.064392
C26   C     C_R   0.492707 0.853491 0.521206 0.106395
C27   C     C_R   0.449796 0.037620 0.509399 -0.067374
C28   C     C_R   0.323908 0.998980 0.473371 0.057817
C29   C     C_R   0.290414 0.890050 0.451034 0.138271
C30   C     C_R   0.390063 0.832152 0.451872 0.186584
C31   C     C_R   0.501274 0.151607 0.493898 -0.036351
C32   C     C_R   0.309645 0.185218 0.413131 0.323845
C33   C     C_R   0.257838 0.500186 0.498326 0.927382
C34   C     C_3   0.936465 0.412954 0.452452 0.157928
C35   C     C_3   0.017106 0.406794 0.551739 0.149526
C36   C     C_3   0.122145 0.500516 0.496398 -0.111134
C37   C     C_3   0.042728 0.506841 0.397924 0.134720
C38   C     C_3   0.979595 0.592640 0.438485 -0.261635
H1    H     H_    0.465717 0.313403 0.102634 0.181834
H2    H     H_    0.598040 0.185408 0.514713 0.202195
H3    H     H_    0.774965 0.928046 0.704502 0.207205
H4    H     H_    0.955636 0.665530 0.390881 0.191067
H5    H     H_    0.112024 0.659934 0.571104 0.199812
N1    N     N_R   0.432930 0.222190 0.444670 -0.132063
N2    N     N_R   0.566370 0.776980 0.554790 -0.104660
O1    O     O_R   0.467970 0.366730 0.627150 -0.596663
O2    O     O_R   0.510820 0.544830 0.662520 -0.606304
O3    O     O_R   0.664630 0.410960 0.482340 -0.598382
O4    O     O_R   0.707470 0.589060 0.517710 -0.620441
O5    O     O_R   0.489180 0.455170 0.337480 -0.622556
O6    O     O_R   0.532030 0.633270 0.372850 -0.610531
O7    O     O_R   0.292530 0.410940 0.482290 -0.609170
O8    O     O_R   0.335370 0.589040 0.517660 -0.595293
Zn1   Zn    Zn3+2 0.471390 0.381080 0.476380 0.956610
Zn2   Zn    Zn3+2 0.528610 0.618920 0.523620 0.960974
I1    I     I_    0.038853 0.258754 0.645043 -0.341130
C39   C     C_3   0.661678 0.430496 0.171892 -0.783014
H6    H     H_    0.749278 0.467734 0.212128 0.243416
H7    H     H_    0.605898 0.360591 0.226526 0.263058
H8    H     H_    0.696640 0.400071 0.103411 0.248946
C40   C     C_3   0.355076 0.201524 0.782874 -0.729115
H9    H     H_    0.305895 0.122931 0.828686 0.256335
H10   H     H_    0.281397 0.229964 0.732322 0.258051
H11   H     H_    0.430719 0.185634 0.732883 0.264046
I2    I     I_    0.381945 0.094559 0.035891 -0.345359
I3    I     I_    0.259626 0.590295 0.754442 -0.414294
C41   C     C_3   0.241112 0.257748 0.341332 -0.797723
H12   H     H_    0.306774 0.332668 0.304098 0.259854
H13   H     H_    0.199902 0.214141 0.276287 0.229656
H14   H     H_    0.160644 0.278528 0.383158 0.260249
C42   C     C_3   0.168324 0.847564 0.394755 -0.880328
H15   H     H_    0.159131 0.904803 0.323157 0.270549
H16   H     H_    0.169490 0.768183 0.368943 0.247260
H17   H     H_    0.082137 0.832093 0.447391 0.241379
C43   C     C_3   0.100294 0.046597 0.451666 -0.819933
H18   H     H_    0.066401 0.976953 0.514610 0.245778
H19   H     H_    0.062501 0.114500 0.476214 0.274040
H20   H     H_    0.057189 0.030277 0.375931 0.264418
C44   C     C_3   0.761157 0.733578 0.655403 -0.784321
H21   H     H_    0.822227 0.764112 0.719305 0.203567
H22   H     H_    0.709826 0.651073 0.689483 0.266674
H23   H     H_    0.830216 0.733882 0.591093 0.245888
I4    I     I_    0.848122 0.275370 0.378571 -0.380394
I5    I     I_    0.663960 0.116352 0.711194 -0.324557
C45   C     C_3   0.418978 0.804783 0.346589 -0.746764
H24   H     H_    0.391376 0.863460 0.282519 0.234435
H25   H     H_    0.523953 0.816127 0.334597 0.271419
H26   H     H_    0.363155 0.722430 0.336678 0.238742
C46   C     C_3   0.094914 0.519282 0.286456 -0.853451
H27   H     H_    0.015479 0.525254 0.231325 0.262964
H28   H     H_    0.172143 0.594576 0.269972 0.226256
H29   H     H_    0.135274 0.447732 0.275398 0.250839
C47   C     C_3   0.902494 0.482442 0.703896 -0.800173
H30   H     H_    0.973653 0.457819 0.760195 0.282145
H31   H     H_    0.884634 0.561940 0.718873 0.232588
H32   H     H_    0.810940 0.419484 0.715489 0.246236
I6    I     I_    0.760245 0.811066 0.241345 -0.333032
C48   C     C_3   0.424611 0.775393 0.880709 -0.759149
H33   H     H_    0.317654 0.759394 0.878433 0.251488
H34   H     H_    0.447579 0.828705 0.941753 0.262473
H35   H     H_    0.466669 0.820376 0.804345 0.257060
I7    I     I_    0.716553 0.883208 0.965390 -0.265197

loop_
_geom_bond_atom_site_label_1
_geom_bond_atom_site_label_2
_ccdc_geom_bond_type
C47   H30   S    
C34   C37   S    
C35   C36   S    
C12   O3    A    
C12   O4    A    
C7    C8    A    
C45   H24   S    
C33   O7    A    
O3    Zn1   S    
C11   C19   A    
O5    Zn1   S    
C36   C37   S    
C37   C38   S    
C38   H4    S    
C1    O1    A    
C39   H7    S    
C22   H3    S    
C15   C16   A    
C9    H1    S    
C33   C36   S    
C31   H2    S    
C34   C35   S    
C40   H10   S    
C7    C40   S    
C26   N2    A    
C8    C9    A    
C18   I6    S    
C13   C14   A    
C46   H28   S    
C9    C10   A    
O8    Zn2   S    
C8    I2    S    
C47   H31   S    
C21   C22   A    
O1    Zn1   S    
C43   H20   S    
O7    Zn1   S    
C21   N2    A    
C45   H25   S    
C33   O8    A    
C6    C18   A    
C4    C34   S    
C1    C19   S    
C31   N1    A    
C27   C31   A    
C41   H12   S    
C24   C25   A    
C42   H16   S    
C1    O2    A    
C23   O5    A    
C5    C18   A    
C20   C28   A    
C25   C26   A    
O4    Zn2   S    
C20   C43   S    
C41   H13   S    
C40   H11   S    
C43   H18   S    
C29   C30   A    
C42   H17   S    
C11   C16   A    
C2    C38   S    
C23   O6    A    
C3    C35   S    
C2    H5    S    
C21   C44   S    
C32   N1    A    
C3    C47   S    
C46   H29   S    
C43   H19   S    
C5    C14   A    
C32   C41   S    
C4    C38   S    
C26   C30   A    
C47   H32   S    
C7    C19   A    
C22   C24   A    
C16   I3    S    
C34   I4    S    
C15   C48   S    
C3    C4    S    
O2    Zn2   S    
C20   C32   A    
C45   H26   S    
C2    C36   S    
C6    C17   A    
C5    I7    S    
C28   C29   A    
C35   I1    S    
C39   H8    S    
C10   C13   A    
C44   H23   S    
C37   C46   S    
C25   C27   A    
C48   H35   S    
C44   H22   S    
C13   C17   A    
C41   H14   S    
C2    C3    S    
C24   I5    S    
C42   H15   S    
C39   H6    S    
C6    C23   S    
O6    Zn2   S    
C40   H9    S    
C48   H34   S    
C30   C45   S    
C10   C11   A    
C44   H21   S    
N1    Zn1   S    
N2    Zn2   S    
C48   H33   S    
C27   C28   A    
C14   C15   A    
C46   H27   S    
C4    C12   S    
C17   C39   S    
C29   C42   S    
