data_mof_unit_62626.cif
_audit_creation_date              2012-12-11T15:43:25-0500
_audit_creation_method            fapswitch 2.2
_symmetry_space_group_name_H-M    P1
_symmetry_Int_Tables_number       1
_space_group_crystal_system       monoclinic
_cell_length_a                    28.138545
_cell_length_b                    22.022743
_cell_length_c                    20.157864
_cell_angle_alpha                 90.0
_cell_angle_beta                  50.030279
_cell_angle_gamma                 90.0
_cell_volume                      9573.35148298

loop_
_atom_site_label
_atom_site_type_symbol
_atom_type_description
_atom_site_fract_x
_atom_site_fract_y
_atom_site_fract_z
_atom_type_partial_charge
C1    C     C_R   0.906188 0.574151 0.745307 -0.128920
C2    C     C_1   0.796060 0.362560 0.536844 -0.052741
C3    C     C_1   0.869046 0.681587 0.421231 -0.058259
C4    C     C_1   0.130954 0.318413 0.578769 -0.058259
C5    C     C_1   0.630954 0.181587 0.578769 -0.058259
C6    C     C_1   0.369047 0.818413 0.421229 -0.058259
C7    C     C_1   0.296059 0.137440 0.536844 -0.052741
C8    C     C_1   0.703940 0.862559 0.463156 -0.052741
C9    C     C_2   0.304270 0.686626 0.422114 -0.166136
C10   C     C_2   0.695729 0.313374 0.577889 -0.166135
C11   C     C_2   0.821420 0.760266 0.381386 -0.165855
C12   C     C_R   0.093812 0.425849 0.254693 -0.128920
C13   C     C_2   0.178580 0.239734 0.618614 -0.165855
C14   C     C_2   0.678580 0.260266 0.618614 -0.165855
C15   C     C_2   0.321422 0.739732 0.381385 -0.165856
C16   C     C_2   0.195729 0.186626 0.577889 -0.166134
C17   C     C_2   0.804271 0.813374 0.422111 -0.166135
C18   C     C_1   0.748692 0.342421 0.557925 0.041827
C19   C     C_1   0.251307 0.657580 0.442077 0.041827
C20   C     C_1   0.150127 0.282543 0.600987 0.040742
C21   C     C_1   0.849873 0.717457 0.399013 0.040742
C22   C     C_1   0.349875 0.782542 0.399012 0.040742
C23   C     C_R   0.090202 0.575788 0.255695 -0.127707
C24   C     C_1   0.650127 0.217457 0.600987 0.040742
C25   C     C_1   0.751308 0.842421 0.442075 0.041827
C26   C     C_1   0.248692 0.157579 0.557925 0.041827
C27   C     C_R   0.884669 0.434332 0.456604 -0.128567
C28   C     C_R   0.115330 0.565668 0.543397 -0.128567
C29   C     C_R   0.093396 0.419893 0.578783 -0.138430
C30   C     C_R   0.906604 0.580107 0.421217 -0.138430
C31   C     C_R   0.406604 0.919892 0.421216 -0.138430
C32   C     C_R   0.593396 0.080107 0.578783 -0.138430
C33   C     C_R   0.615331 0.934332 0.543396 -0.128568
C34   C     C_R   0.909798 0.424212 0.744305 -0.127707
C35   C     C_R   0.384669 0.065668 0.456604 -0.128567
C36   C     C_R   0.909076 0.651601 0.496612 -0.128296
C37   C     C_R   0.090924 0.348399 0.503388 -0.128295
C38   C     C_R   0.112396 0.638291 0.468889 -0.126136
C39   C     C_R   0.887604 0.361709 0.531111 -0.126136
C40   C     C_R   0.387604 0.138290 0.531111 -0.126135
C41   C     C_R   0.612396 0.861709 0.468889 -0.126135
C42   C     C_R   0.590924 0.151601 0.503388 -0.128295
C43   C     C_R   0.409076 0.848399 0.496612 -0.128295
C44   C     C_R   0.907937 0.351469 0.669431 -0.136364
C45   C     C_R   0.409798 0.075788 0.744305 -0.127707
C46   C     C_R   0.092063 0.648530 0.330569 -0.136364
C47   C     C_R   0.097108 0.354065 0.329848 -0.128838
C48   C     C_R   0.902892 0.645935 0.670152 -0.128838
C49   C     C_R   0.402892 0.854065 0.670152 -0.128838
C50   C     C_R   0.597108 0.145935 0.329848 -0.128838
C51   C     C_R   0.592063 0.851469 0.330569 -0.136364
C52   C     C_R   0.407937 0.148530 0.669431 -0.136364
C53   C     C_R   0.878522 0.629001 0.752894 0.092644
C54   C     C_R   0.121478 0.370999 0.247106 0.092644
C55   C     C_R   0.114975 0.632299 0.248388 0.095517
C56   C     C_R   0.590202 0.924212 0.255695 -0.127707
C57   C     C_R   0.885025 0.367701 0.751612 0.095517
C58   C     C_R   0.385025 0.132299 0.751612 0.095517
C59   C     C_R   0.614975 0.867701 0.248388 0.095517
C60   C     C_R   0.621478 0.129001 0.247106 0.092644
C61   C     C_R   0.378522 0.870999 0.752894 0.092644
C62   C     C_R   0.853619 0.384700 0.509052 0.089140
C63   C     C_R   0.146381 0.615301 0.490949 0.089140
C64   C     C_R   0.110837 0.361348 0.549036 0.095334
C65   C     C_R   0.889163 0.638652 0.450964 0.095334
C66   C     C_R   0.389163 0.861348 0.450963 0.095333
C67   C     C_R   0.593812 0.074151 0.254693 -0.128920
C68   C     C_R   0.610837 0.138652 0.549036 0.095334
C69   C     C_R   0.646381 0.884699 0.490948 0.089140
C70   C     C_R   0.353619 0.115300 0.509052 0.089139
C71   C     C_1   0.846714 0.330528 0.828223 -0.051421
C72   C     C_1   0.153286 0.669472 0.171777 -0.051421
C73   C     C_1   0.163040 0.335293 0.169626 -0.050111
C74   C     C_1   0.836959 0.664707 0.830373 -0.050111
C75   C     C_1   0.336959 0.835293 0.830373 -0.050111
C76   C     C_1   0.663040 0.164707 0.169626 -0.050111
C77   C     C_1   0.653286 0.830528 0.171777 -0.051421
C78   C     C_R   0.406188 0.925849 0.745307 -0.128920
C79   C     C_1   0.346714 0.169472 0.828223 -0.051421
C80   C     C_1   0.813462 0.299233 0.892097 0.000681
C81   C     C_1   0.186538 0.700767 0.107903 0.000681
C82   C     C_1   0.198016 0.304808 0.105321 0.000672
C83   C     C_1   0.801984 0.695192 0.894679 0.000672
C84   C     C_1   0.301984 0.804808 0.894679 0.000672
C85   C     C_1   0.698016 0.195192 0.105321 0.000672
C86   C     C_1   0.686538 0.799233 0.107903 0.000681
C87   C     C_1   0.313462 0.200767 0.892097 0.000681
C88   C     C_1   0.773525 0.262550 0.966750 -0.008003
C89   C     C_1   0.203940 0.637441 0.463158 -0.052741
C90   C     C_1   0.226475 0.737450 0.033250 -0.008003
C91   C     C_1   0.238934 0.268596 0.030432 -0.008052
C92   C     C_1   0.761066 0.731404 0.969568 -0.008052
C93   C     C_1   0.261066 0.768595 0.969568 -0.008052
C94   C     C_1   0.738934 0.231404 0.030432 -0.008052
C95   C     C_1   0.726475 0.762550 0.033250 -0.008003
C96   C     C_1   0.273525 0.237450 0.966750 -0.008003
H1    H     H_    0.901955 0.551007 0.796112 0.097255
H2    H     H_    0.128734 0.537653 0.572911 0.101741
H3    H     H_    0.092301 0.440644 0.628381 0.096005
H4    H     H_    0.907699 0.559356 0.371619 0.096004
H5    H     H_    0.407699 0.940643 0.371618 0.096005
H6    H     H_    0.592301 0.059356 0.628381 0.096005
H7    H     H_    0.628735 0.962347 0.572910 0.101742
H8    H     H_    0.371265 0.037653 0.427090 0.101741
H9    H     H_    0.904451 0.307188 0.649818 0.095349
H10   H     H_    0.095549 0.692812 0.350182 0.095349
H11   H     H_    0.104533 0.311649 0.348993 0.099362
H12   H     H_    0.098045 0.448993 0.203888 0.097255
H13   H     H_    0.895467 0.688351 0.651007 0.099362
H14   H     H_    0.395467 0.811649 0.651007 0.099362
H15   H     H_    0.604533 0.188351 0.348993 0.099362
H16   H     H_    0.595549 0.807188 0.350182 0.095349
H17   H     H_    0.404451 0.192812 0.649818 0.095349
H18   H     H_    0.302491 0.755870 0.351578 0.137399
H19   H     H_    0.697513 0.244127 0.648417 0.137399
H20   H     H_    0.820309 0.827870 0.456357 0.136763
H21   H     H_    0.179691 0.172130 0.543644 0.136763
H22   H     H_    0.679691 0.327869 0.543644 0.136763
H23   H     H_    0.092875 0.552805 0.206055 0.095534
H24   H     H_    0.320306 0.672132 0.456363 0.136764
H25   H     H_    0.197514 0.255873 0.648417 0.137399
H26   H     H_    0.802487 0.744127 0.351582 0.137399
H27   H     H_    0.911732 0.696094 0.516766 0.094722
H28   H     H_    0.088268 0.303906 0.483234 0.094721
H29   H     H_    0.123280 0.678102 0.430290 0.098613
H30   H     H_    0.876720 0.321899 0.569711 0.098613
H31   H     H_    0.376720 0.178101 0.569711 0.098613
H32   H     H_    0.623280 0.821899 0.430289 0.098613
H33   H     H_    0.588268 0.196094 0.483234 0.094721
H34   H     H_    0.907125 0.447195 0.793945 0.095533
H35   H     H_    0.411733 0.803906 0.516765 0.094721
H36   H     H_    0.407125 0.052805 0.793945 0.095533
H37   H     H_    0.592875 0.947195 0.206055 0.095533
H38   H     H_    0.598045 0.051007 0.203888 0.097255
H39   H     H_    0.401955 0.948993 0.796112 0.097255
H40   H     H_    0.871265 0.462347 0.427090 0.101741
N1    N     N_R   0.944140 0.557460 0.661350 -0.042394
N2    N     N_R   0.065270 0.557830 0.550080 -0.042757
N3    N     N_R   0.065270 0.442170 0.550080 -0.040493
N4    N     N_R   0.934730 0.557830 0.449920 -0.040493
N5    N     N_R   0.434730 0.942170 0.449920 -0.040493
N6    N     N_R   0.565270 0.057830 0.550080 -0.040493
N7    N     N_R   0.565270 0.942170 0.550080 -0.042757
N8    N     N_R   0.434730 0.057830 0.449920 -0.042757
N9    N     N_R   0.936760 0.601610 0.495600 -0.040273
N10   N     N_R   0.063240 0.398390 0.504400 -0.040273
N11   N     N_R   0.063240 0.601610 0.504400 -0.042245
N12   N     N_R   0.055860 0.442540 0.338650 -0.042394
N13   N     N_R   0.936760 0.398390 0.495600 -0.042245
N14   N     N_R   0.436760 0.101610 0.495600 -0.042246
N15   N     N_R   0.563240 0.898390 0.504400 -0.042245
N16   N     N_R   0.563240 0.101610 0.504400 -0.040273
N17   N     N_R   0.436760 0.898390 0.495600 -0.040273
N18   N     N_R   0.942110 0.398020 0.615670 -0.040333
N19   N     N_R   0.057890 0.601980 0.384330 -0.040333
N20   N     N_R   0.057890 0.398020 0.384330 -0.042422
N21   N     N_R   0.942110 0.601980 0.615670 -0.042422
N22   N     N_R   0.442110 0.898020 0.615670 -0.042422
N23   N     N_R   0.055860 0.557460 0.338650 -0.040742
N24   N     N_R   0.557890 0.101980 0.384330 -0.042422
N25   N     N_R   0.557890 0.898020 0.384330 -0.040333
N26   N     N_R   0.442110 0.101980 0.615670 -0.040333
N27   N     N_R   0.944140 0.442540 0.661350 -0.040742
N28   N     N_R   0.444140 0.057460 0.661350 -0.040742
N29   N     N_R   0.555860 0.942540 0.338650 -0.040742
N30   N     N_R   0.555860 0.057460 0.338650 -0.042394
N31   N     N_R   0.444140 0.942540 0.661350 -0.042394
N32   N     N_R   0.934730 0.442170 0.449920 -0.042757
Ni1   Ni    Ni4+2 0.004540 0.500000 0.604760 0.213038
Ni2   Ni    Ni4+2 0.995460 0.500000 0.395240 0.213038
Ni3   Ni    Ni4+2 0.504540 1.000000 0.604760 0.213038
Ni4   Ni    Ni4+2 0.495460 0.000000 0.395240 0.213038
Ni5   Ni    Ni4+2 0.000000 0.600690 0.500000 0.213154
Ni6   Ni    Ni4+2 0.000000 0.399310 0.500000 0.213154
Ni7   Ni    Ni4+2 0.500000 0.100690 0.500000 0.213154
Ni8   Ni    Ni4+2 0.500000 0.899310 0.500000 0.213154

loop_
_geom_bond_atom_site_label_1
_geom_bond_atom_site_label_2
_ccdc_geom_bond_type
C31   C66   A    
N3    N10   A    
N30   Ni4   S    
C51   H16   S    
N23   Ni2   S    
C2    C18   T    
C53   C74   S    
C74   C83   T    
C38   H29   S    
C7    C70   S    
C79   C87   T    
C56   H37   S    
C44   H9    S    
C61   C75   S    
C83   C92   S    
N17   Ni8   S    
N20   Ni6   S    
C78   N31   A    
C7    C26   T    
C40   C70   A    
C19   C89   T    
C27   H40   S    
C31   H5    S    
C45   N28   A    
C23   H23   S    
C75   C84   T    
C47   N20   A    
N6    N16   A    
C14   H19   S    
C6    C22   T    
C30   H4    S    
N13   Ni6   S    
C14   C24   S    
C1    C53   A    
N8    N14   A    
C91   C96   T    
N16   Ni7   S    
C9    C19   S    
C15   C22   S    
C60   C67   A    
C48   H13   S    
C23   N23   A    
C46   C55   A    
C34   C57   A    
N12   Ni2   S    
C51   N25   A    
N24   N30   A    
C37   N10   A    
C42   N16   A    
C78   H39   S    
N2    N11   A    
C32   N6    A    
C55   C72   S    
C33   C69   A    
C27   N32   A    
C32   C68   A    
N19   Ni5   S    
N29   Ni4   S    
N32   Ni2   S    
N14   Ni7   S    
C29   C64   A    
C39   H30   S    
N2    Ni1   S    
C42   C68   A    
C8    C25   T    
C41   H32   S    
C46   N19   A    
C3    C65   S    
N13   N32   A    
C5    C68   S    
C71   C80   T    
N22   N31   A    
N26   N28   A    
C16   C26   S    
C48   C53   A    
C29   N3    A    
C88   C94   T    
C45   C58   A    
C30   N4    A    
N18   Ni6   S    
N19   N23   A    
N18   N27   A    
C67   H38   S    
C28   N2    A    
C35   C70   A    
C35   H8    S    
C10   C14   D    
C1    H1    S    
C12   H12   S    
N25   Ni8   S    
C29   H3    S    
C36   C65   A    
N31   Ni3   S    
N26   Ni7   S    
C50   N24   A    
C52   H17   S    
C40   H31   S    
C60   C76   S    
N5    Ni4   S    
C33   N7    A    
C82   C91   S    
C56   N29   A    
C10   H22   S    
C27   C62   A    
C37   H28   S    
C13   H25   S    
C85   C94   S    
C54   C73   S    
C61   C78   A    
C87   C96   S    
C36   H27   S    
C8    C69   S    
C15   H18   S    
C40   N14   A    
C57   C71   S    
C52   C58   A    
C58   C79   S    
C47   C54   A    
C81   C90   S    
C67   N30   A    
N22   Ni8   S    
C31   N5    A    
N9    Ni5   S    
C77   C86   T    
C34   N27   A    
C47   H11   S    
N24   Ni7   S    
C32   H6    S    
C49   N22   A    
C3    C21   T    
C11   H26   S    
C51   C59   A    
C73   C82   T    
C37   C64   A    
C1    N1    A    
C90   C93   T    
C41   C69   A    
C38   C63   A    
C28   H2    S    
C39   C62   A    
C4    C64   S    
C11   C17   D    
N4    Ni2   S    
N15   Ni8   S    
C13   C20   S    
C33   H7    S    
N1    Ni1   S    
C72   C81   T    
C17   C25   S    
N4    N9    A    
N11   Ni5   S    
C23   C55   A    
C41   N15   A    
C48   N21   A    
N8    Ni4   S    
C39   N13   A    
C84   C93   S    
C56   C59   A    
N1    N21   A    
C50   C60   A    
C59   C77   S    
C12   N12   A    
C43   H35   S    
C9    C15   D    
C44   N18   A    
C80   C88   S    
C16   H21   S    
C35   N8    A    
C49   C61   A    
N5    N17   A    
C5    C24   T    
C10   C18   S    
C43   C66   A    
N10   Ni6   S    
N7    N15   A    
C50   H15   S    
C11   C21   S    
N3    Ni1   S    
C42   H33   S    
C63   C89   S    
C92   C95   T    
N27   Ni1   S    
C12   C54   A    
C38   N11   A    
C30   C65   A    
C86   C95   S    
C46   H10   S    
N7    Ni3   S    
C4    C20   T    
C28   C63   A    
C36   N9    A    
C6    C66   S    
C34   H34   S    
C45   H36   S    
C13   C16   D    
N21   Ni5   S    
C9    H24   S    
C49   H14   S    
N28   Ni3   S    
N12   N20   A    
C43   N17   A    
C76   C85   T    
C44   C57   A    
N25   N29   A    
C2    C62   S    
C17   H20   S    
C52   N26   A    
N6    Ni3   S    
