data_mof_unit_39928.cif
_audit_creation_date              2012-12-10T18:43:09-0500
_audit_creation_method            fapswitch 2.2
_symmetry_space_group_name_H-M    P1
_symmetry_Int_Tables_number       1
_space_group_crystal_system       triclinic
_cell_length_a                    10.698002
_cell_length_b                    9.937727
_cell_length_c                    10.742429
_cell_angle_alpha                 89.971235
_cell_angle_beta                  92.822547
_cell_angle_gamma                 89.921905
_cell_volume                      1140.68193809

loop_
_atom_site_label
_atom_site_type_symbol
_atom_type_description
_atom_site_fract_x
_atom_site_fract_y
_atom_site_fract_z
_atom_type_partial_charge
C1    C     C_R   0.260322 0.500302 0.500377 0.874483
C2    C     C_R   0.938771 0.387358 0.541956 -0.137712
C3    C     C_R   0.872491 0.500117 0.497829 -0.054378
C4    C     C_R   0.127905 0.501465 0.500900 -0.048238
C5    C     C_R   0.933671 0.613841 0.454672 -0.161662
C6    C     C_R   0.062052 0.614111 0.455283 -0.155441
C7    C     C_R   0.583651 0.068048 0.577028 0.409309
C8    C     C_R   0.414367 0.068695 0.424949 0.408143
C9    C     C_R   0.582873 0.925739 0.573903 -0.119590
C10   C     C_R   0.417023 0.926113 0.426023 -0.140343
C11   C     C_R   0.739797 0.499949 0.498813 0.892028
C12   C     C_R   0.502949 0.499903 0.263017 0.953796
C13   C     C_R   0.496614 0.499906 0.736939 0.960340
C14   C     C_2   0.500421 0.386509 0.933103 -0.130054
C15   C     C_2   0.494983 0.386687 0.066796 -0.110744
C16   C     C_2   0.484644 0.500086 0.867903 -0.335611
C17   C     C_2   0.513839 0.499838 0.131915 -0.330908
C18   C     C_R   0.066795 0.389447 0.546508 -0.119584
H1    H     H_    0.516552 0.290593 0.888296 0.233602
H2    H     H_    0.349277 0.868434 0.370372 0.200290
H3    H     H_    0.770840 0.302323 0.791137 0.369329
H4    H     H_    0.204876 0.309633 0.244585 0.373319
H5    H     H_    0.476614 0.291226 0.111668 0.222129
H6    H     H_    0.460028 0.595367 0.909200 0.166029
H7    H     H_    0.540230 0.594418 0.090489 0.161712
H8    H     H_    0.117777 0.304344 0.586389 0.202176
H9    H     H_    0.892462 0.298653 0.574505 0.235623
H10   H     H_    0.882544 0.701131 0.419224 0.177322
H11   H     H_    0.109454 0.701258 0.419526 0.180369
H12   H     H_    0.647561 0.868291 0.633774 0.205792
N1    N     N_R   0.500000 0.857200 0.500000 -0.151122
N2    N     N_R   0.500000 0.142810 0.500000 -0.209257
O1    O     O_R   0.316770 0.614620 0.499990 -0.631345
O2    O     O_2   0.817549 0.068854 0.670555 -0.318476
O3    O     O_3   0.713020 0.294238 0.716613 -0.557385
O4    O     O_2   0.247086 0.038993 0.233439 -0.311330
O5    O     O_2   0.173745 0.133137 0.425147 -0.317304
O6    O     O_3   0.290868 0.287108 0.276373 -0.540032
O7    O     O_R   0.683230 0.614620 0.500010 -0.631511
O8    O     O_R   0.316800 0.385290 0.500000 -0.559317
O9    O     O_R   0.683200 0.385290 0.500000 -0.568714
O10   O     O_R   0.500000 0.614630 0.319080 -0.624566
O11   O     O_R   0.500000 0.614630 0.680920 -0.616605
O12   O     O_R   0.500030 0.385300 0.319080 -0.566194
O13   O     O_R   0.499970 0.385300 0.680920 -0.560788
O14   O     O_2   0.651783 0.071709 0.816905 -0.323777
S1    S     S_3+6 0.692213 0.128930 0.695708 0.015421
S2    S     S_3+6 0.280147 0.133710 0.339127 0.036386
Zn1   Zn    Zn3+2 0.500000 0.653120 0.500000 0.978910
Zn2   Zn    Zn3+2 0.500000 0.346880 0.500000 1.075481

loop_
_geom_bond_atom_site_label_1
_geom_bond_atom_site_label_2
_ccdc_geom_bond_type
C12   C17   S    
C14   H1    S    
C11   O7    A    
C8    S2    S    
C11   O9    A    
C2    H9    S    
H3    O3    S    
C2    C18   A    
C5    H10   S    
O6    S2    S    
C18   H8    S    
C1    C4    S    
O3    S1    S    
C15   H5    S    
C2    C3    A    
C4    C18   A    
C16   H6    S    
O5    S2    D    
C13   O13   A    
N2    Zn2   S    
C9    H12   S    
N1    Zn1   S    
O8    Zn2   S    
O13   Zn2   S    
C8    C10   A    
O7    Zn1   S    
O4    S2    D    
C5    C6    A    
C7    N2    A    
C14   C16   D    
C3    C11   S    
C9    N1    A    
O10   Zn1   S    
C1    O1    A    
C8    N2    A    
O9    Zn2   S    
C13   O11   A    
C6    H11   S    
C4    C6    A    
O14   S1    D    
C13   C16   S    
O12   Zn2   S    
C7    C9    A    
C14   C15   S    
C12   O12   A    
C12   O10   A    
O2    S1    D    
C1    O8    A    
C15   C17   D    
O1    Zn1   S    
C10   N1    A    
O11   Zn1   S    
C10   H2    S    
C17   H7    S    
C3    C5    A    
H4    O6    S    
C7    S1    S    
