data_mof_unit_10219.cif
_audit_creation_date              2012-12-11T15:34:49-0500
_audit_creation_method            fapswitch 2.2
_symmetry_space_group_name_H-M    P1
_symmetry_Int_Tables_number       1
_space_group_crystal_system       triclinic
_cell_length_a                    30.478446
_cell_length_b                    7.255656
_cell_length_c                    26.015694
_cell_angle_alpha                 89.999777
_cell_angle_beta                  112.09421
_cell_angle_gamma                 90.000281
_cell_volume                      5330.66735003

loop_
_atom_site_label
_atom_site_type_symbol
_atom_type_description
_atom_site_fract_x
_atom_site_fract_y
_atom_site_fract_z
_atom_type_partial_charge
O1    O     O_R   0.295360 0.592990 0.320420 -0.530408
O2    O     O_R   0.704640 0.407010 0.679580 -0.532290
O3    O     O_R   0.204640 0.092990 0.179580 -0.530411
O4    O     O_R   0.795360 0.907010 0.820420 -0.532296
O5    O     O_R   0.294060 0.265620 0.213230 -0.542314
O6    O     O_R   0.705940 0.734380 0.786770 -0.538097
O7    O     O_R   0.205940 0.765620 0.286770 -0.542319
O8    O     O_R   0.794060 0.234380 0.713230 -0.538087
C1    C     C_R   0.304205 0.432224 0.199520 0.708422
C2    C     C_R   0.695851 0.567697 0.800489 0.707132
C3    C     C_R   0.195795 0.932223 0.300481 0.708437
C4    C     C_R   0.804149 0.067699 0.699511 0.707112
O9    O     O_R   0.300850 0.263360 0.322080 -0.535908
O10   O     O_R   0.699150 0.736640 0.677920 -0.534504
O11   O     O_R   0.199150 0.763360 0.177920 -0.535899
O12   O     O_R   0.800850 0.236640 0.822080 -0.534501
O13   O     O_R   0.211480 0.091820 0.289210 -0.538233
O14   O     O_R   0.788520 0.908180 0.710790 -0.541119
O15   O     O_R   0.288520 0.591820 0.210790 -0.538223
O16   O     O_R   0.711480 0.408180 0.789210 -0.541123
C5    C     C_R   0.313218 0.431599 0.343207 0.668274
C6    C     C_R   0.686876 0.568436 0.656749 0.667182
C7    C     C_R   0.186782 0.931601 0.156793 0.668287
C8    C     C_R   0.813125 0.068434 0.843250 0.667178
O17   O     O_3   0.220670 0.426670 0.239090 -0.373929
O18   O     O_3   0.779330 0.573330 0.760910 -0.374171
O19   O     O_3   0.279330 0.926670 0.260910 -0.373925
O20   O     O_3   0.720670 0.073330 0.739090 -0.374176
V1    V     V_3+5 0.255440 0.152290 0.252020 1.426432
V2    V     V_3+5 0.744560 0.847710 0.747980 1.429041
V3    V     V_3+5 0.244560 0.652290 0.247980 1.426432
V4    V     V_3+5 0.755440 0.347710 0.752020 1.429052
C9    C     C_R   0.849238 0.061971 0.900248 -0.117794
C10   C     C_R   0.150565 0.938133 0.099821 -0.117859
C11   C     C_R   0.650762 0.561989 0.599751 -0.117800
C12   C     C_R   0.349435 0.438113 0.400180 -0.117859
C13   C     C_R   0.872338 0.094596 0.999650 -0.129103
C14   C     C_R   0.127390 0.905762 0.000393 -0.129947
C15   C     C_R   0.627654 0.594819 0.500354 -0.129118
C16   C     C_R   0.372619 0.405518 0.499603 -0.129953
C17   C     C_R   0.836753 0.095494 0.946383 -0.031474
C18   C     C_R   0.163017 0.905723 0.053609 -0.029247
C19   C     C_R   0.663241 0.595651 0.553618 -0.031487
C20   C     C_R   0.336990 0.405541 0.446388 -0.029236
C21   C     C_R   0.896823 0.027977 0.908194 -0.198414
C22   C     C_R   0.102930 0.970823 0.091954 -0.200161
C23   C     C_R   0.603179 0.527922 0.591804 -0.198413
C24   C     C_R   0.397067 0.470892 0.408048 -0.200170
C25   C     C_R   0.933310 0.028241 0.962036 0.087287
C26   C     C_R   0.066408 0.970451 0.038118 0.087513
C27   C     C_R   0.566689 0.528257 0.537963 0.087285
C28   C     C_R   0.433592 0.470442 0.461882 0.087512
C29   C     C_R   0.919882 0.062318 0.007708 0.088181
C30   C     C_R   0.079827 0.936877 0.992411 0.088224
C31   C     C_R   0.580112 0.562476 0.492294 0.088197
C32   C     C_R   0.420179 0.436713 0.507586 0.088222
C33   C     C_R   0.982516 0.997258 0.972213 0.059135
C34   C     C_R   0.017187 0.001078 0.027959 0.059201
C35   C     C_R   0.517485 0.497218 0.527785 0.059130
C36   C     C_R   0.482811 0.501129 0.472042 0.059207
C37   C     C_R   0.001440 0.035352 0.071596 -0.171866
C38   C     C_R   0.998254 0.962988 0.928569 -0.171150
C39   C     C_R   0.498552 0.535544 0.428409 -0.171876
C40   C     C_R   0.501753 0.462802 0.571426 -0.171149
C41   C     C_R   0.953932 0.064988 0.061537 -0.174108
C42   C     C_R   0.045764 0.933813 0.938601 -0.173481
C43   C     C_R   0.546059 0.565231 0.438468 -0.174129
C44   C     C_R   0.454245 0.433568 0.561393 -0.173477
H1    H     H_    0.943734 0.091007 0.096568 0.140188
H2    H     H_    0.055960 0.908043 0.903556 0.140165
H3    H     H_    0.556253 0.591359 0.403440 0.140176
H4    H     H_    0.444053 0.407680 0.596436 0.140179
H5    H     H_    0.095701 0.993806 0.128909 0.106519
H6    H     H_    0.904041 0.004191 0.871269 0.106667
H7    H     H_    0.404292 0.493990 0.371095 0.106522
H8    H     H_    0.595965 0.504039 0.628726 0.106681
H9    H     H_    0.863021 0.120064 0.035358 0.162195
H10   H     H_    0.136709 0.880987 0.964652 0.162539
H11   H     H_    0.636967 0.620393 0.464648 0.162177
H12   H     H_    0.363305 0.380622 0.535341 0.162535
H13   H     H_    0.025014 0.040688 0.114446 0.133466
H14   H     H_    0.974687 0.957543 0.885720 0.133570
H15   H     H_    0.474976 0.540954 0.385560 0.133460
H16   H     H_    0.525323 0.457279 0.614273 0.133582
C45   C     C_R   0.094219 0.974065 0.481702 0.541440
C46   C     C_R   0.905557 0.024498 0.518300 0.541103
C47   C     C_R   0.405792 0.472901 0.018305 0.541363
C48   C     C_R   0.594425 0.525608 0.981718 0.541256
N1    N     N_R   0.074244 0.970717 0.424936 -0.562358
N2    N     N_R   0.925571 0.030384 0.575044 -0.562410
N3    N     N_R   0.425757 0.470665 0.075076 -0.562469
N4    N     N_R   0.574423 0.530388 0.924961 -0.562319
C49   C     C_R   0.026376 0.983319 0.397402 0.581582
C50   C     C_R   0.973569 0.030383 0.602461 0.573690
C51   C     C_R   0.473604 0.484315 0.102607 0.581678
C52   C     C_R   0.526426 0.529328 0.897529 0.573597
C53   C     C_R   0.996162 0.995039 0.426882 -0.048969
C54   C     C_R   0.003770 0.018116 0.572984 -0.047416
C55   C     C_R   0.503814 0.496181 0.073126 -0.049018
C56   C     C_R   0.496227 0.516896 0.927006 -0.047396
C57   C     C_R   0.015430 0.998636 0.485244 -0.037629
C58   C     C_R   0.984464 0.011094 0.514653 -0.036814
C59   C     C_R   0.484560 0.498545 0.014758 -0.037678
C60   C     C_R   0.515523 0.511103 0.985347 -0.036804
C61   C     C_R   0.065470 0.989465 0.513987 -0.048597
C62   C     C_R   0.934378 0.016184 0.485950 -0.049130
C63   C     C_R   0.434537 0.488009 0.986009 -0.048616
C64   C     C_R   0.565597 0.517544 0.014062 -0.049096
C65   C     C_R   0.947046 0.002500 0.398567 -0.166169
C66   C     C_R   0.052892 0.011381 0.601298 -0.167493
C67   C     C_R   0.552913 0.505083 0.101448 -0.166207
C68   C     C_R   0.447121 0.508681 0.898680 -0.167507
C69   C     C_R   0.915764 0.012136 0.426578 0.066151
C70   C     C_R   0.084115 0.996134 0.573342 0.065640
C71   C     C_R   0.584195 0.514979 0.073442 0.066140
C72   C     C_R   0.415905 0.493124 0.926639 0.065689
O21   O     O_2   0.141653 0.961469 0.506073 -0.530968
O22   O     O_2   0.858003 0.025194 0.494035 -0.531356
O23   O     O_2   0.358369 0.459614 0.993944 -0.530904
O24   O     O_2   0.641977 0.527038 0.006004 -0.531432
O25   O     O_2   0.008037 0.984338 0.341403 -0.513919
O26   O     O_2   0.992040 0.041453 0.658360 -0.515621
O27   O     O_2   0.491924 0.486273 0.158603 -0.513836
O28   O     O_2   0.507953 0.539465 0.841613 -0.515678
H17   H     H_    0.932565 0.998057 0.353619 0.168710
H18   H     H_    0.067352 0.014989 0.646251 0.168754
H19   H     H_    0.567388 0.501708 0.146404 0.168733
H20   H     H_    0.432678 0.511208 0.853720 0.168742
C73   C     C_R   0.889936 0.881337 0.636648 0.018210
C74   C     C_R   0.107262 0.792520 0.365556 0.012390
C75   C     C_R   0.610105 0.381265 0.863404 0.018370
C76   C     C_R   0.392780 0.292569 0.134501 0.012247
C77   C     C_R   0.860248 0.893794 0.666976 -0.175679
C78   C     C_R   0.137064 0.786207 0.335195 -0.177214
C79   C     C_R   0.639785 0.393740 0.833067 -0.175754
C80   C     C_R   0.362970 0.286249 0.164851 -0.177116
H21   H     H_    0.855927 0.774684 0.689748 0.167868
H22   H     H_    0.139422 0.660096 0.314092 0.169225
H23   H     H_    0.644130 0.274592 0.810325 0.167849
H24   H     H_    0.360634 0.160180 0.185987 0.169254
C81   C     C_R   0.836126 0.058128 0.668216 -0.105422
C82   C     C_R   0.163805 0.940848 0.331887 -0.107142
C83   C     C_R   0.663876 0.558120 0.831788 -0.105451
C84   C     C_R   0.336198 0.440848 0.168119 -0.107159
C85   C     C_R   0.842049 0.211228 0.638383 -0.141291
C86   C     C_R   0.160297 0.103121 0.359622 -0.152198
C87   C     C_R   0.657926 0.711254 0.861590 -0.141336
C88   C     C_R   0.339684 0.603082 0.140351 -0.152162
H25   H     H_    0.823706 0.339360 0.638050 0.141044
H26   H     H_    0.180343 0.224739 0.358150 0.137263
H27   H     H_    0.676246 0.839423 0.861896 0.141087
H28   H     H_    0.319616 0.724665 0.141794 0.137269
C89   C     C_R   0.871039 0.199828 0.607682 -0.014795
C90   C     C_R   0.131344 0.110159 0.390357 -0.006716
C91   C     C_R   0.628939 0.699849 0.892293 -0.014753
C92   C     C_R   0.368642 0.610115 0.109622 -0.006725
H29   H     H_    0.874755 0.318871 0.584550 0.134882
H30   H     H_    0.129686 0.235964 0.411926 0.146128
H31   H     H_    0.625201 0.818928 0.915398 0.135026
H32   H     H_    0.370283 0.735881 0.088026 0.146017
C93   C     C_R   0.895328 0.036511 0.606619 0.290448
C94   C     C_R   0.104468 0.956826 0.393475 0.289254
C95   C     C_R   0.604676 0.536487 0.893395 0.290219
C96   C     C_R   0.395542 0.456816 0.106543 0.289437
C97   C     C_2   0.213071 0.872890 0.060385 0.395469
H33   H     H_    0.241256 0.879734 0.101030 0.018944
O29   O     O_2   0.223563 0.838107 0.020510 -0.518910
C98   C     C_2   0.786742 0.130766 0.939491 0.389692
H34   H     H_    0.758629 0.128430 0.898692 0.028764
O30   O     O_2   0.776183 0.162827 0.979476 -0.517684
C99   C     C_2   0.286939 0.372598 0.439611 0.395452
H35   H     H_    0.258751 0.379495 0.398969 0.018945
O31   O     O_2   0.276454 0.337662 0.479482 -0.518909
C100  C     C_2   0.713249 0.631001 0.560512 0.389684
H36   H     H_    0.741365 0.628598 0.601308 0.028815
O32   O     O_2   0.723803 0.663200 0.520530 -0.517676
C101  C     C_3   0.863355 0.015446 0.390278 -0.306965
C102  C     C_3   0.841353 0.822829 0.386009 -0.267959
C103  C     C_3   0.787912 0.828634 0.354047 -0.710148
H37   H     H_    0.770875 0.917915 0.375887 0.254514
H38   H     H_    0.779672 0.882545 0.311462 0.216197
H39   H     H_    0.773125 0.687365 0.350985 0.219210
H40   H     H_    0.857427 0.729128 0.364116 0.181714
H41   H     H_    0.848636 0.763947 0.427804 0.230631
H42   H     H_    0.844299 0.121628 0.404461 0.217790
H43   H     H_    0.858183 0.060478 0.347493 0.149001
C104  C     C_3   0.136435 0.985120 0.609717 -0.304810
C105  C     C_3   0.153900 0.784651 0.616571 -0.268731
C106  C     C_3   0.207263 0.774230 0.648730 -0.715518
H44   H     H_    0.226276 0.848383 0.625968 0.253923
H45   H     H_    0.216735 0.836204 0.690573 0.218565
H46   H     H_    0.218727 0.627833 0.653634 0.217561
H47   H     H_    0.135746 0.705805 0.639477 0.184003
H48   H     H_    0.145264 0.717339 0.575608 0.228207
H49   H     H_    0.157787 0.077137 0.594248 0.220341
H50   H     H_    0.142763 0.040034 0.651852 0.148573
C107  C     C_3   0.636587 0.520471 0.109764 -0.306954
C108  C     C_3   0.659025 0.328444 0.114726 -0.267911
C109  C     C_3   0.712447 0.336328 0.146702 -0.710316
H51   H     H_    0.729304 0.425222 0.124569 0.254403
H52   H     H_    0.720539 0.391782 0.189089 0.216303
H53   H     H_    0.727550 0.195457 0.150273 0.219138
H54   H     H_    0.643143 0.235130 0.136926 0.181653
H55   H     H_    0.651899 0.268090 0.073142 0.230797
H56   H     H_    0.655426 0.626569 0.095239 0.217699
H57   H     H_    0.641621 0.566994 0.152377 0.148995
C110  C     C_3   0.363621 0.479778 0.890257 -0.304800
C111  C     C_3   0.346626 0.278717 0.884127 -0.268742
C112  C     C_3   0.293301 0.266043 0.851933 -0.715516
H58   H     H_    0.274067 0.340629 0.874355 0.253874
H59   H     H_    0.283735 0.326295 0.809859 0.218487
H60   H     H_    0.282189 0.119246 0.847580 0.217672
H61   H     H_    0.365009 0.199448 0.861566 0.184080
H62   H     H_    0.355369 0.213007 0.925329 0.228056
H63   H     H_    0.342030 0.571878 0.905353 0.220390
H64   H     H_    0.357193 0.533083 0.847926 0.148598
C113  C     C_2   0.914673 0.705855 0.635995 0.402032
H65   H     H_    0.932547 0.686396 0.607371 0.051569
O33   O     O_2   0.915722 0.580774 0.667835 -0.532608
C114  C     C_2   0.079705 0.627119 0.368504 0.405062
H66   H     H_    0.061314 0.622607 0.396980 0.052378
O34   O     O_2   0.076877 0.493816 0.338776 -0.530996
C115  C     C_2   0.585425 0.205689 0.864113 0.402335
H67   H     H_    0.567648 0.186069 0.892828 0.051450
O35   O     O_2   0.584314 0.080716 0.832216 -0.532693
C116  C     C_2   0.420391 0.127258 0.131615 0.404800
H68   H     H_    0.438878 0.122908 0.103237 0.052445
O36   O     O_2   0.423154 0.993843 0.161282 -0.530894

loop_
_geom_bond_atom_site_label_1
_geom_bond_atom_site_label_2
_ccdc_geom_bond_type
O17   V3    S    
C55   C59   A    
C99   H35   S    
C25   C29   A    
O1    C5    A    
C111  H61   S    
C54   C66   A    
C47   N3    A    
C104  H50   S    
O19   V1    S    
O13   V1    S    
C82   C86   A    
C107  H56   S    
C115  H67   S    
C10   C18   A    
C56   C60   A    
C77   H21   S    
C80   H24   S    
O15   V3    S    
C114  O34   D    
C102  C103  S    
C101  H42   S    
C33   C38   A    
C5    C12   S    
C46   C62   A    
C79   H23   S    
C6    C11   S    
C99   O31   D    
C35   C40   A    
C97   H33   S    
C36   C39   A    
C40   C44   A    
C64   C71   A    
O9    V1    S    
C49   O25   S    
C23   H8    S    
C14   C18   A    
C75   C79   A    
O4    C8    A    
C19   C100  S    
C51   C55   A    
C76   C80   A    
C44   H4    S    
C50   C54   A    
C17   C98   S    
C52   C56   A    
C60   C64   A    
O1    V3    S    
C112  H60   S    
C9    C21   A    
C4    C81   S    
O2    V4    S    
O3    V1    S    
C100  H36   S    
C40   H16   S    
C73   C113  S    
C28   C36   A    
C86   H26   S    
O3    C7    A    
C1    O15   A    
C15   C31   A    
C48   N4    A    
C2    O16   A    
C111  C112  S    
C16   C32   A    
C86   C90   A    
O2    C6    A    
C109  H53   S    
C16   H12   S    
C58   C62   A    
C108  C109  S    
C10   C22   A    
C75   C95   A    
C48   O24   S    
C11   C19   A    
C66   C70   A    
C113  O33   D    
C43   H3    S    
C102  H40   S    
C18   C97   S    
C65   C69   A    
C103  H39   S    
C13   C29   A    
C74   C94   A    
C34   C37   A    
O11   C7    A    
C69   C101  S    
C38   H14   S    
C11   C23   A    
C109  H51   S    
O12   C8    A    
C13   C17   A    
C24   H7    S    
C107  H57   S    
C74   C78   A    
O10   V2    S    
C45   C61   A    
C114  H66   S    
C1    C84   S    
C59   C60   A    
N2    C50   A    
O5    V1    S    
N4    C52   A    
C57   C61   A    
C39   C43   A    
O7    V3    S    
C116  H68   S    
C38   C42   A    
N2    C93   S    
C91   H31   S    
C110  C111  S    
C26   C34   A    
C57   C58   A    
C61   C70   A    
C92   H32   S    
C110  H64   S    
C46   N2    A    
C45   N1    A    
O18   V4    S    
C97   O29   D    
C15   C19   A    
C62   C69   A    
C91   C95   A    
C113  H65   S    
C32   C44   A    
C13   H9    S    
N1    C49   A    
O4    V2    S    
C101  H43   S    
C39   H15   S    
C105  C106  S    
O8    V4    S    
C37   H13   S    
C106  H46   S    
O7    C3    A    
C76   C96   A    
C35   C36   A    
C47   O23   S    
C76   C116  S    
C78   C82   A    
C53   C65   A    
C88   C92   A    
C31   C43   A    
C14   C30   A    
C21   C25   A    
O8    C4    A    
C7    C10   S    
C55   C67   A    
C110  H63   S    
C112  H58   S    
O9    C5    A    
C46   O22   S    
C26   C30   A    
C102  H41   S    
C45   O21   S    
C66   H18   S    
C73   C77   A    
C50   O26   S    
N4    C95   S    
C65   H17   S    
C98   H34   S    
O6    V2    S    
C16   C20   A    
C105  H47   S    
C56   C68   A    
C116  O36   D    
C108  H55   S    
O14   V2    S    
N3    C96   S    
C12   C20   A    
C27   C35   A    
C49   C53   A    
C83   C87   A    
C68   C72   A    
C29   C41   A    
C59   C63   A    
O16   V4    S    
C51   O27   S    
C106  H44   S    
C3    O13   A    
C111  H62   S    
C104  H49   S    
C90   C94   A    
N1    C94   S    
C52   O28   S    
C88   H28   S    
O5    C1    A    
C78   H22   S    
C25   C33   A    
C23   C27   A    
C115  O35   D    
O11   V3    S    
C30   C42   A    
C81   C85   A    
C87   C91   A    
O12   V4    S    
C14   H10   S    
C22   C26   A    
C77   C81   A    
C8    C9    S    
C74   C114  S    
C9    C17   A    
O10   C6    A    
O20   V2    S    
C20   C99   S    
C85   C89   A    
C104  C105  S    
C80   C84   A    
C54   C58   A    
C67   H19   S    
C33   C34   A    
C42   H2    S    
C41   H1    S    
C87   H27   S    
C73   C93   A    
C98   O30   D    
C79   C83   A    
C112  H59   S    
C12   C24   A    
C27   C31   A    
C2    C83   S    
C22   H5    S    
C89   H29   S    
C107  C108  S    
C3    C82   S    
C100  O32   D    
C63   C72   A    
C68   H20   S    
C72   C110  S    
O6    C2    A    
C70   C104  S    
C105  H48   S    
C103  H37   S    
C48   C64   A    
C37   C41   A    
C24   C28   A    
C47   C63   A    
C92   C96   A    
N3    C51   A    
C67   C71   A    
C101  C102  S    
C4    O14   A    
C108  H54   S    
C109  H52   S    
C90   H30   S    
C85   H25   S    
C21   H6    S    
C75   C115  S    
C71   C107  S    
C106  H45   S    
C89   C93   A    
C53   C57   A    
C28   C32   A    
C15   H11   S    
C103  H38   S    
C84   C88   A    
