data_mof_unit_31289.cif
_audit_creation_date              2012-10-26T17:21:11-0400
_audit_creation_method            fapswitch 2.2
_symmetry_space_group_name_H-M    P1
_symmetry_Int_Tables_number       1
_space_group_crystal_system       triclinic
_cell_length_a                    21.985857
_cell_length_b                    21.985858
_cell_length_c                    21.977744
_cell_angle_alpha                 90.06392
_cell_angle_beta                  90.063922
_cell_angle_gamma                 90.674534
_cell_volume                      10622.8068194

loop_
_atom_site_label
_atom_site_type_symbol
_atom_type_description
_atom_site_fract_x
_atom_site_fract_y
_atom_site_fract_z
_atom_type_partial_charge
C1    C     C_R   0.500436 0.118783 0.000530 0.651566
C2    C     C_R   0.881217 0.499563 0.999470 0.651566
C3    C     C_R   0.000014 0.500031 0.118784 0.652763
C4    C     C_R   0.118780 0.500409 0.999449 0.651091
C5    C     C_R   0.000356 0.618800 0.500525 0.643169
C6    C     C_R   0.999999 0.499867 0.618805 0.642200
C7    C     C_R   0.999726 0.381203 0.500099 0.643181
C8    C     C_R   0.999973 0.499986 0.381199 0.643249
C9    C     C_R   0.618822 0.500204 0.000157 0.642001
C10   C     C_R   0.499796 0.381178 0.999843 0.642001
C11   C     C_R   0.381179 0.499796 0.000108 0.641928
C12   C     C_R   0.500044 0.999983 0.118781 0.656074
C13   C     C_R   0.500204 0.618820 0.999891 0.641928
C14   C     C_R   0.500133 0.000000 0.381195 0.642201
C15   C     C_R   0.381199 0.999644 0.499475 0.643169
C16   C     C_R   0.500014 0.000026 0.618800 0.643249
C17   C     C_R   0.618797 0.000274 0.499901 0.643181
C18   C     C_R   0.539515 0.041397 0.217785 0.185007
C19   C     C_R   0.535367 0.782382 0.043554 0.164203
C20   C     C_R   0.538120 0.958507 0.782214 0.183998
C21   C     C_R   0.538950 0.218062 0.958074 0.185433
C22   C     C_R   0.460996 0.958530 0.217694 0.181901
C23   C     C_R   0.499590 0.881220 0.000551 0.651091
C24   C     C_R   0.465053 0.217721 0.043649 0.166300
C25   C     C_R   0.461735 0.041473 0.782219 0.183890
C26   C     C_R   0.460989 0.781858 0.958184 0.185312
C27   C     C_R   0.042223 0.782659 0.461734 0.183893
C28   C     C_R   0.781690 0.958725 0.461540 0.184896
C29   C     C_R   0.957763 0.217330 0.461606 0.184524
C30   C     C_R   0.218440 0.042472 0.463252 0.194347
C31   C     C_R   0.957528 0.781560 0.536748 0.194346
C32   C     C_R   0.217341 0.957777 0.538266 0.183893
C33   C     C_R   0.041275 0.218310 0.538460 0.184894
C34   C     C_R   0.499968 0.999986 0.881216 0.652763
C35   C     C_R   0.782670 0.042237 0.538393 0.184524
C36   C     C_R   0.782279 0.534947 0.956351 0.166301
C37   C     C_R   0.958527 0.538265 0.217781 0.183889
C38   C     C_R   0.218141 0.539011 0.041816 0.185312
C39   C     C_R   0.041470 0.539004 0.782306 0.181900
C40   C     C_R   0.781938 0.461050 0.041926 0.185432
C41   C     C_R   0.958603 0.460485 0.782215 0.185007
C42   C     C_R   0.217618 0.464633 0.956446 0.164203
C43   C     C_R   0.041493 0.461880 0.217786 0.183998
C44   C     C_R   0.038240 0.542107 0.717913 0.145105
C45   C     C_R   0.118799 0.000414 0.500161 0.647884
C46   C     C_R   0.037843 0.282599 0.541932 0.155060
C47   C     C_R   0.038101 0.458494 0.282147 0.154034
C48   C     C_R   0.039166 0.718135 0.458618 0.151709
C49   C     C_R   0.961666 0.457518 0.717756 0.148987
C50   C     C_R   0.963006 0.717748 0.542252 0.201130
C51   C     C_R   0.961835 0.541553 0.282171 0.155549
C52   C     C_R   0.960785 0.281771 0.458580 0.155134
C53   C     C_R   0.542146 0.282598 0.961180 0.156200
C54   C     C_R   0.281336 0.459022 0.962092 0.137705
C55   C     C_R   0.457777 0.717334 0.961307 0.156246
C56   C     C_R   0.999586 0.881201 0.499839 0.647885
C57   C     C_R   0.718616 0.540737 0.962086 0.138996
C58   C     C_R   0.459263 0.281384 0.037914 0.138997
C59   C     C_R   0.717401 0.457854 0.038820 0.156201
C60   C     C_R   0.540978 0.718664 0.037908 0.137705
C61   C     C_R   0.282665 0.542223 0.038693 0.156248
C62   C     C_R   0.282252 0.036994 0.457748 0.201130
C63   C     C_R   0.458447 0.038165 0.717829 0.155549
C64   C     C_R   0.718229 0.039215 0.541420 0.155134
C65   C     C_R   0.542482 0.038334 0.282244 0.148987
C66   C     C_R   0.281865 0.960834 0.541382 0.151710
C67   C     C_R   0.881199 0.000174 0.500012 0.649522
C68   C     C_R   0.457893 0.961760 0.282087 0.145107
C69   C     C_R   0.717401 0.962157 0.458068 0.155065
C70   C     C_R   0.541506 0.961899 0.717853 0.154034
C71   C     C_R   0.500173 0.000052 0.314050 -0.047752
C72   C     C_R   0.499821 0.685926 0.999487 -0.042733
C73   C     C_R   0.500007 0.000060 0.685939 -0.048602
C74   C     C_R   0.500186 0.314071 0.999367 -0.042800
C75   C     C_R   0.001164 0.685889 0.500754 -0.050920
C76   C     C_R   0.685925 0.000746 0.499667 -0.046800
C77   C     C_R   0.999254 0.314075 0.500333 -0.046799
C78   C     C_R   0.999825 0.118801 0.499988 0.649522
C79   C     C_R   0.314111 0.998836 0.499246 -0.050919
C80   C     C_R   0.685929 0.499814 0.000632 -0.042800
C81   C     C_R   0.999940 0.499993 0.314061 -0.048601
C82   C     C_R   0.314074 0.500178 0.000513 -0.042733
C83   C     C_R   0.999948 0.499827 0.685949 -0.047752
C84   C     C_R   0.000004 0.499834 0.814141 -0.042780
C85   C     C_R   0.999609 0.185919 0.499978 -0.049269
C86   C     C_R   0.000023 0.500083 0.185886 -0.051027
C87   C     C_R   0.999692 0.814146 0.499333 -0.055797
C88   C     C_R   0.501607 0.185830 0.000841 -0.048010
C89   C     C_R   0.000017 0.499956 0.881219 0.656075
C90   C     C_R   0.185823 0.501494 0.999116 -0.048003
C91   C     C_R   0.498506 0.814177 0.000884 -0.048003
C92   C     C_R   0.814170 0.498393 0.999159 -0.048010
C93   C     C_R   0.185853 0.000307 0.500667 -0.055797
C94   C     C_R   0.499917 0.999977 0.814114 -0.051027
C95   C     C_R   0.814081 0.000391 0.500022 -0.049270
C96   C     C_R   0.500166 0.999996 0.185859 -0.042781
Cu1   Cu    Cu3+1 0.438230 0.000000 0.000000 1.296992
Cu2   Cu    Cu3+1 0.500000 0.500000 0.938230 1.347652
Cu3   Cu    Cu3+1 0.500000 0.938230 0.500000 1.361425
Cu4   Cu    Cu3+1 0.500000 0.061770 0.500000 1.351073
Cu5   Cu    Cu3+1 0.561770 0.000000 0.000000 1.298306
Cu6   Cu    Cu3+1 0.000000 0.000000 0.561770 1.317373
Cu7   Cu    Cu3+1 0.000000 0.000000 0.438230 1.317372
Cu8   Cu    Cu3+1 0.000000 0.438230 0.000000 1.298300
Cu9   Cu    Cu3+1 0.000000 0.561770 0.000000 1.296996
Cu10  Cu    Cu3+1 0.938230 0.500000 0.500000 1.351073
Cu11  Cu    Cu3+1 0.061770 0.500000 0.500000 1.361425
Cu12  Cu    Cu3+1 0.500000 0.500000 0.061770 1.347652
H1    H     H_    0.680242 0.097379 0.146652 0.386964
H2    H     H_    0.804354 0.812411 0.380405 0.394377
H3    H     H_    0.812582 0.191033 0.378283 0.395767
H4    H     H_    0.182855 0.152980 0.342020 0.387546
H5    H     H_    0.847020 0.817145 0.657980 0.387546
H6    H     H_    0.191322 0.812454 0.620893 0.397158
H7    H     H_    0.187589 0.195644 0.619595 0.394376
H8    H     H_    0.808967 0.187418 0.621716 0.395767
H9    H     H_    0.821284 0.650623 0.839470 0.387868
H10   H     H_    0.813706 0.620356 0.193749 0.394742
H11   H     H_    0.195010 0.621385 0.187391 0.396297
H12   H     H_    0.652521 0.821227 0.159304 0.396510
H13   H     H_    0.101391 0.678795 0.852554 0.388789
H14   H     H_    0.805403 0.379067 0.187524 0.396168
H15   H     H_    0.902624 0.319760 0.853356 0.386960
H16   H     H_    0.178772 0.347478 0.840697 0.396511
H17   H     H_    0.186393 0.379914 0.193925 0.393879
H18   H     H_    0.053338 0.682001 0.716866 0.384288
H19   H     H_    0.052151 0.284651 0.682260 0.349231
H20   H     H_    0.049905 0.318421 0.284157 0.349422
H21   H     H_    0.052449 0.714884 0.318485 0.349928
H22   H     H_    0.951995 0.317801 0.713219 0.350724
H23   H     H_    0.620086 0.813607 0.806075 0.393879
H24   H     H_    0.929826 0.693148 0.703766 0.375892
H25   H     H_    0.950018 0.681677 0.284707 0.350174
H26   H     H_    0.947921 0.284641 0.318552 0.349598
H27   H     H_    0.682593 0.287579 0.947265 0.349390
H28   H     H_    0.259880 0.340467 0.983484 0.369116
H29   H     H_    0.317300 0.712303 0.947341 0.349265
H30   H     H_    0.740827 0.659438 0.982549 0.369271
H31   H     H_    0.340562 0.259173 0.017451 0.369271
H32   H     H_    0.712421 0.317407 0.052735 0.349390
H33   H     H_    0.659533 0.740119 0.016516 0.369116
H34   H     H_    0.620933 0.194597 0.812476 0.396168
H35   H     H_    0.287698 0.682700 0.052660 0.349265
H36   H     H_    0.306846 0.070180 0.296234 0.375896
H37   H     H_    0.318323 0.049982 0.715293 0.350174
H38   H     H_    0.715359 0.052079 0.681448 0.349598
H39   H     H_    0.682200 0.048005 0.286782 0.350723
H40   H     H_    0.285117 0.947551 0.681515 0.349928
H41   H     H_    0.317999 0.946663 0.283134 0.384291
H42   H     H_    0.715344 0.947845 0.317736 0.349232
H43   H     H_    0.681578 0.950095 0.715843 0.349423
H44   H     H_    0.321206 0.898611 0.147442 0.388788
H45   H     H_    0.349377 0.178716 0.160530 0.387868
H46   H     H_    0.379644 0.186294 0.806250 0.394742
H47   H     H_    0.378615 0.804990 0.812609 0.396297
H48   H     H_    0.187546 0.808678 0.379107 0.397159
O1    O     O_R   0.447840 0.090200 0.999960 -0.462547
O2    O     O_R   0.000040 0.909800 0.552160 -0.455383
O3    O     O_2   0.929662 0.645425 0.166453 -0.233239
O4    O     O_2   0.885389 0.556996 0.117241 -0.265929
O5    O     O_3   0.837263 0.589364 0.216062 -0.377069
O6    O     O_2   0.168749 0.646608 0.071469 -0.237556
O7    O     O_2   0.117483 0.558789 0.114327 -0.262877
O8    O     O_3   0.216770 0.590149 0.163596 -0.376351
O9    O     O_2   0.114040 0.560557 0.883388 -0.259435
O10   O     O_2   0.155821 0.590564 0.787528 -0.119011
O11   O     O_3   0.068065 0.654580 0.833716 -0.492403
O12   O     O_2   0.831418 0.353543 0.071587 -0.237691
O13   O     O_R   0.909800 0.999960 0.552160 -0.453703
O14   O     O_2   0.882711 0.441501 0.114437 -0.263486
O15   O     O_3   0.783548 0.410195 0.163696 -0.376360
O16   O     O_2   0.886578 0.437745 0.883327 -0.258719
O17   O     O_2   0.845346 0.405652 0.787865 -0.118504
O18   O     O_3   0.935069 0.344636 0.833981 -0.485611
O19   O     O_2   0.114791 0.444051 0.885506 -0.270202
O20   O     O_2   0.210300 0.462493 0.834564 -0.160093
O21   O     O_3   0.188924 0.357375 0.883534 -0.429683
O22   O     O_2   0.070490 0.354810 0.166164 -0.235114
O23   O     O_2   0.114727 0.443345 0.117405 -0.265746
O24   O     O_R   0.999960 0.090200 0.552160 -0.451539
O25   O     O_3   0.162798 0.410866 0.216268 -0.377612
O26   O     O_2   0.145194 0.570676 0.665033 -0.138762
O27   O     O_2   0.057044 0.615251 0.617488 -0.272125
O28   O     O_3   0.094119 0.663578 0.715135 -0.399397
O29   O     O_2   0.144787 0.336712 0.570160 -0.127780
O30   O     O_2   0.056678 0.382996 0.615604 -0.289557
O31   O     O_3   0.092815 0.285326 0.662949 -0.407808
O32   O     O_2   0.144972 0.430196 0.334494 -0.130226
O33   O     O_2   0.056647 0.385184 0.382556 -0.287309
O34   O     O_3   0.090958 0.337443 0.284135 -0.408923
O35   O     O_R   0.909800 0.000040 0.447840 -0.451539
O36   O     O_2   0.146742 0.667785 0.430718 -0.129022
O37   O     O_2   0.059406 0.617361 0.385983 -0.286215
O38   O     O_3   0.093278 0.716054 0.337553 -0.408051
O39   O     O_2   0.853350 0.426503 0.668493 -0.135957
O40   O     O_2   0.940177 0.385711 0.615928 -0.284921
O41   O     O_3   0.910534 0.334837 0.714521 -0.407565
O42   O     O_2   0.858436 0.687603 0.602741 -0.163649
O43   O     O_2   0.938579 0.614687 0.612174 -0.276906
O44   O     O_3   0.952141 0.713812 0.670383 -0.468912
O45   O     O_2   0.854929 0.569798 0.334297 -0.132259
O46   O     O_R   0.999960 0.909800 0.447840 -0.452895
O47   O     O_2   0.943218 0.614757 0.382773 -0.290228
O48   O     O_3   0.908985 0.662613 0.284423 -0.408865
O49   O     O_2   0.853167 0.331918 0.430251 -0.129657
O50   O     O_2   0.940465 0.382488 0.385934 -0.286465
O51   O     O_3   0.906980 0.283629 0.337288 -0.408221
O52   O     O_2   0.569928 0.334925 0.853821 -0.130088
O53   O     O_2   0.614944 0.383934 0.941640 -0.285920
O54   O     O_3   0.663036 0.286353 0.906658 -0.399762
O55   O     O_2   0.312960 0.402364 0.856904 -0.129493
O56   O     O_2   0.382596 0.387361 0.940221 -0.257993
O57   O     O_R   0.090200 0.999960 0.447840 -0.455383
O58   O     O_3   0.281573 0.330661 0.945303 -0.426336
O59   O     O_2   0.429798 0.664839 0.853903 -0.130109
O60   O     O_2   0.384964 0.615951 0.941660 -0.285832
O61   O     O_3   0.336777 0.713464 0.906741 -0.400059
O62   O     O_2   0.686431 0.596530 0.856731 -0.131360
O63   O     O_2   0.617564 0.612700 0.940399 -0.258248
O64   O     O_3   0.718921 0.668954 0.944389 -0.426784
O65   O     O_2   0.403470 0.313569 0.143269 -0.131360
O66   O     O_2   0.387300 0.382436 0.059601 -0.258248
O67   O     O_3   0.331046 0.281079 0.055611 -0.426784
O68   O     O_R   0.000040 0.090200 0.447840 -0.453704
O69   O     O_2   0.665075 0.430071 0.146178 -0.130088
O70   O     O_2   0.616066 0.385056 0.058360 -0.285920
O71   O     O_3   0.713647 0.336964 0.093342 -0.399763
O72   O     O_2   0.597636 0.687040 0.143096 -0.129494
O73   O     O_2   0.612639 0.617404 0.059779 -0.257993
O74   O     O_3   0.669338 0.718427 0.054696 -0.426336
O75   O     O_2   0.335161 0.570202 0.146097 -0.130109
O76   O     O_2   0.384048 0.615036 0.058340 -0.285833
O77   O     O_3   0.286536 0.663223 0.093259 -0.400059
O78   O     O_2   0.312397 0.141564 0.397259 -0.163655
O79   O     O_R   0.000040 0.447840 0.909800 -0.450334
O80   O     O_2   0.385313 0.061421 0.387825 -0.276900
O81   O     O_3   0.286188 0.047859 0.329617 -0.468914
O82   O     O_2   0.430202 0.145071 0.665702 -0.132259
O83   O     O_2   0.385243 0.056781 0.617227 -0.290228
O84   O     O_3   0.337387 0.091015 0.715577 -0.408866
O85   O     O_2   0.668082 0.146833 0.569749 -0.129658
O86   O     O_2   0.617512 0.059535 0.614066 -0.286465
O87   O     O_3   0.716371 0.093020 0.662711 -0.408221
O88   O     O_2   0.573497 0.146649 0.331507 -0.135956
O89   O     O_2   0.614289 0.059822 0.384072 -0.284921
O90   O     O_R   0.909800 0.447840 0.999960 -0.453733
O91   O     O_3   0.665163 0.089466 0.285479 -0.407572
O92   O     O_2   0.332215 0.853258 0.569282 -0.129022
O93   O     O_2   0.382639 0.940593 0.614017 -0.286215
O94   O     O_3   0.283946 0.906722 0.662447 -0.408050
O95   O     O_2   0.429324 0.854806 0.334967 -0.138764
O96   O     O_2   0.384749 0.942956 0.382512 -0.272123
O97   O     O_3   0.336422 0.905882 0.284865 -0.399393
O98   O     O_2   0.663287 0.855213 0.429841 -0.127782
O99   O     O_2   0.617004 0.943322 0.384396 -0.289562
O100  O     O_3   0.714674 0.907183 0.337051 -0.407809
O101  O     O_R   0.999960 0.447840 0.090200 -0.449870
O102  O     O_2   0.569804 0.855028 0.665505 -0.130226
O103  O     O_2   0.614816 0.943353 0.617444 -0.287310
O104  O     O_3   0.662556 0.909042 0.715865 -0.408923
O105  O     O_R   0.447840 0.000040 0.090200 -0.452834
O106  O     O_R   0.090200 0.447840 0.000040 -0.462602
O107  O     O_R   0.000040 0.552160 0.090200 -0.449988
O108  O     O_R   0.909800 0.552160 0.000040 -0.462547
O109  O     O_R   0.999960 0.552160 0.909800 -0.452833
O110  O     O_R   0.090200 0.552160 0.999960 -0.453444
O111  O     O_R   0.947840 0.590200 0.499960 -0.454395
O112  O     O_R   0.947840 0.500040 0.590200 -0.450646
O113  O     O_R   0.947840 0.409800 0.500040 -0.448368
O114  O     O_R   0.947840 0.499960 0.409800 -0.448510
O115  O     O_R   0.052160 0.409800 0.499960 -0.448105
O116  O     O_R   0.447840 0.909800 0.000040 -0.453445
O117  O     O_R   0.052160 0.499960 0.590200 -0.449394
O118  O     O_R   0.052160 0.590200 0.500040 -0.448868
O119  O     O_R   0.052160 0.500040 0.409800 -0.448803
O120  O     O_R   0.590200 0.500040 0.052160 -0.452292
O121  O     O_R   0.500040 0.409800 0.052160 -0.451679
O122  O     O_R   0.409800 0.499960 0.052160 -0.452402
O123  O     O_R   0.499960 0.590200 0.052160 -0.451676
O124  O     O_R   0.409800 0.500040 0.947840 -0.451676
O125  O     O_R   0.499960 0.409800 0.947840 -0.452292
O126  O     O_R   0.590200 0.499960 0.947840 -0.451679
O127  O     O_R   0.447840 0.999960 0.909800 -0.449988
O128  O     O_R   0.500040 0.590200 0.947840 -0.452402
O129  O     O_R   0.500040 0.947840 0.409800 -0.449394
O130  O     O_R   0.409800 0.947840 0.499960 -0.448868
O131  O     O_R   0.499960 0.947840 0.590200 -0.448803
O132  O     O_R   0.590200 0.947840 0.500040 -0.448105
O133  O     O_R   0.500040 0.052160 0.590200 -0.448510
O134  O     O_R   0.409800 0.052160 0.500040 -0.454395
O135  O     O_R   0.499960 0.052160 0.409800 -0.450645
O136  O     O_R   0.590200 0.052160 0.499960 -0.448368
O137  O     O_2   0.562255 0.113422 0.116673 -0.258712
O138  O     O_R   0.552160 0.909800 0.999960 -0.462602
O139  O     O_2   0.594348 0.154654 0.212135 -0.118510
O140  O     O_3   0.655364 0.064931 0.166019 -0.485614
O141  O     O_2   0.555949 0.885209 0.114494 -0.270202
O142  O     O_2   0.537507 0.789700 0.165436 -0.160094
O143  O     O_3   0.642625 0.811076 0.116466 -0.429683
O144  O     O_2   0.645190 0.929510 0.833836 -0.235114
O145  O     O_2   0.556655 0.885273 0.882595 -0.265746
O146  O     O_3   0.589134 0.837202 0.783732 -0.377611
O147  O     O_2   0.646457 0.168582 0.928413 -0.237690
O148  O     O_2   0.558499 0.117288 0.885562 -0.263487
O149  O     O_R   0.552160 0.999960 0.090200 -0.450331
O150  O     O_3   0.589805 0.216452 0.836304 -0.376360
O151  O     O_2   0.439443 0.885960 0.116612 -0.259439
O152  O     O_2   0.409435 0.844179 0.212472 -0.119008
O153  O     O_3   0.345420 0.931935 0.166284 -0.492403
O154  O     O_2   0.445696 0.115182 0.114875 -0.275973
O155  O     O_2   0.464377 0.210965 0.165539 -0.164776
O156  O     O_3   0.358748 0.189013 0.117654 -0.432548
O157  O     O_2   0.354575 0.070338 0.833546 -0.233239
O158  O     O_2   0.443004 0.114610 0.882759 -0.265929
O159  O     O_3   0.410635 0.162737 0.783938 -0.377069
O160  O     O_R   0.552160 0.090200 0.000040 -0.453731
O161  O     O_2   0.353392 0.831251 0.928531 -0.237557
O162  O     O_2   0.441211 0.882517 0.885672 -0.262876
O163  O     O_3   0.409850 0.783230 0.836404 -0.376350
O164  O     O_2   0.071498 0.833747 0.354137 -0.232472
O165  O     O_2   0.114840 0.884118 0.442155 -0.262359
O166  O     O_3   0.163826 0.786037 0.410177 -0.374535
O167  O     O_2   0.832564 0.928381 0.354343 -0.235141
O168  O     O_2   0.881412 0.885630 0.442859 -0.263128
O169  O     O_3   0.781900 0.836796 0.410727 -0.370134
O170  O     O_2   0.928663 0.165739 0.353994 -0.234723
O171  O     O_R   0.552160 0.000040 0.909800 -0.449870
O172  O     O_2   0.884994 0.115949 0.442011 -0.266775
O173  O     O_3   0.836233 0.213845 0.409385 -0.375189
O174  O     O_2   0.116008 0.112539 0.440258 -0.267074
O175  O     O_2   0.211716 0.164231 0.457210 -0.171468
O176  O     O_3   0.191821 0.110540 0.353809 -0.419781
O177  O     O_2   0.887461 0.883992 0.559742 -0.267075
O178  O     O_2   0.835768 0.788283 0.542790 -0.171469
O179  O     O_3   0.889460 0.808179 0.646191 -0.419774
O180  O     O_2   0.166253 0.928502 0.645863 -0.232472
O181  O     O_2   0.115882 0.885160 0.557845 -0.262359
O182  O     O_R   0.090200 0.000040 0.552160 -0.452895
O183  O     O_3   0.213962 0.836174 0.589823 -0.374534
O184  O     O_2   0.071618 0.167435 0.645657 -0.235146
O185  O     O_2   0.114370 0.118588 0.557141 -0.263128
O186  O     O_3   0.163204 0.218100 0.589274 -0.370133
O187  O     O_2   0.834261 0.071337 0.646006 -0.234722
O188  O     O_2   0.884051 0.115006 0.557989 -0.266775
O189  O     O_3   0.786155 0.163767 0.590614 -0.375189
O190  O     O_2   0.884818 0.554304 0.885125 -0.275973
O191  O     O_2   0.789035 0.535624 0.834461 -0.164776
O192  O     O_3   0.810987 0.641252 0.882346 -0.432548
S1    S     S_3+6 0.586838 0.096185 0.177409 0.130646
S2    S     S_3+6 0.821349 0.902514 0.416670 0.126062
S3    S     S_3+6 0.902086 0.176321 0.416049 0.121114
S4    S     S_3+6 0.182727 0.108380 0.429641 0.134014
S5    S     S_3+6 0.891619 0.817273 0.570359 0.134015
S6    S     S_3+6 0.176446 0.902073 0.583641 0.124858
S7    S     S_3+6 0.097485 0.178651 0.583330 0.126058
S8    S     S_3+6 0.823679 0.097914 0.583951 0.121114
S9    S     S_3+6 0.818349 0.565623 0.888742 0.114813
S10   S     S_3+6 0.902868 0.583186 0.177446 0.120900
S11   S     S_3+6 0.178318 0.584302 0.097641 0.120456
S12   S     S_3+6 0.566951 0.818681 0.110811 0.121190
S13   S     S_3+6 0.097364 0.585132 0.822533 0.126613
S14   S     S_3+6 0.821867 0.415903 0.097752 0.120269
S15   S     S_3+6 0.903814 0.413162 0.822591 0.130646
S16   S     S_3+6 0.181319 0.433049 0.889189 0.121191
S17   S     S_3+6 0.097226 0.417053 0.177466 0.119953
S18   S     S_3+6 0.083979 0.597835 0.677187 0.140232
S19   S     S_3+6 0.083421 0.323638 0.597554 0.127704
S20   S     S_3+6 0.083070 0.402971 0.322609 0.127366
S21   S     S_3+6 0.085029 0.678044 0.403383 0.127504
S22   S     S_3+6 0.916027 0.401373 0.677245 0.128751
S23   S     S_3+6 0.582947 0.902774 0.822534 0.119953
S24   S     S_3+6 0.926240 0.680876 0.606207 0.115487
S25   S     S_3+6 0.916841 0.597035 0.322689 0.124356
S26   S     S_3+6 0.914966 0.321759 0.403186 0.127370
S27   S     S_3+6 0.597357 0.323692 0.915395 0.131599
S28   S     S_3+6 0.317164 0.395486 0.924741 0.133159
S29   S     S_3+6 0.402483 0.676159 0.915475 0.131471
S30   S     S_3+6 0.682818 0.604110 0.924537 0.132777
S31   S     S_3+6 0.395889 0.317182 0.075463 0.132776
S32   S     S_3+6 0.676307 0.402643 0.084605 0.131599
S33   S     S_3+6 0.604514 0.682836 0.075259 0.133159
S34   S     S_3+6 0.584097 0.178133 0.902248 0.120270
S35   S     S_3+6 0.323841 0.597517 0.084525 0.131471
S36   S     S_3+6 0.319124 0.073760 0.393793 0.115486
S37   S     S_3+6 0.402965 0.083158 0.677311 0.124356
S38   S     S_3+6 0.678240 0.085034 0.596814 0.127370
S39   S     S_3+6 0.598627 0.083973 0.322755 0.128750
S40   S     S_3+6 0.321956 0.914971 0.596617 0.127504
S41   S     S_3+6 0.402165 0.916021 0.322813 0.140236
S42   S     S_3+6 0.676362 0.916578 0.402446 0.127703
S43   S     S_3+6 0.597029 0.916930 0.677391 0.127366
S44   S     S_3+6 0.414868 0.902636 0.177467 0.126613
S45   S     S_3+6 0.434377 0.181651 0.111258 0.114813
S46   S     S_3+6 0.416814 0.097132 0.822554 0.120900
S47   S     S_3+6 0.415698 0.821681 0.902359 0.120455
S48   S     S_3+6 0.097927 0.823554 0.416359 0.124858

loop_
_geom_bond_atom_site_label_1
_geom_bond_atom_site_label_2
_ccdc_geom_bond_type
C27   C48   A    
O70   S32   D    
Cu5   O171  S    
C13   O128  A    
C38   S11   S    
C14   C71   S    
O53   S27   D    
H23   O146  S    
C28   C69   A    
C67   O13   A    
C18   C65   A    
C66   C79   A    
Cu10  O111  S    
O94   S40   S    
C64   S38   S    
C61   C82   A    
C70   S43   S    
Cu10  Cu11  S    
C60   C72   A    
C14   O129  A    
Cu2   Cu12  S    
C40   S14   S    
C6    O117  A    
Cu6   O182  S    
Cu4   O134  S    
C9    O120  A    
O165  S48   D    
Cu8   O79   S    
C2    O108  A    
C53   C74   A    
O40   S22   D    
C17   C76   S    
H19   O31   S    
Cu11  O119  S    
O7    S11   D    
O47   S25   D    
Cu1   O105  S    
C63   S37   S    
H8    O189  S    
Cu8   O106  S    
C41   C49   A    
Cu8   Cu9   S    
O50   S26   D    
O175  S4    D    
C23   O116  A    
C31   C87   A    
C8    C81   S    
O51   S26   S    
O26   S18   D    
O169  S2    S    
H33   O74   S    
O63   S30   D    
C52   S26   S    
C59   C80   A    
O31   S19   S    
O190  S9    D    
O75   S35   D    
H46   O159  S    
C45   O182  A    
Cu9   O107  S    
O52   S27   D    
O23   S17   D    
O192  S9    S    
C5    O111  A    
C35   C95   A    
C6    O112  A    
O77   S35   S    
C31   C50   A    
C52   C77   A    
C11   O124  A    
H15   O18   S    
O49   S26   D    
H31   O67   S    
C20   C94   A    
C6    C83   S    
C57   S30   S    
O184  S7    D    
C22   C96   A    
C34   C94   S    
O87   S38   S    
O142  S12   D    
H6    O183  S    
C46   C77   A    
O99   S42   D    
Cu1   O116  S    
O9    S13   D    
C13   C72   S    
C38   C90   A    
C15   O134  A    
C49   S22   S    
Cu9   O110  S    
Cu4   O136  S    
C3    O101  A    
C46   S19   S    
O14   S14   D    
O95   S41   D    
O157  S46   D    
H20   O34   S    
C47   C81   A    
Cu11  O117  S    
H27   O54   S    
C4    O106  A    
O16   S15   D    
O67   S31   S    
C43   C47   A    
C42   C54   A    
O65   S31   D    
C78   O68   A    
O84   S37   S    
Cu6   O24   S    
O140  S1    S    
C44   C83   A    
C45   C93   S    
Cu6   O2    S    
O10   S13   D    
Cu2   O125  S    
Cu3   O132  S    
O86   S38   D    
H34   O150  S    
O43   S24   D    
C68   C71   A    
Cu5   O149  S    
Cu9   O109  S    
H24   O44   S    
C69   C76   A    
C33   C85   A    
C8    O114  A    
O33   S20   D    
C15   C79   S    
O17   S15   D    
O144  S23   D    
C53   S27   S    
O150  S34   S    
O38   S21   S    
O162  S47   D    
C23   O138  A    
C51   C81   A    
C11   O122  A    
O103  S43   D    
C27   S48   S    
C7    C77   S    
C25   S46   S    
C21   C88   A    
C67   C95   S    
O172  S3    D    
C57   C80   A    
C20   C70   A    
O153  S44   S    
O8    S11   S    
H5    O179  S    
C50   S24   S    
C31   S5    S    
C11   C82   S    
O78   S36   D    
C37   C86   A    
H9    O192  S    
C36   C57   A    
O97   S41   S    
O161  S47   D    
O92   S40   D    
C41   C84   A    
C42   S16   S    
C34   O171  A    
C48   S21   S    
C42   C90   A    
C44   S18   S    
O73   S33   D    
C54   S28   S    
C20   S23   S    
O145  S23   D    
C45   O57   A    
O66   S31   D    
C16   O131  A    
C27   C87   A    
H16   O21   S    
O104  S43   S    
C78   C85   S    
O21   S16   S    
Cu8   O90   S    
Cu7   O35   S    
O173  S3    S    
H29   O61   S    
C47   S20   S    
Cu12  O123  S    
C58   C74   A    
O147  S34   D    
C28   S2    S    
O164  S48   D    
Cu3   O130  S    
O59   S29   D    
O42   S24   D    
O163  S47   S    
O179  S5    S    
O15   S14   S    
H11   O8    S    
C38   C61   A    
C39   C44   A    
O64   S30   S    
Cu10  O112  S    
O155  S45   D    
C89   O79   A    
O170  S3    D    
Cu2   O124  S    
O80   S36   D    
H47   O163  S    
O89   S39   D    
C65   S39   S    
C9    O126  A    
C66   S40   S    
C10   O121  A    
Cu6   Cu7   S    
O166  S48   S    
Cu10  O113  S    
O12   S14   D    
C26   S47   S    
C1    O160  A    
C22   S44   S    
C14   O135  A    
C29   S3    S    
Cu12  O121  S    
O60   S29   D    
O44   S24   S    
O6    S11   D    
H21   O38   S    
C61   S35   S    
O76   S35   D    
O61   S29   S    
O146  S23   S    
C78   O24   A    
Cu1   O127  S    
C16   O133  A    
Cu2   O128  S    
O85   S38   D    
C4    O110  A    
H37   O84   S    
O34   S20   S    
O19   S16   D    
C59   S32   S    
C39   S13   S    
O71   S32   S    
O183  S6    S    
O167  S2    D    
H22   O41   S    
C36   C92   A    
C1    C88   S    
C25   C94   A    
C34   O127  A    
C3    C86   S    
C62   S36   S    
C33   C46   A    
O191  S9    D    
O39   S22   D    
C4    C90   S    
H13   O11   S    
O93   S40   D    
Cu11  O115  S    
O174  S4    D    
C17   O132  A    
C63   C73   A    
C26   C91   A    
H17   O25   S    
C5    C75   S    
H12   O143  S    
Cu4   O133  S    
Cu7   O68   S    
Cu5   O160  S    
C70   C73   A    
C12   O149  A    
O137  S1    D    
O29   S19   D    
H2    O169  S    
O186  S7    S    
C24   C88   A    
C22   C68   A    
O88   S39   D    
O54   S27   S    
C68   S41   S    
C30   C62   A    
C37   S10   S    
O41   S22   S    
O30   S19   D    
O3    S10   D    
C54   C82   A    
O98   S42   D    
C32   C66   A    
O187  S8    D    
C30   S4    S    
H44   O153  S    
C43   C86   A    
O22   S17   D    
Cu12  O120  S    
O55   S28   D    
C39   C84   A    
Cu2   O126  S    
O32   S20   D    
C17   O136  A    
Cu3   O131  S    
Cu4   O135  S    
O81   S36   S    
O141  S12   D    
O56   S28   D    
O18   S15   S    
C49   C83   A    
C7    O115  A    
C2    O90   A    
Cu7   O46   S    
C50   C75   A    
O176  S4    S    
O156  S45   S    
H3    O173  S    
O96   S41   D    
Cu9   O108  S    
H36   O81   S    
C12   O105  A    
O27   S18   D    
C8    O119  A    
C19   C91   A    
O148  S34   D    
O82   S37   D    
C24   C58   A    
C12   C96   S    
C5    O118  A    
H41   O97   S    
C36   S9    S    
C33   S7    S    
O91   S39   S    
H10   O5    S    
C18   C96   A    
C19   S12   S    
H18   O28   S    
O48   S25   S    
C26   C55   A    
O20   S16   D    
C28   C95   A    
C10   O125  A    
C30   C93   A    
Cu5   O138  S    
C37   C51   A    
C67   O35   A    
O154  S45   D    
C56   O46   A    
O181  S6    D    
C35   S8    S    
C15   O130  A    
C25   C63   A    
Cu11  O118  S    
O143  S12   S    
O139  S1    D    
C56   O2    A    
C41   S15   S    
H38   O87   S    
O58   S28   S    
O177  S5    D    
C35   C64   A    
O100  S42   S    
C24   S45   S    
Cu7   O57   S    
C89   O109  A    
C55   C72   A    
H45   O156  S    
O74   S33   S    
O158  S46   D    
Cu6   O13   S    
H30   O64   S    
C40   C59   A    
C48   C75   A    
Cu12  O122  S    
C51   S25   S    
C32   S6    S    
H43   O104  S    
O69   S32   D    
H28   O58   S    
Cu3   O129  S    
O37   S21   D    
O189  S8    S    
C16   C73   S    
C62   C79   A    
C7    O113  A    
H7    O186  S    
C18   S1    S    
C56   C87   S    
C43   S17   S    
O159  S46   S    
C21   S34   S    
C65   C71   A    
O168  S2    D    
C9    C80   S    
Cu1   O1    S    
C55   S29   S    
C69   S42   S    
O185  S7    D    
O151  S44   D    
H42   O100  S    
Cu3   Cu4   S    
O178  S5    D    
C64   C76   A    
C40   C92   A    
C2    C92   S    
O62   S30   D    
C58   S31   S    
O188  S8    D    
O28   S18   S    
C60   S33   S    
Cu10  O114  S    
C3    O107  A    
O152  S44   D    
C23   C91   S    
O45   S25   D    
C84   C89   S    
O72   S33   D    
C13   O123  A    
H14   O15   S    
H32   O71   S    
O180  S6    D    
C29   C85   A    
H48   O166  S    
H1    O140  S    
C19   C60   A    
H40   O94   S    
O102  S43   D    
H35   O77   S    
C1    O1    A    
C21   C53   A    
C10   C74   S    
H26   O51   S    
H25   O48   S    
C32   C93   A    
Cu8   O101  S    
O4    S10   D    
H4    O176  S    
H39   O91   S    
O25   S17   S    
O11   S13   S    
O36   S21   D    
O83   S37   D    
Cu1   Cu5   S    
O5    S10   S    
C29   C52   A    
