data_mof_unit_25553.cif
_audit_creation_date              2012-12-10T17:50:36-0500
_audit_creation_method            fapswitch 2.2
_symmetry_space_group_name_H-M    P1
_symmetry_Int_Tables_number       1
_space_group_crystal_system       triclinic
_cell_length_a                    15.722376
_cell_length_b                    10.729967
_cell_length_c                    9.89174
_cell_angle_alpha                 89.301115
_cell_angle_beta                  89.912551
_cell_angle_gamma                 91.683594
_cell_volume                      1667.89480515

loop_
_atom_site_label
_atom_site_type_symbol
_atom_type_description
_atom_site_fract_x
_atom_site_fract_y
_atom_site_fract_z
_atom_type_partial_charge
C1    C     C_R   0.505149 0.259853 0.501895 0.866097
C2    C     C_R   0.488150 0.044683 0.878318 -0.149926
C3    C     C_R   0.443377 0.931734 0.868061 -0.156610
C4    C     C_R   0.337968 0.499526 0.500077 0.882975
C5    C     C_R   0.434207 0.876098 0.742228 -0.153098
C6    C     C_R   0.469708 0.934008 0.624607 0.098501
C7    C     C_R   0.498575 0.058125 0.631457 0.096480
C8    C     C_R   0.508361 0.125853 0.507425 -0.119942
C9    C     C_R   0.507520 0.064253 0.383686 -0.222919
C10   C     C_R   0.496852 0.937369 0.380973 -0.217283
C11   C     C_R   0.480549 0.871368 0.500997 -0.127755
C12   C     C_3   0.082782 0.495001 0.497796 0.189943
C13   C     C_R   0.388158 0.336467 0.142398 -0.144597
C14   C     C_R   0.333087 0.256207 0.073067 -0.161817
C15   C     C_R   0.333006 0.256574 0.933191 -0.189500
C16   C     C_R   0.491394 0.738902 0.499797 0.878336
C17   C     C_R   0.388180 0.336938 0.861864 -0.155189
C18   C     C_R   0.444961 0.419439 0.928728 0.149466
C19   C     C_R   0.444975 0.419363 0.073453 0.156141
C20   C     C_R   0.552323 0.577565 0.070401 -0.123306
C21   C     C_R   0.552297 0.577534 0.927151 -0.115899
C22   C     C_R   0.662061 0.500165 0.499907 0.915292
C23   C     C_3   0.973294 0.564864 0.601033 -0.141944
C24   C     C_3   0.968865 0.377354 0.512787 -0.240597
C25   C     C_3   0.025973 0.426636 0.396061 0.056315
C26   C     C_1   0.249039 0.498037 0.500137 -0.157028
C27   C     C_1   0.751009 0.498640 0.499543 -0.195384
C28   C     C_3   0.026937 0.446774 0.615665 -0.182684
C29   C     C_2   0.053706 0.348702 0.280312 0.359249
C30   C     C_3   0.917167 0.495699 0.498117 0.200178
C31   C     C_3   0.030588 0.612958 0.483007 -0.183742
C32   C     C_3   0.972568 0.543918 0.379863 -0.234599
C33   C     C_1   0.173722 0.496546 0.499414 -0.008819
C34   C     C_1   0.826308 0.497131 0.498925 -0.071575
C35   C     C_R   0.515940 0.107635 0.761450 -0.166626
H1    H     H_    0.418287 0.885202 0.957949 0.140960
H2    H     H_    0.941766 0.281084 0.524364 0.137657
H3    H     H_    0.948488 0.583072 0.283299 0.137724
H4    H     H_    0.057665 0.709191 0.471040 0.140766
H5    H     H_    0.949477 0.621736 0.685315 0.133354
H6    H     H_    0.051050 0.407312 0.712044 0.144726
H7    H     H_    0.516290 0.113766 0.288284 0.170074
H8    H     H_    0.553380 0.192274 0.775963 0.170977
H9    H     H_    0.499889 0.084952 0.976636 0.141758
H10   H     H_    0.006211 0.304987 0.215569 0.054486
H11   H     H_    0.398999 0.788088 0.737968 0.161016
H12   H     H_    0.502939 0.891042 0.284836 0.169349
H13   H     H_    0.595005 0.640930 0.123383 0.145609
H14   H     H_    0.383999 0.330709 0.249587 0.211420
H15   H     H_    0.290196 0.193349 0.128407 0.175325
H16   H     H_    0.290298 0.193685 0.879414 0.157007
H17   H     H_    0.384894 0.330829 0.754758 0.210718
H18   H     H_    0.594932 0.640928 0.872231 0.153616
N1    N     N_R   0.499210 0.498800 0.142780 -0.120528
N2    N     N_R   0.499180 0.498720 0.857170 -0.125285
O1    O     O_R   0.500000 0.316780 0.614690 -0.654542
O2    O     O_R   0.499990 0.316750 0.385360 -0.642148
O3    O     O_R   0.376780 0.500000 0.614650 -0.643162
O4    O     O_R   0.376770 0.499980 0.385310 -0.619157
O5    O     O_R   0.500010 0.683250 0.614640 -0.624237
O6    O     O_R   0.500000 0.683220 0.385310 -0.620231
O7    O     O_R   0.623230 0.500020 0.614690 -0.612677
O8    O     O_R   0.623220 0.500000 0.385350 -0.610962
O9    O     O_2   0.129077 0.333935 0.258116 -0.575844
Zn1   Zn    Zn3+2 0.500010 0.500020 0.653130 0.924745
Zn2   Zn    Zn3+2 0.499990 0.499980 0.346870 0.939355

loop_
_geom_bond_atom_site_label_1
_geom_bond_atom_site_label_2
_ccdc_geom_bond_type
C2    C35   A    
C4    C26   S    
C6    C7    A    
N1    Zn2   S    
C1    O2    A    
C22   O7    A    
C1    C8    S    
C35   H8    S    
C9    C10   A    
C12   C25   S    
O3    Zn1   S    
C31   C32   S    
O2    Zn2   S    
C10   C11   A    
C25   C32   S    
C17   C18   A    
C12   C33   S    
C29   O9    D    
C21   N2    A    
C7    C8    A    
C12   C31   S    
C14   H15   S    
C13   C14   A    
C24   C25   S    
C30   C32   S    
C9    H7    S    
C20   H13   S    
C3    H1    S    
C12   C28   S    
C13   H14   S    
C21   H18   S    
C17   H17   S    
C27   C34   T    
N2    Zn1   S    
C1    O1    A    
C31   H4    S    
O5    Zn1   S    
C24   H2    S    
C18   N2    A    
C32   H3    S    
C22   C27   S    
O4    Zn2   S    
C16   O5    A    
C5    C6    A    
C15   H16   S    
O8    Zn2   S    
C24   C30   S    
C16   O6    A    
C30   C34   S    
O1    Zn1   S    
C23   C30   S    
C28   H6    S    
C6    C11   A    
C20   C21   A    
C4    O4    A    
C25   C29   S    
C20   N1    A    
C18   C19   A    
C5    H11   S    
C4    O3    A    
C10   H12   S    
C15   C17   A    
C23   H5    S    
C13   C19   A    
C14   C15   A    
C19   N1    A    
C2    C3    A    
C26   C33   T    
O7    Zn1   S    
C22   O8    A    
C23   C28   S    
C7    C35   A    
O6    Zn2   S    
C11   C16   S    
C2    H9    S    
C24   C28   S    
C29   H10   S    
C8    C9    A    
C3    C5    A    
C23   C31   S    
