data_mof_unit_60063.cif
_audit_creation_date              2012-12-10T20:43:38-0500
_audit_creation_method            fapswitch 2.2
_symmetry_space_group_name_H-M    P1
_symmetry_Int_Tables_number       1
_space_group_crystal_system       triclinic
_cell_length_a                    10.830031
_cell_length_b                    19.222436
_cell_length_c                    19.220905
_cell_angle_alpha                 94.622629
_cell_angle_beta                  91.684482
_cell_angle_gamma                 96.823178
_cell_volume                      3957.06492927

loop_
_atom_site_label
_atom_site_type_symbol
_atom_type_description
_atom_site_fract_x
_atom_site_fract_y
_atom_site_fract_z
_atom_type_partial_charge
C1    C     C_R   0.513797 0.690241 0.508127 0.793172
C2    C     C_R   0.521710 0.767193 0.510133 0.001906
C3    C     C_R   0.627377 0.805593 0.485191 -0.209503
C4    C     C_R   0.484443 0.310016 0.492995 0.858664
C5    C     C_R   0.634298 0.878201 0.483874 -0.198614
C6    C     C_R   0.472118 0.503662 0.764584 -0.057538
C7    C     C_R   0.579890 0.499184 0.805316 -0.247058
C8    C     C_R   0.574031 0.493950 0.876759 -0.164253
C9    C     C_R   0.459152 0.492746 0.909264 0.269064
C10   C     C_R   0.351063 0.496319 0.868914 -0.182161
C11   C     C_R   0.354723 0.501678 0.796241 0.125223
C12   C     C_R   0.580157 0.201173 0.499635 -0.265227
C13   C     C_R   0.431736 0.457308 0.118118 -0.166440
C14   C     C_R   0.424772 0.456066 0.190415 -0.228473
C15   C     C_R   0.537249 0.492821 0.089222 0.322072
C16   C     C_R   0.513736 0.492911 0.310927 0.788545
C17   C     C_R   0.522158 0.490640 0.234669 0.002243
C18   C     C_R   0.628089 0.524569 0.205588 -0.209412
C19   C     C_R   0.635769 0.524940 0.133478 -0.198760
C20   C     C_R   0.484853 0.505855 0.688741 0.786389
C21   C     C_R   0.835266 0.515520 0.515202 0.858816
C22   C     C_R   0.163971 0.485066 0.485155 0.910730
C23   C     C_R   0.574194 0.128793 0.501983 -0.154212
C24   C     C_2   0.029123 0.479120 0.479598 -0.334764
C25   C     C_2   0.968597 0.521672 0.520637 -0.305690
C26   C     C_R   0.471182 0.233324 0.494231 -0.015488
C27   C     C_3   0.235999 0.503256 0.751837 -0.356830
C28   C     C_3   0.113319 0.489042 0.788693 -0.906442
C29   C     C_2   0.232709 0.221131 0.492590 0.397764
C30   C     C_R   0.458006 0.086718 0.498929 0.327457
C31   C     C_R   0.349147 0.118596 0.493439 -0.290602
C32   C     C_R   0.353432 0.191660 0.492131 -0.024821
C33   C     C_R   0.430034 0.875510 0.532626 -0.165154
C34   C     C_R   0.423788 0.802756 0.534841 -0.229158
C35   C     C_R   0.535343 0.913633 0.506073 0.322519
H1    H     H_    0.978749 0.439867 0.441883 0.147881
H2    H     H_    0.016659 0.561486 0.558528 0.157945
H3    H     H_    0.341606 0.774237 0.554524 0.163137
H4    H     H_    0.352882 0.901691 0.551558 0.150230
H5    H     H_    0.260047 0.086051 0.492266 0.134585
H6    H     H_    0.704827 0.779481 0.466498 0.165734
H7    H     H_    0.660639 0.106174 0.506727 0.152997
H8    H     H_    0.716269 0.906950 0.464194 0.141371
H9    H     H_    0.106937 0.437380 0.811262 0.267318
H10   H     H_    0.104570 0.531639 0.830199 0.256595
H11   H     H_    0.034324 0.487674 0.750220 0.260561
H12   H     H_    0.670631 0.232348 0.501907 0.161465
H13   H     H_    0.238386 0.555658 0.731076 0.230272
H14   H     H_    0.233643 0.462798 0.706935 0.213913
H15   H     H_    0.148179 0.187679 0.474405 0.055244
H16   H     H_    0.342467 0.429281 0.211685 0.164732
H17   H     H_    0.354917 0.430712 0.085086 0.150656
H18   H     H_    0.264421 0.494955 0.895556 0.155010
H19   H     H_    0.705167 0.550963 0.238603 0.166343
H20   H     H_    0.659445 0.490334 0.906227 0.157250
H21   H     H_    0.717843 0.551689 0.111928 0.142571
H22   H     H_    0.669546 0.499832 0.781601 0.165378
N1    N     N_2   0.445985 0.012758 0.503242 -0.196331
N2    N     N_2   0.546651 0.987355 0.501509 -0.206197
N3    N     N_2   0.447567 0.487247 0.982128 -0.197488
N4    N     N_2   0.548564 0.497446 0.016388 -0.200243
O1    O     O_3   0.500000 0.500000 0.500000 -0.485088
O2    O     O_R   0.783160 0.551820 0.473170 -0.640499
O3    O     O_R   0.222430 0.530340 0.530340 -0.649960
O4    O     O_R   0.771990 0.472690 0.551320 -0.634039
O5    O     O_R   0.222420 0.445150 0.445160 -0.622352
O6    O     O_2   0.224477 0.281196 0.516215 -0.571000
O7    O     O_R   0.435070 0.449940 0.339290 -0.649093
O8    O     O_R   0.419380 0.543640 0.654290 -0.657821
O9    O     O_R   0.586230 0.658380 0.469080 -0.647241
O10   O     O_R   0.559310 0.348040 0.537340 -0.644194
O11   O     O_R   0.435110 0.654980 0.544320 -0.645266
O12   O     O_R   0.419350 0.338590 0.449260 -0.608932
O13   O     O_R   0.586210 0.538520 0.349230 -0.646575
O14   O     O_R   0.559330 0.467910 0.657200 -0.631129
Zn1   Zn    Zn3+2 0.396020 0.434560 0.434560 1.007009
Zn2   Zn    Zn3+2 0.611960 0.561120 0.448760 0.961890
Zn3   Zn    Zn3+2 0.595990 0.448060 0.560420 0.986610
Zn4   Zn    Zn3+2 0.396040 0.556260 0.556260 0.962788

loop_
_geom_bond_atom_site_label_1
_geom_bond_atom_site_label_2
_ccdc_geom_bond_type
C19   H21   S    
C27   H13   S    
C26   C32   A    
O1    Zn2   S    
C7    C8    A    
C15   C19   A    
C12   C23   A    
C28   H11   S    
C24   H1    S    
C23   H7    S    
C16   O13   A    
C1    C2    S    
O11   Zn4   S    
C30   C31   A    
C30   N1    S    
C31   H5    S    
C35   N2    S    
C18   C19   A    
C10   H18   S    
C22   O5    A    
C25   H2    S    
C29   O6    D    
C31   C32   A    
C8    C9    A    
O13   Zn2   S    
C16   O7    A    
C9    C10   A    
C2    C34   A    
C5    H8    S    
C13   C14   A    
O9    Zn2   S    
C14   C17   A    
O1    Zn1   S    
C12   H12   S    
C8    H20   S    
C33   C34   A    
C29   H15   S    
C28   H10   S    
C1    O11   A    
C23   C30   A    
O1    Zn4   S    
C24   C25   D    
O3    Zn4   S    
C6    C11   A    
C16   C17   S    
N1    N2    D    
C28   H9    S    
C20   O14   A    
C12   C26   A    
N3    N4    D    
C13   H17   S    
C14   H16   S    
C11   C27   S    
O5    Zn1   S    
C17   C18   A    
C15   N4    S    
C33   H4    S    
C4    O12   A    
C13   C15   A    
O12   Zn1   S    
C22   C24   S    
C20   O8    A    
O8    Zn4   S    
O7    Zn1   S    
O2    Zn2   S    
C21   C25   S    
C3    H6    S    
O4    Zn3   S    
C21   O4    A    
C34   H3    S    
O1    Zn3   S    
C3    C5    A    
C4    C26   S    
C6    C7    A    
C29   C32   S    
C6    C20   S    
C1    O9    A    
C9    N3    S    
C2    C3    A    
C5    C35   A    
C33   C35   A    
O10   Zn3   S    
O14   Zn3   S    
C21   O2    A    
C10   C11   A    
C18   H19   S    
C22   O3    A    
C27   C28   S    
C7    H22   S    
C4    O10   A    
C27   H14   S    
