data_mof_unit_8963.cif
_audit_creation_date              2012-12-10T17:59:50-0500
_audit_creation_method            fapswitch 2.2
_symmetry_space_group_name_H-M    P1
_symmetry_Int_Tables_number       1
_space_group_crystal_system       triclinic
_cell_length_a                    10.825601
_cell_length_b                    9.511765
_cell_length_c                    15.902891
_cell_angle_alpha                 90.198932
_cell_angle_beta                  90.392183
_cell_angle_gamma                 89.970611
_cell_volume                      1637.48136698

loop_
_atom_site_label
_atom_site_type_symbol
_atom_type_description
_atom_site_fract_x
_atom_site_fract_y
_atom_site_fract_z
_atom_type_partial_charge
C1    C     C_R   0.262056 0.500021 0.499995 0.802853
C2    C     C_R   0.936082 0.627772 0.500456 -0.172202
C3    C     C_R   0.871791 0.499976 0.500306 -0.021070
C4    C     C_R   0.128231 0.500025 0.500125 -0.015788
C5    C     C_R   0.424181 0.074181 0.446846 0.003081
C6    C     C_R   0.424172 0.925305 0.446852 0.001277
C7    C     C_R   0.499359 0.499742 0.340238 0.830050
C8    C     C_R   0.575855 0.925817 0.553215 -0.013187
C9    C     C_R   0.575871 0.074696 0.553203 -0.009834
C10   C     C_R   0.737955 0.499980 0.500161 0.783213
C11   C     C_R   0.500535 0.500241 0.659767 0.830715
C12   C     C_3   0.633353 0.544089 0.952018 0.171667
C13   C     C_3   0.388317 0.599546 0.049358 0.239494
C14   C     C_3   0.470903 0.342272 0.048852 0.256049
C15   C     C_3   0.467219 0.346837 0.949613 -0.032124
C16   C     C_3   0.396003 0.602491 0.950951 -0.011116
C17   C     C_1   0.500804 0.500782 0.749144 -0.143871
C18   C     C_3   0.491711 0.496995 0.083245 0.005723
C19   C     C_3   0.499302 0.499563 0.916678 0.045533
C20   C     C_3   0.690901 0.684296 0.913822 -0.380242
C21   C     C_3   0.617469 0.821340 0.903929 -0.376507
C22   C     C_3   0.700975 0.942567 0.877025 -0.801517
C23   C     C_3   0.620409 0.552518 0.050643 -0.475885
C24   C     C_3   0.733553 0.428041 0.928364 -0.440844
C25   C     C_3   0.869918 0.461734 0.950913 -0.369670
C26   C     C_3   0.951076 0.330566 0.945403 -0.681997
C27   C     C_1   0.500366 0.500682 0.824511 0.008619
C28   C     C_1   0.494120 0.497906 0.175444 0.076380
C29   C     C_1   0.496742 0.498933 0.250830 -0.095288
C30   C     C_R   0.063947 0.372230 0.500092 -0.161827
C31   C     C_R   0.063824 0.627795 0.500340 -0.161539
C32   C     C_R   0.936205 0.372206 0.500206 -0.171025
Cu1   Cu    Cu3+1 0.500020 0.640660 0.500000 0.965979
Cu2   Cu    Cu3+1 0.500020 0.359340 0.500000 0.970467
H1    H     H_    0.636625 0.869870 0.595786 0.118337
H2    H     H_    0.887973 0.727663 0.500614 0.153320
H3    H     H_    0.363390 0.130132 0.404295 0.137707
H4    H     H_    0.363358 0.868946 0.404310 0.137908
H5    H     H_    0.772802 0.963503 0.925711 0.270592
H6    H     H_    0.746378 0.917558 0.816341 0.244983
H7    H     H_    0.644803 0.039383 0.868852 0.253148
H8    H     H_    0.546539 0.808920 0.853664 0.236578
H9    H     H_    0.576195 0.852094 0.964432 0.267928
H10   H     H_    0.772487 0.712424 0.953249 0.222831
H11   H     H_    0.726382 0.660182 0.849785 0.201165
H12   H     H_    0.636678 0.131052 0.595751 0.118814
H13   H     H_    0.919906 0.250038 0.991011 0.260188
H14   H     H_    0.947513 0.285734 0.880838 0.248604
H15   H     H_    0.048109 0.358635 0.960766 0.295785
H16   H     H_    0.907537 0.540237 0.906334 0.239719
H17   H     H_    0.878035 0.505350 0.015506 0.246067
H18   H     H_    0.714493 0.327974 0.958813 0.230502
H19   H     H_    0.729144 0.406248 0.859672 0.190326
H20   H     H_    0.535874 0.271409 0.925430 0.131876
H21   H     H_    0.420434 0.709495 0.935077 0.148421
H22   H     H_    0.635813 0.662130 0.072141 0.209031
H23   H     H_    0.695432 0.493011 0.082335 0.211195
H24   H     H_    0.112062 0.272342 0.499943 0.154100
H25   H     H_    0.111841 0.727688 0.500393 0.153986
H26   H     H_    0.888193 0.272310 0.500158 0.153615
I1    I     I_    0.223588 0.610923 0.879544 -0.317478
I2    I     I_    0.312138 0.244564 0.886716 -0.288491
I3    I     I_    0.203679 0.566037 0.098568 -0.258149
I4    I     I_    0.320114 0.227091 0.106938 -0.193337
I5    I     I_    0.614389 0.200252 0.094118 -0.375141
I6    I     I_    0.412110 0.810428 0.100469 -0.289170
N1    N     N_R   0.500030 0.852070 0.500020 -0.163821
N2    N     N_R   0.500030 0.147930 0.500020 -0.163816
O1    O     O_R   0.319660 0.618740 0.500000 -0.588585
O2    O     O_R   0.319660 0.381260 0.500000 -0.588646
O3    O     O_R   0.500020 0.618840 0.379440 -0.570231
O4    O     O_R   0.500020 0.381160 0.379440 -0.565307
O5    O     O_R   0.680370 0.618830 0.500010 -0.590583
O6    O     O_R   0.680370 0.381170 0.500010 -0.590034
O7    O     O_R   0.500010 0.618730 0.620560 -0.577076
O8    O     O_R   0.500010 0.381270 0.620560 -0.572428

loop_
_geom_bond_atom_site_label_1
_geom_bond_atom_site_label_2
_ccdc_geom_bond_type
C24   H18   S    
C7    C29   S    
C5    H3    S    
C14   C18   S    
C23   H22   S    
C15   C19   S    
C12   C23   S    
C13   C18   S    
C28   C29   T    
C11   O8    A    
C7    O3    A    
C5    C6    A    
C10   O5    A    
C22   H7    S    
C31   H25   S    
C25   H16   S    
C21   H9    S    
C14   I5    S    
C8    C9    A    
C6    H4    S    
C19   C27   S    
Cu2   O2    S    
C20   H11   S    
C26   H14   S    
C22   H6    S    
C9    H12   S    
C21   C22   S    
C5    N2    A    
C20   H10   S    
Cu1   O7    S    
C13   I6    S    
C18   C23   S    
C17   C27   T    
C15   H20   S    
C18   C28   S    
C24   C25   S    
C26   H15   S    
Cu2   N2    S    
C7    O4    A    
C25   C26   S    
C1    O1    A    
C2    C31   A    
C8    H1    S    
C25   H17   S    
C13   I3    S    
C14   I4    S    
C12   C20   S    
Cu1   Cu2   S    
C26   H13   S    
Cu2   O6    S    
Cu1   O5    S    
C6    N1    A    
C16   I1    S    
C32   H26   S    
Cu2   O4    S    
Cu1   N1    S    
C2    H2    S    
C23   H23   S    
C11   C17   S    
Cu1   O1    S    
C12   C24   S    
C1    O2    A    
C1    C4    S    
C2    C3    A    
C24   H19   S    
C16   H21   S    
C3    C10   S    
C11   O7    A    
C30   C32   A    
C10   O6    A    
C16   C19   S    
C22   H5    S    
C30   H24   S    
C12   C19   S    
C15   I2    S    
C3    C32   A    
C9    N2    A    
C4    C31   A    
Cu1   O3    S    
C21   H8    S    
C20   C21   S    
C8    N1    A    
C13   C16   S    
C14   C15   S    
C4    C30   A    
Cu2   O8    S    
