data_mof_unit_21134.cif
_audit_creation_date              2012-12-11T17:15:54-0500
_audit_creation_method            fapswitch 2.2
_symmetry_space_group_name_H-M    P1
_symmetry_Int_Tables_number       1
_space_group_crystal_system       triclinic
_cell_length_a                    14.638692
_cell_length_b                    7.270898
_cell_length_c                    13.43248
_cell_angle_alpha                 89.999404
_cell_angle_beta                  99.5245
_cell_angle_gamma                 90.001634
_cell_volume                      1409.99672343

loop_
_atom_site_label
_atom_site_type_symbol
_atom_type_description
_atom_site_fract_x
_atom_site_fract_y
_atom_site_fract_z
_atom_type_partial_charge
O1    O     O_R   0.398210 0.494340 0.401550 -0.534793
O2    O     O_R   0.601790 0.994340 0.598450 -0.534793
O3    O     O_R   0.586310 0.821730 0.403360 -0.509063
O4    O     O_R   0.413690 0.321730 0.596640 -0.508981
C1    C     C_R   0.615499 0.656514 0.382037 0.681932
C2    C     C_R   0.384499 0.156510 0.617960 0.682006
O5    O     O_R   0.397970 0.823900 0.389580 -0.533353
O6    O     O_R   0.602030 0.323900 0.610420 -0.533331
O7    O     O_R   0.412100 0.996500 0.584560 -0.547372
O8    O     O_R   0.587900 0.496500 0.415440 -0.547385
C3    C     C_R   0.365121 0.655290 0.363191 0.729218
C4    C     C_R   0.634879 0.155292 0.636809 0.729191
O9    O     O_3   0.504860 0.661550 0.563990 -0.378656
O10   O     O_3   0.495140 0.161550 0.436010 -0.378769
V1    V     V_3+5 0.499100 0.935510 0.488130 1.424489
V2    V     V_3+5 0.500900 0.435510 0.511870 1.424667
C5    C     C_1   0.716052 0.144711 0.716721 -0.192162
C6    C     C_1   0.283948 0.644709 0.283279 -0.192191
C7    C     C_1   0.784014 0.134074 0.783147 -0.189011
C8    C     C_1   0.215986 0.634076 0.216853 -0.189025
C9    C     C_3   0.222391 0.334991 0.804977 -0.390777
C10   C     C_3   0.777648 0.834999 0.195060 -0.390678
H1    H     H_    0.162873 0.422824 0.771501 0.143479
H2    H     H_    0.837178 0.922765 0.228579 0.143465
H3    H     H_    0.245728 0.391666 0.882015 0.129675
H4    H     H_    0.754350 0.891754 0.118033 0.129651
C11   C     C_3   0.302203 0.347874 0.741255 0.600297
C12   C     C_3   0.697815 0.847888 0.258750 0.600301
H5    H     H_    0.085579 0.163118 0.673743 0.126432
H6    H     H_    0.914431 0.662997 0.326256 0.126452
H7    H     H_    0.190537 0.145705 0.562385 0.131747
H8    H     H_    0.809475 0.645720 0.437594 0.131767
C13   C     C_3   0.144499 0.071834 0.704585 -0.337819
C14   C     C_3   0.855491 0.571771 0.295408 -0.337849
C15   C     C_3   0.272229 0.009146 0.850552 -0.352018
C16   C     C_3   0.727757 0.509181 0.149436 -0.352000
C17   C     C_3   0.187274 0.134514 0.812532 0.077615
C18   C     C_3   0.812729 0.634506 0.187471 0.077566
H9    H     H_    0.248970 0.865128 0.858903 0.154186
H10   H     H_    0.750992 0.365153 0.141073 0.154232
H11   H     H_    0.306713 0.055840 0.926353 0.128141
H12   H     H_    0.693284 0.555909 0.073639 0.128131
C19   C     C_3   0.312841 0.152707 0.688889 0.096319
C20   C     C_3   0.687157 0.652718 0.311108 0.096396
C21   C     C_3   0.218041 0.075222 0.633627 -0.382114
C22   C     C_3   0.781953 0.575210 0.366368 -0.382204
C23   C     C_3   0.342958 0.012166 0.775621 -0.406395
C24   C     C_3   0.657024 0.512207 0.224363 -0.406283
H13   H     H_    0.414319 0.037717 0.816099 0.143658
H14   H     H_    0.585674 0.537834 0.183876 0.143725
H15   H     H_    0.346768 0.875187 0.741962 0.160949
H16   H     H_    0.653186 0.375210 0.258004 0.160910
H17   H     H_    0.116248 0.930041 0.706873 0.150084
H18   H     H_    0.883704 0.429958 0.293106 0.150112
H19   H     H_    0.228400 0.932092 0.608762 0.151788
H20   H     H_    0.771580 0.432094 0.391245 0.151807
O11   O     O_R   0.912140 0.786650 0.084610 -0.539394
O12   O     O_R   0.087860 0.286650 0.915390 -0.539396
O13   O     O_R   0.102040 0.454810 0.110430 -0.534755
O14   O     O_R   0.897960 0.954810 0.889570 -0.534756
C25   C     C_R   0.134849 0.623513 0.136864 0.719258
C26   C     C_R   0.865151 0.123512 0.863135 0.719263
O15   O     O_R   0.913690 0.457060 0.096650 -0.543243
O16   O     O_R   0.086310 0.957060 0.903350 -0.543245
O17   O     O_R   0.898200 0.284560 0.901540 -0.530823
O18   O     O_R   0.101800 0.784560 0.098460 -0.530829
C27   C     C_R   0.884556 0.625314 0.117310 0.665221
C28   C     C_R   0.115446 0.125317 0.882692 0.665211
O19   O     O_3   0.995160 0.617270 0.936040 -0.376067
O20   O     O_3   0.004840 0.117270 0.063960 -0.376067
V3    V     V_3+5 0.000900 0.343280 0.011870 1.387526
V4    V     V_3+5 0.999100 0.843280 0.988130 1.387517
N1    N     N_2   0.390011 0.382321 0.810800 -0.535338
H21   H     H_    0.397693 0.314072 0.879004 0.240325
C29   C     C_3   0.432515 0.562242 0.822259 -0.567594
H22   H     H_    0.502170 0.550728 0.869412 0.185541
H23   H     H_    0.390086 0.654813 0.861752 0.179624
H24   H     H_    0.442608 0.618158 0.748025 0.242927
N2    N     N_2   0.610029 0.882335 0.189170 -0.535564
H25   H     H_    0.602397 0.814326 0.120899 0.240325
C30   C     C_3   0.567279 0.062023 0.177987 -0.567387
H26   H     H_    0.497537 0.050196 0.131078 0.185572
H27   H     H_    0.609417 0.154937 0.138358 0.179618
H28   H     H_    0.557365 0.117733 0.252316 0.243089
N3    N     N_2   0.282637 0.503959 0.670543 -0.488243
H29   H     H_    0.270725 0.623008 0.707717 0.243137
C31   C     C_3   0.217259 0.491612 0.577230 -0.589943
H30   H     H_    0.206483 0.630156 0.542664 0.176227
H31   H     H_    0.148958 0.441573 0.591260 0.183020
H32   H     H_    0.245577 0.406262 0.521272 0.205852
N4    N     N_2   0.717367 0.003983 0.329451 -0.488410
H33   H     H_    0.729288 0.123035 0.292278 0.243147
C32   C     C_3   0.782684 0.991644 0.422812 -0.589683
H34   H     H_    0.793357 0.130178 0.457447 0.176204
H35   H     H_    0.851036 0.941779 0.408823 0.182967
H36   H     H_    0.754353 0.906142 0.478713 0.205801

loop_
_geom_bond_atom_site_label_1
_geom_bond_atom_site_label_2
_ccdc_geom_bond_type
C31   H30   S    
C3    C6    S    
C32   H34   S    
C13   C21   S    
N1    H21   S    
C16   H12   S    
O1    C3    A    
C15   C23   S    
C2    O7    A    
C30   H26   S    
C23   H13   S    
N3    H29   S    
O5    C3    A    
O16   C28   A    
C15   C17   S    
O12   V3    S    
O14   V4    S    
C7    C26   S    
C10   C18   S    
C17   C28   S    
H5    C13   S    
O14   C26   A    
C8    C25   S    
C11   N3    S    
C12   N2    S    
C25   O18   A    
O18   V4    S    
C4    C5    S    
O20   V3    S    
C14   C22   S    
O5    V1    S    
C9    C11   S    
O2    C4    A    
O6    V2    S    
C10   C12   S    
N1    C29   S    
O11   C27   A    
C30   H27   S    
C20   C22   S    
N3    C31   S    
C13   H17   S    
O15   C27   A    
O13   C25   A    
H6    C14   S    
C16   H10   S    
O4    C2    A    
N4    H33   S    
N2    C30   S    
C23   H15   S    
O17   V3    S    
C12   C20   S    
C13   C17   S    
O4    V2    S    
O19   V4    S    
C15   H9    S    
C29   H22   S    
N4    C32   S    
C29   H23   S    
O6    C4    A    
O1    V2    S    
O2    V1    S    
C19   C21   S    
O12   C28   A    
C1    C20   S    
O15   V3    S    
C14   H18   S    
C32   H36   S    
C2    C19   S    
C9    H1    S    
H7    C21   S    
C10   H2    S    
C31   H32   S    
C30   H28   S    
O3    V1    S    
C9    H3    S    
C26   O17   A    
C14   C18   S    
H8    C22   S    
O3    C1    A    
C16   C18   S    
O7    V1    S    
C1    O8    A    
O8    V2    S    
C24   H14   S    
C5    C7    T    
C16   C24   S    
C12   N4    S    
C6    C8    T    
O16   V4    S    
O11   V4    S    
C15   H11   S    
C29   H24   S    
N2    H25   S    
C11   C19   S    
C24   H16   S    
C9    C17   S    
C18   C27   S    
C21   H19   S    
C32   H35   S    
C10   H4    S    
O9    V2    S    
C22   H20   S    
C31   H31   S    
O10   V1    S    
C11   N1    S    
C19   C23   S    
C20   C24   S    
O13   V3    S    
