data_mof_unit_53962.cif
_audit_creation_date              2012-12-10T19:45:40-0500
_audit_creation_method            fapswitch 2.2
_symmetry_space_group_name_H-M    P1
_symmetry_Int_Tables_number       1
_space_group_crystal_system       triclinic
_cell_length_a                    10.883543
_cell_length_b                    14.772939
_cell_length_c                    14.784388
_cell_angle_alpha                 64.872239
_cell_angle_beta                  104.307457
_cell_angle_gamma                 103.436307
_cell_volume                      2063.23867567

loop_
_atom_site_label
_atom_site_type_symbol
_atom_type_description
_atom_site_fract_x
_atom_site_fract_y
_atom_site_fract_z
_atom_type_partial_charge
C1    C     C_R   0.479761 0.119708 0.312322 0.818032
C2    C     C_R   0.522520 0.880314 0.687712 0.815554
C3    C     C_R   0.870442 0.002289 0.493962 -0.086129
C4    C     C_R   0.129669 0.997199 0.506574 -0.086927
C5    C     C_R   0.905554 0.949283 0.446073 0.008463
C6    C     C_R   0.094658 0.049289 0.555360 0.010023
C7    C     C_R   0.477781 0.187685 0.205174 -0.046984
C8    C     C_R   0.541095 0.812531 0.795407 -0.048585
C9    C     C_R   0.472763 0.217379 0.030449 -0.203871
C10   C     C_R   0.591341 0.783799 0.973329 -0.205753
C11   C     C_R   0.464299 0.150522 0.130017 -0.169218
C12   C     C_R   0.574450 0.850107 0.872004 -0.160825
C13   C     C_R   0.497505 0.292155 0.179357 -0.254431
C14   C     C_R   0.526804 0.708258 0.821248 -0.259998
C15   C     C_R   0.511396 0.361200 0.080410 0.088496
C16   C     C_R   0.547084 0.639965 0.922770 0.089406
C17   C     C_R   0.496223 0.322142 0.005112 0.167228
C18   C     C_R   0.576550 0.679269 0.999205 0.167609
C19   C     C_R   0.537884 0.467655 0.054069 0.067029
C20   C     C_R   0.534993 0.533771 0.950316 0.067694
C21   C     C_R   0.522671 0.491644 0.877970 -0.219421
C22   C     C_R   0.569915 0.510190 0.128044 -0.222181
C23   C     C_R   0.263022 0.998214 0.503436 0.797982
C24   C     C_R   0.737030 0.001660 0.496705 0.799541
C25   C     C_R   0.505016 0.387886 0.905406 -0.228283
C26   C     C_R   0.590344 0.613985 0.100730 -0.225573
C27   C     C_R   0.718876 0.292929 0.662845 -0.335171
C28   C     C_R   0.278811 0.705962 0.339020 -0.332076
C29   C     C_R   0.691210 0.212067 0.632654 0.184785
C30   C     C_R   0.308739 0.788130 0.367311 0.184891
C31   C     C_R   0.512247 0.281875 0.513407 -0.006464
C32   C     C_R   0.485724 0.716888 0.488322 -0.002853
C33   C     C_R   0.543772 0.369913 0.537388 -0.006517
C34   C     C_R   0.451983 0.627775 0.466076 -0.009112
C35   C     C_R   0.646492 0.371041 0.616629 0.131952
C36   C     C_R   0.349126 0.626625 0.386938 0.130238
C37   C     C_R   0.478381 0.456480 0.486486 0.104671
C38   C     C_R   0.515790 0.540403 0.518189 0.108826
C39   C     C_R   0.614950 0.533827 0.601206 -0.218039
C40   C     C_R   0.378045 0.462481 0.404341 -0.220117
C41   C     C_R   0.679456 0.451023 0.648767 -0.185786
C42   C     C_R   0.314089 0.545557 0.356411 -0.182163
C43   C     C_R   0.359951 0.087684 0.762574 -0.156350
C44   C     C_R   0.641912 0.900274 0.242851 -0.157942
C45   C     C_R   0.271907 0.041381 0.703028 -0.090077
C46   C     C_R   0.728186 0.950328 0.299845 -0.092564
C47   C     C_R   0.188114 0.097806 0.619436 0.067412
C48   C     C_R   0.812505 0.897017 0.385209 0.067776
C49   C     C_R   0.190578 0.200194 0.598852 -0.146510
C50   C     C_R   0.812054 0.793881 0.410400 -0.135484
C51   C     C_R   0.276776 0.246325 0.659811 0.220059
C52   C     C_R   0.727266 0.743894 0.352426 0.218711
C53   C     C_R   0.363033 0.189784 0.740940 -0.151632
C54   C     C_R   0.640707 0.797415 0.269151 -0.163298
C55   C     C_R   0.965433 0.052417 0.546418 -0.223636
C56   C     C_R   0.034794 0.946986 0.454313 -0.226932
Cu1   Cu    Cu3+1 0.466270 0.918260 0.475690 0.973799
Cu2   Cu    Cu3+1 0.533730 0.081740 0.524310 0.973438
H1    H     H_    0.432138 0.224397 0.787627 0.112159
H2    H     H_    0.572959 0.759898 0.224307 0.119621
H3    H     H_    0.461851 0.187100 0.973336 0.129474
H4    H     H_    0.615230 0.814207 0.031594 0.134778
H5    H     H_    0.530405 0.536904 0.799596 0.140611
H6    H     H_    0.583980 0.465482 0.208340 0.144140
H7    H     H_    0.757172 0.450004 0.711220 0.145247
H8    H     H_    0.235701 0.546244 0.294479 0.144711
H9    H     H_    0.567127 0.725473 0.544157 0.132403
H10   H     H_    0.431053 0.273122 0.457522 0.132873
H11   H     H_    0.800202 0.296110 0.721843 0.169462
H12   H     H_    0.197333 0.702824 0.280108 0.168208
H13   H     H_    0.645565 0.591871 0.631195 0.125716
H14   H     H_    0.346047 0.403852 0.375210 0.129471
H15   H     H_    0.425613 0.044282 0.825890 0.126936
H16   H     H_    0.576264 0.941298 0.177779 0.127372
H17   H     H_    0.269960 0.961928 0.721247 0.109839
H18   H     H_    0.728695 0.030279 0.278043 0.113055
H19   H     H_    0.125496 0.244266 0.535298 0.153090
H20   H     H_    0.877677 0.752186 0.475332 0.151116
H21   H     H_    0.938777 0.091573 0.584009 0.189140
H22   H     H_    0.061539 0.907543 0.417088 0.190656
H23   H     H_    0.497284 0.359023 0.847765 0.133786
H24   H     H_    0.615360 0.643397 0.159611 0.133760
H25   H     H_    0.496220 0.681708 0.760671 0.152884
H26   H     H_    0.499841 0.317878 0.237871 0.149850
H27   H     H_    0.586338 0.930429 0.853769 0.169457
H28   H     H_    0.448220 0.070058 0.148242 0.165353
N1    N     N_R   0.584450 0.204570 0.560790 -0.213594
N2    N     N_R   0.415550 0.795430 0.439210 -0.214225
O1    O     O_R   0.455540 0.022090 0.338120 -0.539238
O2    O     O_R   0.544460 0.977910 0.661880 -0.540368
O3    O     O_R   0.512510 0.160150 0.379180 -0.604619
O4    O     O_R   0.487490 0.839850 0.620820 -0.604042
O5    O     O_R   0.291160 0.930970 0.479480 -0.577339
O6    O     O_R   0.708840 0.069030 0.520520 -0.573960
O7    O     O_R   0.348130 0.069020 0.520540 -0.582735
O8    O     O_R   0.651870 0.930980 0.479460 -0.583788
C57   C     C_2   0.212510 0.858665 0.319617 0.829050
O9    O     O_2   0.243152 0.949151 0.276227 -0.587022
O10   O     O_R   0.082377 0.818154 0.313067 -0.806496
H29   H     H_    0.024124 0.871294 0.270543 0.327417
C58   C     C_2   0.789188 0.142977 0.678650 0.824227
O11   O     O_2   0.760138 0.051827 0.718289 -0.588561
O12   O     O_R   0.918774 0.184946 0.687082 -0.806048
H30   H     H_    0.977977 0.132227 0.728163 0.327798
N3    N     N_3   0.275845 0.350570 0.637733 -0.586577
H31   H     H_    0.348516 0.375085 0.686955 0.209062
H32   H     H_    0.188914 0.355851 0.652022 0.239315
N4    N     N_3   0.730185 0.638888 0.379649 -0.588494
H33   H     H_    0.654743 0.610156 0.335365 0.206055
H34   H     H_    0.815270 0.633323 0.362858 0.236307

loop_
_geom_bond_atom_site_label_1
_geom_bond_atom_site_label_2
_ccdc_geom_bond_type
C43   H15   S    
C58   O11   D    
C1    O1    A    
Cu1   O4    S    
C27   C29   A    
C5    C56   A    
C36   C42   A    
C19   C20   A    
C18   C26   A    
C6    C55   A    
Cu2   N1    S    
C46   H18   S    
C57   O9    D    
C53   H1    S    
C39   C41   A    
C54   H2    S    
C29   N1    A    
C15   C19   A    
N3    H32   S    
C30   C57   S    
Cu1   O1    S    
C12   H27   S    
C23   O7    A    
C9    H3    S    
C37   C40   A    
C24   O8    A    
C38   C39   A    
C11   H28   S    
C32   N2    A    
N4    H33   S    
C2    O2    A    
C3    C55   A    
C43   C53   A    
C52   C54   A    
C49   C51   A    
Cu1   O8    S    
C50   C52   A    
C31   C33   A    
Cu2   O3    S    
C27   H11   S    
C8    C12   A    
C48   C50   A    
C26   H24   S    
C1    C7    S    
C4    C56   A    
C25   H23   S    
C3    C24   S    
C10   H4    S    
C14   H25   S    
C50   H20   S    
C57   O10   S    
C44   C46   A    
C7    C11   A    
C45   C47   A    
C31   H10   S    
C5    C48   S    
C46   C48   A    
C31   N1    A    
C6    C47   S    
C19   C22   A    
C4    C6    A    
C4    C23   S    
C41   H7    S    
C27   C35   A    
C33   C37   A    
C23   O5    A    
C51   C53   A    
C32   C34   A    
C44   H16   S    
Cu2   O7    S    
C37   C38   A    
C24   O6    A    
C55   H21   S    
O10   H29   S    
C13   H26   S    
C16   C20   A    
C29   C58   S    
C16   C18   A    
C2    O4    A    
C43   C45   A    
C52   N4    S    
C10   C12   A    
Cu2   O2    S    
C32   H9    S    
C9    C17   A    
C9    C11   A    
C14   C16   A    
C30   N2    A    
C58   O12   S    
C15   C17   A    
C21   C25   A    
C8    C14   A    
C40   H14   S    
C34   C38   A    
C28   H12   S    
C40   C42   A    
C3    C5    A    
C47   C49   A    
N3    H31   S    
C56   H22   S    
Cu1   N2    S    
C45   H17   S    
C17   C25   A    
C13   C15   A    
Cu2   O6    S    
C49   H19   S    
Cu1   Cu2   S    
C10   C18   A    
C28   C30   A    
C33   C35   A    
N4    H34   S    
C34   C36   A    
C35   C41   A    
C51   N3    S    
C21   H5    S    
C22   H6    S    
C44   C54   A    
C7    C13   A    
C20   C21   A    
C28   C36   A    
C1    O3    A    
C22   C26   A    
C2    C8    S    
O12   H30   S    
C42   H8    S    
C39   H13   S    
Cu1   O5    S    
