data_mof_unit_25066.cif
_audit_creation_date              2012-12-11T14:28:26-0500
_audit_creation_method            fapswitch 2.2
_symmetry_space_group_name_H-M    P1
_symmetry_Int_Tables_number       1
_space_group_crystal_system       triclinic
_cell_length_a                    10.956766
_cell_length_b                    19.179098
_cell_length_c                    18.502434
_cell_angle_alpha                 89.999978
_cell_angle_beta                  90.00004
_cell_angle_gamma                 90.361408
_cell_volume                      3888.04057752

loop_
_atom_site_label
_atom_site_type_symbol
_atom_type_description
_atom_site_fract_x
_atom_site_fract_y
_atom_site_fract_z
_atom_type_partial_charge
C1    C     C_R   0.321689 0.970246 0.647119 0.534208
C2    C     C_3   0.175980 0.706838 0.028747 0.402090
C3    C     C_3   0.017252 0.200635 0.981190 -0.113061
C4    C     C_3   0.604476 0.313163 0.467940 -0.198878
C5    C     C_3   0.604462 0.313163 0.032059 -0.198878
C6    C     C_3   0.517252 0.700635 0.518810 -0.113061
C7    C     C_3   0.517252 0.700635 0.981190 -0.113061
C8    C     C_3   0.203712 0.774819 0.512000 -0.128444
C9    C     C_3   0.203712 0.774819 0.988000 -0.128444
C10   C     C_3   0.148345 0.181677 0.494517 -0.120128
C11   C     C_3   0.148342 0.181676 0.005484 -0.120124
C12   C     C_3   0.703717 0.274813 0.512001 -0.128442
C13   C     C_3   0.201574 0.236002 0.547016 0.357323
C14   C     C_3   0.703712 0.274819 0.988000 -0.128444
C15   C     C_3   0.648343 0.681676 0.494516 -0.120125
C16   C     C_3   0.648343 0.681676 0.005484 -0.120125
C17   C     C_3   0.104986 0.753600 0.567365 0.030207
C18   C     C_3   0.104986 0.753600 0.932635 0.030207
C19   C     C_3   0.140864 0.238962 0.437577 0.005001
C20   C     C_3   0.140864 0.238963 0.062423 0.005002
C21   C     C_3   0.604984 0.253600 0.567365 0.030213
C22   C     C_3   0.604986 0.253600 0.932635 0.030207
C23   C     C_3   0.640864 0.738962 0.437577 0.005002
C24   C     C_3   0.201574 0.236000 0.952984 0.357320
C25   C     C_3   0.640864 0.738963 0.062423 0.005002
C26   C     C_3   0.007153 0.792684 0.524932 -0.093680
C27   C     C_3   0.007153 0.792684 0.975067 -0.093679
C28   C     C_3   0.011006 0.257552 0.460119 -0.111755
C29   C     C_3   0.011007 0.257554 0.039881 -0.111749
C30   C     C_3   0.507159 0.292690 0.524930 -0.093675
C31   C     C_3   0.507153 0.292684 0.975067 -0.093679
C32   C     C_3   0.511007 0.757553 0.460119 -0.111748
C33   C     C_3   0.511007 0.757553 0.039881 -0.111749
C34   C     C_3   0.981577 0.723846 0.483774 -0.112412
C35   C     C_3   0.675974 0.206833 0.471255 0.402095
C36   C     C_3   0.981577 0.723846 0.016226 -0.112412
C37   C     C_3   0.065163 0.311246 0.513104 -0.187135
C38   C     C_3   0.065166 0.311247 0.986895 -0.187138
C39   C     C_3   0.481573 0.223852 0.483773 -0.112410
C40   C     C_3   0.481577 0.223846 0.016226 -0.112412
C41   C     C_3   0.565166 0.811247 0.513104 -0.187138
C42   C     C_3   0.565166 0.811247 0.986895 -0.187138
C43   C     C_3   0.080101 0.685278 0.527280 -0.047607
C44   C     C_3   0.080101 0.685278 0.972720 -0.047607
C45   C     C_3   0.196263 0.293275 0.489310 -0.111571
C46   C     C_3   0.675979 0.206838 0.028747 0.402090
C47   C     C_3   0.196265 0.293274 0.010689 -0.111575
C48   C     C_3   0.580088 0.185278 0.527281 -0.047608
C49   C     C_3   0.580101 0.185278 0.972720 -0.047607
C50   C     C_3   0.696265 0.793274 0.489311 -0.111576
C51   C     C_3   0.696265 0.793274 0.010689 -0.111575
C52   C     C_3   0.701574 0.736000 0.547016 0.357321
C53   C     C_3   0.701574 0.736000 0.952984 0.357320
C54   C     C_3   0.078838 0.744987 0.427992 0.032647
C55   C     C_3   0.078838 0.744987 0.072008 0.032647
C56   C     C_3   0.073729 0.254096 0.570704 0.049513
C57   C     C_R   0.321689 0.970246 0.852881 0.534209
C58   C     C_3   0.073730 0.254095 0.929296 0.049514
C59   C     C_3   0.578841 0.244987 0.427991 0.032641
C60   C     C_3   0.578839 0.244987 0.072008 0.032647
C61   C     C_3   0.573730 0.754095 0.570704 0.049514
C62   C     C_3   0.573730 0.754095 0.929296 0.049514
C63   C     C_R   0.319679 0.996502 0.425301 -0.022058
C64   C     C_R   0.319679 0.996502 0.074698 -0.022059
C65   C     C_R   0.332898 0.005087 0.576537 0.006657
C66   C     C_R   0.332898 0.005087 0.923463 0.006661
C67   C     C_R   0.819679 0.496502 0.425301 -0.022061
C68   C     C_R   0.318578 0.030096 0.353459 0.512586
C69   C     C_R   0.819679 0.496502 0.074698 -0.022059
C70   C     C_R   0.832898 0.505087 0.576537 0.006661
C71   C     C_R   0.832898 0.505087 0.923463 0.006661
C72   C     C_R   0.536233 0.968012 0.419940 -0.082444
C73   C     C_R   0.536234 0.968013 0.080060 -0.082445
C74   C     C_R   0.558780 0.995941 0.567170 -0.103238
C75   C     C_R   0.558780 0.995941 0.932830 -0.103241
C76   C     C_R   0.036233 0.468013 0.419940 -0.082445
C77   C     C_R   0.036234 0.468013 0.080060 -0.082445
C78   C     C_R   0.058780 0.495941 0.567170 -0.103240
C79   C     C_R   0.318578 0.030096 0.146541 0.512585
C80   C     C_R   0.058780 0.495941 0.932830 -0.103241
C81   C     C_R   0.648634 0.961747 0.453477 -0.042647
C82   C     C_R   0.648634 0.961747 0.046522 -0.042652
C83   C     C_R   0.660802 0.977251 0.526651 -0.042085
C84   C     C_R   0.660802 0.977251 0.973349 -0.042094
C85   C     C_R   0.148634 0.461747 0.453478 -0.042652
C86   C     C_R   0.148634 0.461747 0.046522 -0.042652
C87   C     C_R   0.160802 0.477251 0.526651 -0.042093
C88   C     C_R   0.160802 0.477251 0.973349 -0.042094
C89   C     C_R   0.441432 0.997063 0.535285 -0.015319
C90   C     C_R   0.821689 0.470246 0.647119 0.534209
C91   C     C_R   0.441432 0.997064 0.964715 -0.015316
C92   C     C_R   0.432516 0.987864 0.459715 -0.003093
C93   C     C_R   0.432516 0.987864 0.040285 -0.003094
C94   C     C_R   0.941432 0.497064 0.535285 -0.015315
C95   C     C_R   0.941432 0.497064 0.964715 -0.015316
C96   C     C_R   0.932516 0.487864 0.459715 -0.003094
C97   C     C_R   0.932516 0.487864 0.040285 -0.003094
C98   C     C_R   0.221438 0.016579 0.541169 -0.059459
C99   C     C_R   0.221438 0.016579 0.958831 -0.059458
C100  C     C_R   0.211131 0.000059 0.467761 -0.079993
C101  C     C_R   0.821689 0.470246 0.852881 0.534209
C102  C     C_R   0.211131 0.000059 0.032239 -0.079994
C103  C     C_R   0.721438 0.516579 0.541169 -0.059458
C104  C     C_R   0.721438 0.516579 0.958831 -0.059458
C105  C     C_R   0.711131 0.500058 0.467761 -0.079996
C106  C     C_R   0.711131 0.500059 0.032239 -0.079994
C107  C     C_R   0.117298 0.040370 0.579202 -0.094870
C108  C     C_R   0.117298 0.040370 0.920798 -0.094867
C109  C     C_R   0.091954 0.994787 0.438159 -0.117636
C110  C     C_R   0.091954 0.994787 0.061840 -0.117636
C111  C     C_R   0.617298 0.540370 0.579202 -0.094868
C112  C     C_R   0.818578 0.530096 0.353459 0.512585
C113  C     C_R   0.617298 0.540370 0.920798 -0.094868
C114  C     C_R   0.591954 0.494787 0.438159 -0.117634
C115  C     C_R   0.591954 0.494787 0.061840 -0.117636
C116  C     C_R   0.002339 0.037432 0.548185 0.370175
C117  C     C_R   0.002339 0.037433 0.951814 0.370173
C118  C     C_R   0.990329 0.016330 0.476866 0.396800
C119  C     C_R   0.990329 0.016331 0.023134 0.396798
C120  C     C_R   0.502339 0.537432 0.548185 0.370173
C121  C     C_R   0.502339 0.537433 0.951814 0.370173
C122  C     C_R   0.490329 0.516330 0.476866 0.396800
C123  C     C_R   0.818578 0.530096 0.146541 0.512585
C124  C     C_R   0.490329 0.516331 0.023134 0.396798
C125  C     C_R   0.134437 0.758087 0.643337 0.577288
C126  C     C_R   0.134437 0.758087 0.856663 0.577287
C127  C     C_R   0.180923 0.229718 0.363912 0.550828
C128  C     C_R   0.180923 0.229718 0.136088 0.550829
C129  C     C_R   0.634436 0.258087 0.643337 0.577288
C130  C     C_R   0.634437 0.258087 0.856663 0.577287
C131  C     C_R   0.680923 0.729718 0.363912 0.550829
C132  C     C_R   0.680923 0.729718 0.136088 0.550829
C133  C     C_R   0.539735 0.770504 0.643869 0.598354
C134  C     C_3   0.175980 0.706838 0.471253 0.402089
C135  C     C_R   0.539735 0.770504 0.856131 0.598354
C136  C     C_R   0.545963 0.231376 0.353658 0.547193
C137  C     C_R   0.545962 0.231376 0.146342 0.547198
C138  C     C_R   0.039734 0.270504 0.643869 0.598353
C139  C     C_R   0.039735 0.270504 0.856131 0.598354
C140  C     C_R   0.045962 0.731376 0.353658 0.547199
C141  C     C_R   0.045962 0.731376 0.146342 0.547198
C142  C     C_3   0.104462 0.813163 0.467941 -0.198877
C143  C     C_3   0.104462 0.813163 0.032059 -0.198878
C144  C     C_3   0.017254 0.200634 0.518810 -0.113070
Cr1   Cr    Cr6+3 0.488160 0.884660 0.750000 1.032867
Cr2   Cr    Cr6+3 0.333410 0.272740 0.250000 1.010432
Cr3   Cr    Cr6+3 0.833410 0.227260 0.750000 1.108999
Cr4   Cr    Cr6+3 0.833410 0.772740 0.250000 1.010432
Cr5   Cr    Cr6+3 0.488160 0.115340 0.250000 1.084234
Cr6   Cr    Cr6+3 0.988160 0.384660 0.750000 1.032868
Cr7   Cr    Cr6+3 0.988160 0.615340 0.250000 1.084233
Cr8   Cr    Cr6+3 0.173480 0.883120 0.750000 1.066771
Cr9   Cr    Cr6+3 0.173480 0.116880 0.250000 1.081489
Cr10  Cr    Cr6+3 0.673480 0.383120 0.750000 1.066771
Cr11  Cr    Cr6+3 0.673480 0.616880 0.250000 1.081490
Cr12  Cr    Cr6+3 0.333410 0.727260 0.750000 1.108999
F1    F     F_    0.903595 0.057227 0.587122 -0.639204
F2    F     F_    0.261935 0.663034 0.058691 -0.572159
F3    F     F_    0.293808 0.223639 0.596265 -0.648573
F4    F     F_    0.293806 0.223634 0.903735 -0.648575
F5    F     F_    0.761926 0.163023 0.441313 -0.572146
F6    F     F_    0.761935 0.163033 0.058691 -0.572159
F7    F     F_    0.793806 0.723634 0.596265 -0.648575
F8    F     F_    0.793806 0.723635 0.903735 -0.648575
F9    F     F_    0.903595 0.057228 0.912877 -0.639207
F10   F     F_    0.882638 0.022901 0.442485 -0.604415
F11   F     F_    0.882638 0.022902 0.057515 -0.604419
F12   F     F_    0.403595 0.557228 0.587122 -0.639207
F13   F     F_    0.403595 0.557228 0.912877 -0.639207
F14   F     F_    0.382638 0.522901 0.442484 -0.604419
F15   F     F_    0.382638 0.522902 0.057515 -0.604419
F16   F     F_    0.261935 0.663034 0.441309 -0.572160
H1    H     H_    0.294149 0.796638 0.527011 0.105780
H2    H     H_    0.117626 0.862783 0.060830 0.122213
H3    H     H_    0.937962 0.167833 0.533048 0.251191
H4    H     H_    0.937960 0.167835 0.966952 0.251192
H5    H     H_    0.617654 0.362782 0.439169 0.122211
H6    H     H_    0.617626 0.362783 0.060830 0.122213
H7    H     H_    0.437960 0.667835 0.533048 0.251192
H8    H     H_    0.437960 0.667835 0.966952 0.251192
H9    H     H_    0.940322 0.828313 0.550314 0.170268
H10   H     H_    0.940322 0.828313 0.949685 0.170268
H11   H     H_    0.935147 0.266937 0.421642 0.176316
H12   H     H_    0.294149 0.796638 0.972989 0.105779
H13   H     H_    0.935149 0.266941 0.078358 0.176322
H14   H     H_    0.440331 0.328323 0.550310 0.170260
H15   H     H_    0.440322 0.328313 0.949686 0.170268
H16   H     H_    0.435149 0.766941 0.421642 0.176323
H17   H     H_    0.435149 0.766941 0.078358 0.176323
H18   H     H_    0.893835 0.699947 0.467414 0.129134
H19   H     H_    0.893835 0.699947 0.032586 0.129134
H20   H     H_    0.021397 0.361445 0.524898 0.140118
H21   H     H_    0.021402 0.361445 0.975100 0.140119
H22   H     H_    0.393829 0.199957 0.467411 0.129129
H23   H     H_    0.190805 0.132706 0.478109 0.121670
H24   H     H_    0.393835 0.199947 0.032586 0.129134
H25   H     H_    0.521401 0.861445 0.524899 0.140118
H26   H     H_    0.521401 0.861445 0.975101 0.140119
H27   H     H_    0.069265 0.634000 0.553807 0.153731
H28   H     H_    0.069264 0.634001 0.946193 0.153731
H29   H     H_    0.269475 0.330668 0.474476 0.114363
H30   H     H_    0.269477 0.330666 0.025524 0.114363
H31   H     H_    0.569239 0.134002 0.553809 0.153725
H32   H     H_    0.569264 0.134001 0.946193 0.153731
H33   H     H_    0.769477 0.830666 0.474476 0.114363
H34   H     H_    0.190799 0.132705 0.021893 0.121670
H35   H     H_    0.769477 0.830666 0.025524 0.114363
H36   H     H_    0.724972 0.942521 0.422586 0.185330
H37   H     H_    0.724972 0.942521 0.077414 0.185331
H38   H     H_    0.748164 0.971553 0.552817 0.207921
H39   H     H_    0.748164 0.971554 0.947183 0.207921
H40   H     H_    0.224972 0.442521 0.422586 0.185331
H41   H     H_    0.224972 0.442521 0.077414 0.185331
H42   H     H_    0.248163 0.471553 0.552817 0.207921
H43   H     H_    0.248164 0.471554 0.947183 0.207921
H44   H     H_    0.529647 0.953862 0.363409 0.131243
H45   H     H_    0.794157 0.296627 0.527014 0.105780
H46   H     H_    0.529647 0.953863 0.136591 0.131244
H47   H     H_    0.573001 0.009690 0.623221 0.156833
H48   H     H_    0.573001 0.009690 0.876779 0.156833
H49   H     H_    0.029647 0.453863 0.363409 0.131244
H50   H     H_    0.029647 0.453863 0.136592 0.131244
H51   H     H_    0.073001 0.509690 0.623221 0.156833
H52   H     H_    0.073001 0.509690 0.876779 0.156833
H53   H     H_    0.075815 0.974343 0.384481 0.166989
H54   H     H_    0.075815 0.974343 0.115519 0.166990
H55   H     H_    0.125022 0.061020 0.633551 0.179766
H56   H     H_    0.794149 0.296638 0.972989 0.105779
H57   H     H_    0.125022 0.061020 0.866448 0.179767
H58   H     H_    0.575815 0.474342 0.384481 0.166990
H59   H     H_    0.575815 0.474343 0.115519 0.166990
H60   H     H_    0.625022 0.561020 0.633551 0.179767
H61   H     H_    0.625022 0.561020 0.866448 0.179767
H62   H     H_    0.690799 0.632705 0.478107 0.121670
H63   H     H_    0.690800 0.632705 0.021893 0.121670
H64   H     H_    0.117625 0.862783 0.439170 0.122213
O1    O     O_R   0.575450 0.828820 0.667950 -0.500260
O2    O     O_R   0.416860 0.942890 0.825320 -0.521829
O3    O     O_R   0.416860 0.057110 0.325320 -0.499116
O4    O     O_R   0.416860 0.057110 0.174680 -0.499117
O5    O     O_R   0.916860 0.442890 0.674680 -0.521829
O6    O     O_R   0.916860 0.442890 0.825320 -0.521829
O7    O     O_R   0.916860 0.557110 0.325320 -0.499117
O8    O     O_R   0.916860 0.557110 0.174680 -0.499117
O9    O     O_R   0.213790 0.953680 0.668330 -0.514455
O10   O     O_R   0.213790 0.953680 0.831670 -0.514456
O11   O     O_R   0.213790 0.046320 0.331670 -0.529704
O12   O     O_R   0.575450 0.828820 0.832050 -0.500260
O13   O     O_R   0.213790 0.046320 0.168330 -0.529704
O14   O     O_R   0.713790 0.453680 0.668330 -0.514456
O15   O     O_R   0.713790 0.453680 0.831670 -0.514456
O16   O     O_R   0.713790 0.546320 0.331670 -0.529704
O17   O     O_R   0.713790 0.546320 0.168330 -0.529704
O18   O     O_R   0.121360 0.817890 0.672660 -0.493086
O19   O     O_R   0.121360 0.817890 0.827340 -0.493086
O20   O     O_R   0.121360 0.182110 0.327340 -0.459846
O21   O     O_R   0.121360 0.182110 0.172660 -0.459844
O22   O     O_R   0.621360 0.317890 0.672660 -0.493085
O23   O     O_R   0.575450 0.171180 0.332050 -0.445391
O24   O     O_R   0.621360 0.317890 0.827340 -0.493086
O25   O     O_R   0.621360 0.682110 0.327340 -0.459844
O26   O     O_R   0.621360 0.682110 0.172660 -0.459844
O27   O     O_R   0.206850 0.711370 0.665820 -0.500167
O28   O     O_R   0.206850 0.711370 0.834180 -0.500167
O29   O     O_R   0.206850 0.288630 0.334180 -0.521496
O30   O     O_R   0.206850 0.288630 0.165820 -0.521496
O31   O     O_R   0.706850 0.211370 0.665820 -0.500166
O32   O     O_R   0.706850 0.211370 0.834180 -0.500167
O33   O     O_R   0.706850 0.788630 0.334180 -0.521496
O34   O     O_R   0.575450 0.171180 0.167950 -0.445390
O35   O     O_R   0.706850 0.788630 0.165820 -0.521496
O36   O     O_R   0.457710 0.733190 0.672630 -0.496289
O37   O     O_R   0.457710 0.733190 0.827370 -0.496289
O38   O     O_R   0.457710 0.266810 0.327370 -0.536994
O39   O     O_R   0.457710 0.266810 0.172630 -0.536995
O40   O     O_R   0.957710 0.233190 0.672630 -0.496290
O41   O     O_R   0.957710 0.233190 0.827370 -0.496289
O42   O     O_R   0.957710 0.766810 0.327370 -0.536995
O43   O     O_R   0.957710 0.766810 0.172630 -0.536995
O44   O     O_3   0.331690 0.831680 0.750000 -0.293996
O45   O     O_R   0.075450 0.328820 0.667950 -0.500258
O46   O     O_3   0.331690 0.168320 0.250000 -0.317269
O47   O     O_3   0.831690 0.331680 0.750000 -0.293996
O48   O     O_3   0.831690 0.668320 0.250000 -0.317269
O49   O     O_R   0.075450 0.328820 0.832050 -0.500260
O50   O     O_R   0.075450 0.671180 0.332050 -0.445390
O51   O     O_R   0.075450 0.671180 0.167950 -0.445390
O52   O     O_R   0.416860 0.942890 0.674680 -0.521829

loop_
_geom_bond_atom_site_label_1
_geom_bond_atom_site_label_2
_ccdc_geom_bond_type
C6    C32   S    
C71   C104  A    
C6    H7    S    
C36   H19   S    
C73   C82   A    
C73   C93   A    
C74   C83   A    
Cr9   O21   S    
C9    C143  S    
C61   C133  S    
C65   C89   A    
C90   O14   A    
C48   H31   S    
C28   H11   S    
C52   C61   S    
C117  C119  A    
C86   C88   A    
C71   C95   A    
C69   C123  S    
C54   C134  S    
C33   H17   S    
C37   C56   S    
C122  F14   S    
C50   C52   S    
C28   C144  S    
Cr6   O49   S    
C41   C61   S    
C4    C12   S    
C4    H5    S    
C20   C29   S    
C82   H37   S    
C49   H32   S    
C100  C109  A    
C22   C130  S    
C7    C33   S    
Cr3   O41   S    
C109  C118  A    
C11   C20   S    
C140  O42   A    
C42   H26   S    
C141  O43   A    
C70   C103  A    
C67   C105  A    
C137  O39   A    
C17   C43   S    
C7    C62   S    
C18   C44   S    
C4    C59   S    
C69   C106  A    
C94   C96   A    
Cr8   O9    S    
C22   C49   S    
C34   C54   S    
C82   C84   A    
C64   C79   S    
C36   C44   S    
C37   C45   S    
C119  F11   S    
Cr10  O24   S    
C120  F12   S    
C16   C25   S    
Cr4   O43   S    
C127  O29   A    
C46   C60   S    
C139  O41   A    
Cr2   O38   S    
Cr7   O51   S    
C137  O34   A    
C130  O24   A    
C95   C97   A    
C8    C17   S    
C38   H21   S    
C106  C115  A    
C2    C55   S    
C80   C88   A    
C36   C55   S    
C1    O9    A    
C76   C96   A    
C13   C45   S    
C78   C94   A    
C138  O45   A    
Cr5   O3    S    
C116  C118  A    
Cr6   O47   S    
C20   C47   S    
C3    C11   S    
C52   F7    S    
Cr7   O7    S    
Cr11  O25   S    
C67   C112  S    
C31   H15   S    
C9    H12   S    
C135  O37   A    
C76   C85   A    
C1    O52   A    
C78   C87   A    
C40   C60   S    
C57   C66   S    
C84   H39   S    
C64   C102  A    
C99   C108  A    
C35   F5    S    
C33   C42   S    
C6    C61   S    
C103  C111  A    
Cr5   O34   S    
C51   H35   S    
C75   C84   A    
C40   C49   S    
C59   C136  S    
C3    C29   S    
Cr1   O52   S    
Cr12  O28   S    
Cr6   O5    S    
C2    C44   S    
C107  H55   S    
C29   C38   S    
C1    C65   S    
C32   C41   S    
C77   C97   A    
C42   C62   S    
Cr10  O22   S    
C75   C91   A    
C13   C56   S    
C73   H46   S    
C134  F16   S    
C133  O1    A    
C79   O4    A    
C81   C83   A    
C55   C143  S    
C8    C134  S    
C34   H18   S    
C41   H25   S    
C110  H54   S    
Cr10  O14   S    
C16   H63   S    
C47   H30   S    
C51   C53   S    
Cr6   O45   S    
C62   C135  S    
Cr2   O29   S    
C3    C58   S    
C14   H56   S    
C101  O6    A    
C3    H4    S    
C27   C143  S    
Cr1   O2    S    
C23   C131  S    
C103  C105  A    
C10   C144  S    
C12   C35   S    
C19   C28   S    
C21   C129  S    
C11   H34   S    
C44   H28   S    
C132  O26   A    
C63   C68   S    
C5    C60   S    
Cr9   O46   S    
Cr4   O33   S    
C34   C43   S    
C57   O10   A    
C110  C119  A    
C19   C45   S    
C80   C95   A    
C76   H49   S    
C128  O21   A    
C21   C48   S    
Cr7   O48   S    
C18   C126  S    
C28   C37   S    
C15   H62   S    
C87   H42   S    
C29   H13   S    
C7    H8    S    
C125  O18   A    
C5    H6    S    
C104  C113  A    
C9    C18   S    
C37   H20   S    
C113  C121  A    
C128  O30   A    
C140  O50   A    
C25   C132  S    
C141  O51   A    
C25   C33   S    
C131  O25   A    
C69   C97   A    
C85   H40   S    
C55   C141  S    
C88   H43   S    
C104  C106  A    
C14   C46   S    
C113  H61   S    
C46   C49   S    
C70   C94   A    
C65   C98   A    
Cr12  O44   S    
C72   C92   A    
C31   C40   S    
C35   C59   S    
Cr5   O23   S    
C38   C58   S    
C117  F9    S    
Cr8   O10   S    
C72   C81   A    
Cr2   O46   S    
C130  O32   A    
C71   C101  S    
Cr4   O35   S    
Cr10  O47   S    
C101  O15   A    
C35   C48   S    
C108  C117  A    
Cr2   O39   S    
Cr3   O32   S    
C133  O36   A    
C98   C107  A    
C41   C50   S    
C43   C134  S    
C91   C93   A    
Cr3   O47   S    
C10   C19   S    
C2    F2    S    
C39   C59   S    
C125  O27   A    
C136  O23   A    
C126  O28   A    
C15   C52   S    
C5    C14   S    
C81   H36   S    
C7    C16   S    
C54   C142  S    
C98   C100  A    
C102  C110  A    
C12   H45   S    
C115  C124  A    
C136  O38   A    
C23   C50   S    
C68   O3    A    
Cr8   O19   S    
Cr11  O16   S    
C53   F8    S    
Cr12  O36   S    
C27   C36   S    
C21   C30   S    
C23   C32   S    
C14   C22   S    
C124  F15   S    
C75   H48   S    
Cr9   O11   S    
C27   H10   S    
C123  O17   A    
C83   H38   S    
C56   C144  S    
C26   H9    S    
Cr6   O6    S    
C99   C102  A    
C24   C58   S    
C8    C142  S    
C143  H2    S    
C39   C48   S    
C58   C139  S    
C121  F13   S    
Cr11  O17   S    
C132  O35   A    
C17   C26   S    
C30   H14   S    
C74   C89   A    
C64   C93   A    
C20   C128  S    
C80   H52   S    
Cr10  O15   S    
C11   C24   S    
Cr5   O4    S    
C139  O49   A    
C19   C127  S    
Cr11  O48   S    
Cr2   O30   S    
C16   C53   S    
C121  C124  A    
Cr8   O44   S    
C6    C15   S    
Cr11  O26   S    
C26   C34   S    
C112  O7    A    
C54   C140  S    
Cr4   O42   S    
Cr1   O1    S    
C74   H47   S    
C30   C39   S    
Cr5   O46   S    
C126  O19   A    
C115  H59   S    
Cr3   O40   S    
C129  O31   A    
C78   H51   S    
C142  H64   S    
Cr7   O8    S    
C111  H60   S    
C79   O13   A    
C70   C90   S    
C123  O8    A    
C120  C122  A    
C112  O16   A    
C108  H57   S    
C85   C87   A    
C68   O11   A    
C107  C116  A    
C39   H22   S    
C22   C31   S    
C32   H16   S    
C127  O20   A    
C105  C114  A    
Cr3   O31   S    
C129  O22   A    
C109  H53   S    
C8    H1    S    
Cr9   O13   S    
C12   C21   S    
C118  F10   S    
C138  O40   A    
C111  C120  A    
C66   C99   A    
C63   C92   A    
C25   C51   S    
C63   C100  A    
Cr12  O27   S    
C56   C138  S    
C53   C62   S    
C77   H50   S    
C131  O33   A    
Cr12  O37   S    
C89   C92   A    
C38   C47   S    
Cr9   O20   S    
C77   C86   A    
C67   C96   A    
Cr1   O44   S    
Cr7   O50   S    
C40   H24   S    
Cr4   O48   S    
Cr1   O12   S    
C72   H44   S    
C24   C47   S    
C135  O12   A    
C18   C27   S    
C57   O2    A    
C10   C13   S    
C114  H58   S    
C24   F4    S    
C66   C91   A    
C42   C51   S    
C60   C137  S    
C86   H41   S    
C116  F1    S    
C10   H23   S    
Cr8   O18   S    
C2    C9    S    
C17   C125  S    
C144  H3    S    
C15   C23   S    
C13   F3    S    
C114  C122  A    
C50   H33   S    
C45   H29   S    
C46   F6    S    
C90   O5    A    
C43   H27   S    
C26   C142  S    
C4    C30   S    
C5    C31   S    
