data_mof_unit_52008.cif
_audit_creation_date              2012-12-11T15:48:53-0500
_audit_creation_method            fapswitch 2.2
_symmetry_space_group_name_H-M    P1
_symmetry_Int_Tables_number       1
_space_group_crystal_system       triclinic
_cell_length_a                    10.960791
_cell_length_b                    10.933249
_cell_length_c                    18.782619
_cell_angle_alpha                 90.584599
_cell_angle_beta                  90.455675
_cell_angle_gamma                 60.334942
_cell_volume                      1955.72955983

loop_
_atom_site_label
_atom_site_type_symbol
_atom_type_description
_atom_site_fract_x
_atom_site_fract_y
_atom_site_fract_z
_atom_type_partial_charge
C1    C     C_R   0.240016 0.645480 0.610456 0.537018
C2    C     C_R   0.577977 0.143350 0.710103 -0.186361
C3    C     C_R   0.573640 0.150456 0.783218 -0.173995
C4    C     C_R   0.655286 0.623799 0.599843 0.534815
C5    C     C_3   0.931570 0.103903 0.787941 -0.266878
C6    C     C_3   0.926878 0.111761 0.707283 -0.276241
C7    C     C_R   0.673613 0.167112 0.672857 0.009301
C8    C     C_R   0.179395 0.668397 0.834957 0.013797
C9    C     C_R   0.154878 0.575536 0.793806 0.015654
C10   C     C_R   0.163098 0.573587 0.720002 -0.006242
C11   C     C_R   0.213439 0.764194 0.725966 -0.182268
C12   C     C_3   0.638656 0.576700 0.799242 -0.257746
C13   C     C_R   0.209494 0.762629 0.799854 -0.188492
C14   C     C_3   0.229342 0.419146 0.797448 -0.272703
C15   C     C_3   0.235623 0.417326 0.716854 -0.266153
C16   C     C_R   0.630119 0.226172 0.602039 0.535804
C17   C     C_R   0.195341 0.665740 0.684716 0.013524
C18   C     C_R   0.706751 0.706672 0.181144 0.011756
C19   C     C_R   0.796901 0.581870 0.215472 0.011986
C20   C     C_R   0.785239 0.564125 0.286270 0.015072
C21   C     C_R   0.595288 0.802263 0.296140 -0.107386
C22   C     C_R   0.611491 0.821438 0.223222 -0.147303
C23   C     C_3   0.699565 0.675163 0.811369 0.060064
C24   C     C_3   0.838543 0.433259 0.196869 -0.262489
C25   C     C_3   0.824838 0.413363 0.275203 -0.261132
C26   C     C_R   0.676776 0.668470 0.326637 0.034793
C27   C     C_R   0.651247 0.178439 0.171600 0.016171
C28   C     C_R   0.218357 0.651331 0.402391 0.564096
C29   C     C_R   0.520257 0.245764 0.204126 0.011995
C30   C     C_R   0.513004 0.250261 0.276992 0.039839
C31   C     C_R   0.762899 0.149513 0.287502 -0.181343
C32   C     C_R   0.770595 0.146595 0.213613 -0.169636
C33   C     C_3   0.389852 0.235220 0.196493 -0.276532
C34   C     C_3   0.671996 0.649218 0.675010 0.035488
C35   C     C_3   0.387483 0.231004 0.277270 -0.267082
C36   C     C_R   0.633522 0.193942 0.319980 0.019377
C37   C     C_R   0.053961 0.728679 0.194963 0.011307
C38   C     C_R   0.069038 0.831299 0.232569 -0.027125
C39   C     C_R   0.110715 0.810050 0.302395 0.014193
C40   C     C_R   0.644943 0.625330 0.393975 0.558666
C41   C     C_R   0.093585 0.598778 0.305171 -0.166876
C42   C     C_R   0.060601 0.614723 0.232334 -0.162523
C43   C     C_3   0.160267 0.894185 0.215206 -0.224362
C44   C     C_3   0.208601 0.867900 0.291468 0.109512
C45   C     C_3   0.828611 0.592044 0.693385 -0.256430
C46   C     C_R   0.132752 0.689413 0.338504 0.013999
C47   C     C_R   0.701557 0.101007 0.895605 0.538624
C48   C     C_R   0.723322 0.688112 0.888005 0.564190
C49   C     C_R   0.118853 0.705600 0.906002 0.551639
C50   C     C_R   0.674777 0.110258 0.102911 0.537128
C51   C     C_R   0.730640 0.716624 0.105669 0.543426
C52   C     C_R   0.615022 0.230950 0.394334 0.544228
C53   C     C_R   0.028890 0.746442 0.118910 0.548154
C54   C     C_3   0.602911 0.822439 0.776313 0.114100
C55   C     C_3   0.589258 0.806895 0.695173 -0.221827
C56   C     C_3   0.614215 0.568836 0.719133 -0.226227
C57   C     C_3   0.843667 0.611556 0.772957 -0.260830
C58   C     C_R   0.680635 0.155750 0.823075 0.005424
C59   C     C_R   0.775999 0.180935 0.786117 -0.007847
C60   C     C_R   0.770359 0.190067 0.712009 0.014456
Cr1   Cr    Cr6+3 0.392960 0.397920 0.502240 1.003871
Cr2   Cr    Cr6+3 0.398340 0.708480 0.501250 1.022191
Cr3   Cr    Cr6+3 0.708670 0.393570 0.496460 1.002767
Cr4   Cr    Cr6+3 0.937650 0.938540 0.007610 1.001951
Cr5   Cr    Cr6+3 0.625330 0.937370 0.994520 1.037417
Cr6   Cr    Cr6+3 0.937940 0.625230 0.001190 1.002002
H1    H     H_    0.656011 0.885270 0.784306 0.162129
H2    H     H_    0.967427 0.007833 0.680431 0.144905
H3    H     H_    0.238796 0.838252 0.701692 0.139336
H4    H     H_    0.221671 0.841316 0.829491 0.142758
H5    H     H_    0.162216 0.378312 0.818647 0.139997
H6    H     H_    0.332785 0.377780 0.824169 0.144047
H7    H     H_    0.342856 0.373862 0.695610 0.179287
H8    H     H_    0.170052 0.377888 0.690999 0.127590
H9    H     H_    0.513862 0.887317 0.326833 0.144197
H10   H     H_    0.546247 0.922123 0.199237 0.127518
H11   H     H_    0.948518 0.372428 0.177524 0.132896
H12   H     H_    0.666100 0.457192 0.702278 0.148777
H13   H     H_    0.758985 0.424450 0.163418 0.160821
H14   H     H_    0.735029 0.397203 0.287203 0.171668
H15   H     H_    0.476835 0.853747 0.679683 0.147619
H16   H     H_    0.926195 0.339499 0.301216 0.130808
H17   H     H_    0.856884 0.119073 0.318879 0.121818
H18   H     H_    0.872211 0.107123 0.189713 0.146022
H19   H     H_    0.403706 0.138315 0.170260 0.154245
H20   H     H_    0.301696 0.333394 0.174314 0.143339
H21   H     H_    0.295244 0.321503 0.301229 0.146781
H22   H     H_    0.411208 0.127090 0.298365 0.127248
H23   H     H_    0.919613 0.507442 0.795582 0.147597
H24   H     H_    0.100544 0.509858 0.333365 0.120291
H25   H     H_    0.050370 0.533439 0.204474 0.132835
H26   H     H_    0.100904 0.007983 0.202765 0.089365
H27   H     H_    0.632333 0.864850 0.665736 0.088756
H28   H     H_    0.245134 0.830551 0.176467 0.178227
H29   H     H_    0.179720 0.965133 0.322896 0.139941
H30   H     H_    0.886361 0.684128 0.780501 0.120576
H31   H     H_    0.871572 0.648071 0.662106 0.119355
H32   H     H_    0.713434 0.469700 0.819393 0.130747
H33   H     H_    0.538798 0.614368 0.828872 0.126134
H34   H     H_    0.891927 0.477878 0.680214 0.145829
H35   H     H_    0.500187 0.613328 0.708799 0.130742
H36   H     H_    0.417734 0.847224 0.796285 0.319114
H37   H     H_    0.369241 0.679255 0.271521 0.328231
H38   H     H_    0.498408 0.129033 0.682765 0.142890
H39   H     H_    0.492957 0.135565 0.807750 0.191820
H40   H     H_    0.972451 0.996283 0.808664 0.173390
H41   H     H_    0.974658 0.166758 0.813423 0.136420
H42   H     H_    0.968311 0.178577 0.686071 0.135461
O1    O     O_R   0.507380 0.255700 0.581440 -0.536194
O2    O     O_R   0.837170 0.593410 0.915250 -0.535270
O3    O     O_R   0.065200 0.635530 0.931570 -0.495460
O4    O     O_R   0.280320 0.527350 0.578930 -0.505934
O5    O     O_R   0.068260 0.828890 0.091840 -0.518754
O6    O     O_R   0.798870 0.057410 0.079340 -0.527302
O7    O     O_R   0.584930 0.080350 0.076780 -0.529883
O8    O     O_R   0.626960 0.809650 0.067060 -0.497762
O9    O     O_R   0.816040 0.596610 0.076510 -0.522489
O10   O     O_R   0.045610 0.638500 0.081060 -0.516570
O11   O     O_3   0.833640 0.833710 0.001100 -0.294904
O12   O     O_R   0.524480 0.695810 0.424040 -0.463767
O13   O     O_R   0.260510 0.739590 0.584590 -0.537649
O14   O     O_R   0.532300 0.695080 0.573820 -0.517990
O15   O     O_R   0.744840 0.503500 0.576370 -0.527928
O16   O     O_R   0.699120 0.276560 0.571960 -0.499650
O17   O     O_R   0.498940 0.256500 0.419860 -0.519231
O18   O     O_R   0.272500 0.528080 0.429150 -0.510333
O19   O     O_R   0.252060 0.740380 0.423010 -0.480399
O20   O     O_3   0.470129 0.896558 0.808652 -0.709506
O21   O     O_3   0.351644 0.766094 0.297542 -0.681420
O22   O     O_R   0.736390 0.504290 0.414790 -0.530899
O23   O     O_R   0.691300 0.277290 0.422170 -0.509047
O24   O     O_3   0.499990 0.499990 0.499980 -0.248220
O25   O     O_R   0.089400 0.825690 0.930570 -0.520961
O26   O     O_R   0.818460 0.054440 0.929850 -0.500178
O27   O     O_R   0.606060 0.077150 0.915510 -0.513839
O28   O     O_R   0.646550 0.806680 0.917570 -0.445752

loop_
_geom_bond_atom_site_label_1
_geom_bond_atom_site_label_2
_ccdc_geom_bond_type
C48   O2    A    
C21   C26   A    
C34   C56   S    
C8    C13   A    
C27   C29   A    
C25   H14   S    
C14   H5    S    
C2    C7    A    
C22   H10   S    
C55   H27   S    
Cr1   O1    S    
Cr3   O16   S    
C56   H12   S    
C3    H39   S    
C12   C23   S    
C45   C57   S    
C29   C30   A    
Cr4   O11   S    
C57   H23   S    
C30   C35   S    
C56   H35   S    
C50   O7    A    
H36   O20   S    
C10   C15   S    
C31   C36   A    
C1    O4    A    
C5    C6    S    
C13   H4    S    
C10   C17   A    
C29   C33   S    
C43   H28   S    
C31   H17   S    
C42   H25   S    
C41   C42   A    
Cr3   O22   S    
C37   C42   A    
C33   H19   S    
C12   H33   S    
C49   O25   A    
Cr1   O24   S    
C33   C35   S    
Cr4   O25   S    
C35   H21   S    
C19   C20   A    
C28   O18   A    
C8    C9    A    
C57   H30   S    
C16   O1    A    
C41   C46   A    
Cr1   O18   S    
C23   C48   S    
Cr3   O23   S    
Cr6   O3    S    
C55   H15   S    
C9    C10   A    
Cr2   O12   S    
C36   C52   S    
C27   C50   S    
C49   O3    A    
C37   C53   S    
C6    H2    S    
C41   H24   S    
C34   C55   S    
C21   C22   A    
C33   H20   S    
Cr5   O7    S    
C53   O5    A    
C18   C51   S    
Cr4   O26   S    
C5    H40   S    
C38   C39   A    
C32   H18   S    
C4    C34   S    
Cr4   O6    S    
C5    C59   S    
Cr2   O24   S    
C20   C25   S    
C24   C25   S    
C53   O10   A    
C18   C19   A    
C54   H1    S    
C58   C59   A    
C54   O20   S    
Cr6   O9    S    
C4    O15   A    
C50   O6    A    
C9    C14   S    
C37   C38   A    
C6    C60   S    
C35   H22   S    
C24   H13   S    
C31   C32   A    
C2    H38   S    
C28   C46   S    
C11   H3    S    
Cr5   O11   S    
C4    O14   A    
C34   C45   S    
C12   C56   S    
Cr3   O24   S    
Cr6   O2    S    
H37   O21   S    
Cr5   O27   S    
C39   C46   A    
C7    C16   S    
C15   H7    S    
Cr6   O11   S    
C43   C44   S    
C25   H16   S    
Cr5   O8    S    
C7    C60   A    
Cr2   O14   S    
C23   C54   S    
C5    H41   S    
C23   C57   S    
C40   O22   A    
C54   C55   S    
C11   C17   A    
Cr4   O5    S    
C40   O12   A    
C27   C32   A    
C18   C22   A    
C52   O23   A    
C14   H6    S    
C48   O28   A    
C51   O8    A    
C45   H34   S    
Cr3   O15   S    
C52   O17   A    
C28   O19   A    
C39   C44   S    
C21   H9    S    
C1    C17   S    
C43   H26   S    
C30   C36   A    
C2    C3    A    
C44   O21   S    
C38   C43   S    
C47   O26   A    
C44   H29   S    
C45   H31   S    
C47   C58   S    
C11   C13   A    
C26   C40   S    
Cr2   O19   S    
C20   C26   A    
C51   O9    A    
C19   C24   S    
C47   O27   A    
C16   O16   A    
C1    O13   A    
Cr5   O28   S    
C3    C58   A    
C24   H11   S    
C59   C60   A    
C15   H8    S    
Cr6   O10   S    
C12   H32   S    
C6    H42   S    
C14   C15   S    
Cr1   O17   S    
Cr1   O4    S    
C8    C49   S    
Cr2   O13   S    
