data_mof_unit_45074.cif
_audit_creation_date              2012-12-10T18:03:57-0500
_audit_creation_method            fapswitch 2.2
_symmetry_space_group_name_H-M    P1
_symmetry_Int_Tables_number       1
_space_group_crystal_system       triclinic
_cell_length_a                    10.813473
_cell_length_b                    9.57676
_cell_length_c                    10.822196
_cell_angle_alpha                 90.172839
_cell_angle_beta                  91.632335
_cell_angle_gamma                 89.680633
_cell_volume                      1120.24858562

loop_
_atom_site_label
_atom_site_type_symbol
_atom_type_description
_atom_site_fract_x
_atom_site_fract_y
_atom_site_fract_z
_atom_type_partial_charge
C1    C     C_R   0.262278 0.500065 0.501243 0.786059
C2    C     C_R   0.737730 0.499657 0.501204 0.790462
C3    C     C_R   0.421852 0.074387 0.421991 -0.075261
C4    C     C_R   0.580290 0.073886 0.575876 -0.075883
C5    C     C_R   0.419314 0.924850 0.424152 0.478093
C6    C     C_R   0.579532 0.924299 0.577147 0.475913
C7    C     C_R   0.500384 0.499922 0.262490 0.804673
C8    C     C_R   0.500367 0.500041 0.737546 0.800460
C9    C     C_R   0.478932 0.621993 0.063364 0.120833
C10   C     C_R   0.477453 0.621269 0.935986 0.090246
C11   C     C_R   0.507642 0.500556 0.129429 -0.090182
C12   C     C_R   0.506883 0.500293 0.871059 -0.090122
C13   C     C_R   0.548133 0.381622 0.065591 -0.205084
C14   C     C_R   0.547831 0.381536 0.936731 -0.196089
C15   C     C_3   0.362027 0.707532 0.927182 -0.500998
C16   C     C_3   0.364725 0.710303 0.067221 -0.397033
C17   C     C_R   0.063628 0.378444 0.469187 -0.164353
C18   C     C_R   0.935676 0.378173 0.469255 -0.168554
C19   C     C_R   0.871655 0.498997 0.503589 -0.015508
C20   C     C_R   0.128384 0.499358 0.503918 -0.020207
C21   C     C_R   0.936369 0.619028 0.540670 -0.171584
C22   C     C_R   0.064420 0.618679 0.541942 -0.220841
Cu1   Cu    Cu3+1 0.500000 0.640660 0.500000 1.015142
Cu2   Cu    Cu3+1 0.500000 0.359340 0.500000 0.961191
H1    H     H_    0.576369 0.287810 0.114706 0.163889
H2    H     H_    0.575763 0.287567 0.888979 0.169959
H3    H     H_    0.377190 0.811755 0.885869 0.194463
H4    H     H_    0.285447 0.655394 0.108318 0.202558
H5    H     H_    0.282117 0.649005 0.886436 0.202177
H6    H     H_    0.384111 0.815933 0.105555 0.230958
H7    H     H_    0.111542 0.284660 0.440727 0.155159
H8    H     H_    0.887006 0.284352 0.440744 0.150948
H9    H     H_    0.888252 0.712483 0.569726 0.188114
H10   H     H_    0.113211 0.711121 0.573327 0.145573
N1    N     N_R   0.500000 0.852070 0.500000 -0.232811
N2    N     N_R   0.500000 0.147940 0.500000 -0.245124
O1    O     O_R   0.319640 0.618740 0.499990 -0.559659
O2    O     O_R   0.680360 0.618740 0.500010 -0.543080
O3    O     O_R   0.319620 0.381170 0.499990 -0.585405
O4    O     O_R   0.680380 0.381170 0.500010 -0.586525
O5    O     O_R   0.499990 0.618810 0.319660 -0.538299
O6    O     O_R   0.500010 0.618810 0.680340 -0.557572
O7    O     O_R   0.499960 0.381240 0.319650 -0.583853
O8    O     O_R   0.500040 0.381240 0.680350 -0.584596
C23   C     C_1   0.346623 0.148444 0.331520 0.345991
N3    N     N_1   0.286143 0.207122 0.258281 -0.326335
C24   C     C_1   0.671350 0.147503 0.650360 0.346188
N4    N     N_1   0.745082 0.205717 0.710309 -0.325106
O9    O     O_3   0.344829 0.850144 0.341605 -0.563155
C25   C     C_3   0.218234 0.872333 0.364968 -0.322241
H11   H     H_    0.178549 0.951849 0.300845 0.167351
H12   H     H_    0.199910 0.902368 0.462426 0.133785
H13   H     H_    0.167864 0.774099 0.344412 0.196855
O10   O     O_3   0.667181 0.849318 0.645893 -0.561225
C26   C     C_3   0.650590 0.867658 0.774037 -0.296944
H14   H     H_    0.555535 0.901475 0.798160 0.128703
H15   H     H_    0.719101 0.943135 0.812234 0.165541
H16   H     H_    0.670168 0.766833 0.820851 0.192343

loop_
_geom_bond_atom_site_label_1
_geom_bond_atom_site_label_2
_ccdc_geom_bond_type
C16   H4    S    
C25   H12   S    
C26   H14   S    
C4    N2    A    
C2    O4    A    
Cu1   O2    S    
C11   C13   A    
C9    C10   A    
C2    O2    A    
C15   H3    S    
C24   N4    T    
Cu1   O5    S    
C1    O1    A    
C8    C12   S    
C5    O9    S    
Cu2   O3    S    
C26   H15   S    
C17   C18   A    
C20   C22   A    
Cu1   O1    S    
C13   C14   A    
C14   H2    S    
C7    C11   S    
C9    C11   A    
C13   H1    S    
Cu2   N2    S    
Cu1   O6    S    
C10   C12   A    
C3    N2    A    
C6    O10   S    
C17   H7    S    
C5    N1    A    
C19   C21   A    
C9    C16   S    
C8    O6    A    
C15   H5    S    
Cu1   N1    S    
C10   C15   S    
C7    O5    A    
C22   H10   S    
C25   H13   S    
C21   H9    S    
C1    O3    A    
Cu1   Cu2   S    
C16   H6    S    
C15   C16   S    
C23   N3    T    
C17   C20   A    
C18   H8    S    
Cu2   O8    S    
C4    C6    A    
C18   C19   A    
C26   H16   S    
C7    O7    A    
O9    C25   S    
Cu2   O7    S    
O10   C26   S    
Cu2   O4    S    
C1    C20   S    
C25   H11   S    
C2    C19   S    
C21   C22   A    
C3    C23   S    
C6    N1    A    
C8    O8    A    
C12   C14   A    
C3    C5    A    
C4    C24   S    
