data_mof_unit_23370.cif
_audit_creation_date              2012-12-10T19:59:55-0500
_audit_creation_method            fapswitch 2.2
_symmetry_space_group_name_H-M    P1
_symmetry_Int_Tables_number       1
_space_group_crystal_system       triclinic
_cell_length_a                    18.462035
_cell_length_b                    18.459338
_cell_length_c                    36.17581
_cell_angle_alpha                 89.961612
_cell_angle_beta                  90.018585
_cell_angle_gamma                 90.027104
_cell_volume                      12328.6007093

loop_
_atom_site_label
_atom_site_type_symbol
_atom_type_description
_atom_site_fract_x
_atom_site_fract_y
_atom_site_fract_z
_atom_type_partial_charge
C1    C     C_R   0.499993 0.999997 0.901128 0.578503
C2    C     C_R   0.446222 0.038706 0.730187 0.217405
C3    C     C_R   0.289063 0.767734 0.537306 0.198009
C4    C     C_3   0.174433 0.765060 0.936173 0.470683
C5    C     C_3   0.235576 0.174666 0.936305 0.471692
C6    C     C_3   0.825132 0.235571 0.936142 0.471884
C7    C     C_3   0.764996 0.826094 0.936489 0.473495
C8    C     C_3   0.178619 0.238714 0.933955 0.476465
C9    C     C_3   0.238948 0.821517 0.933757 0.474430
C10   C     C_3   0.821958 0.762057 0.934200 0.477019
C11   C     C_3   0.760712 0.179014 0.933742 0.475807
C12   C     C_3   0.718511 0.224454 0.429496 0.451205
C13   C     C_R   0.963964 0.443334 0.730091 0.220709
C14   C     C_3   0.776875 0.719365 0.429948 0.490074
C15   C     C_3   0.281572 0.775625 0.429576 0.449943
C16   C     C_3   0.222876 0.280668 0.429979 0.489664
C17   C     C_3   0.722409 0.785761 0.430778 0.454365
C18   C     C_3   0.784029 0.280155 0.430085 0.455784
C19   C     C_3   0.277339 0.214267 0.430798 0.454845
C20   C     C_3   0.216044 0.719935 0.430146 0.457753
C21   C     C_R   0.970497 0.439835 0.768819 0.250093
C22   C     C_R   0.558037 0.967936 0.768917 0.251059
C23   C     C_R   0.028403 0.558877 0.768678 0.246757
C24   C     C_R   0.553825 0.960931 0.730249 0.218337
C25   C     C_R   0.442017 0.031788 0.768862 0.250671
C26   C     C_R   0.558219 0.969156 0.269420 0.217022
C27   C     C_R   0.037492 0.554523 0.269441 0.232977
C28   C     C_R   0.441568 0.030953 0.269364 0.218468
C29   C     C_R   0.962555 0.445077 0.269454 0.234222
C30   C     C_R   0.999439 0.499495 0.788213 -0.062558
C31   C     C_R   0.500027 0.999880 0.788335 -0.065353
C32   C     C_R   0.499896 0.000074 0.288594 -0.042160
C33   C     C_R   0.000000 0.499809 0.288717 -0.058695
C34   C     C_3   0.089722 0.839336 0.972038 -0.006159
C35   C     C_R   0.499880 0.999966 0.211184 -0.079188
C36   C     C_3   0.036597 0.803175 0.998855 -0.251284
C37   C     C_3   0.006552 0.856711 0.026984 -0.503952
C38   C     C_3   0.161726 0.089335 0.972147 -0.009883
C39   C     C_3   0.197397 0.035933 0.999003 -0.247046
C40   C     C_3   0.143415 0.006151 0.027020 -0.484504
C41   C     C_3   0.910221 0.161219 0.971848 -0.010660
C42   C     C_3   0.963455 0.197253 0.998665 -0.246367
C43   C     C_3   0.994299 0.143379 0.026447 -0.482372
C44   C     C_3   0.838783 0.911493 0.972241 -0.006252
C45   C     C_3   0.803014 0.964949 0.998960 -0.252883
C46   C     C_R   0.000047 0.499810 0.211329 -0.087479
C47   C     C_3   0.856631 0.993843 0.027390 -0.503648
C48   C     C_3   0.085252 0.173971 0.904870 0.035980
C49   C     C_3   0.031365 0.212584 0.879801 -0.219120
C50   C     C_3   0.993853 0.158212 0.854266 -0.491589
C51   C     C_3   0.175056 0.914999 0.904381 0.037020
C52   C     C_3   0.213474 0.969437 0.879492 -0.218031
C53   C     C_3   0.158889 0.006522 0.853900 -0.491720
C54   C     C_3   0.915620 0.826806 0.905311 0.032781
C55   C     C_3   0.968652 0.787669 0.880072 -0.218353
C56   C     C_3   0.006008 0.841588 0.854178 -0.488751
C57   C     C_R   0.000293 0.498980 0.710801 -0.096620
C58   C     C_3   0.824828 0.085926 0.904185 0.037502
C59   C     C_3   0.786669 0.031317 0.879313 -0.217541
C60   C     C_3   0.841440 0.994462 0.853775 -0.492691
C61   C     C_3   0.619438 0.311367 0.425452 -0.009157
C62   C     C_3   0.550637 0.292195 0.446838 -0.237220
C63   C     C_3   0.501822 0.357740 0.451962 -0.496053
C64   C     C_3   0.689180 0.621283 0.423546 -0.014568
C65   C     C_3   0.707785 0.553316 0.445844 -0.240496
C66   C     C_3   0.642285 0.504390 0.451197 -0.493642
C67   C     C_3   0.380611 0.688709 0.425476 -0.013060
C68   C     C_R   0.500021 0.999799 0.710921 -0.104172
C69   C     C_3   0.449481 0.707769 0.446834 -0.235334
C70   C     C_3   0.498160 0.642121 0.452013 -0.489988
C71   C     C_3   0.310625 0.378720 0.423578 -0.014604
C72   C     C_3   0.292154 0.446688 0.445850 -0.240754
C73   C     C_3   0.357739 0.495504 0.451186 -0.493424
C74   C     C_3   0.659118 0.779304 0.374874 0.046351
C75   C     C_3   0.588877 0.750422 0.358042 -0.293159
C76   C     C_3   0.592358 0.749350 0.315918 -0.438885
C77   C     C_3   0.772432 0.347760 0.375653 0.046239
C78   C     C_3   0.741880 0.418940 0.360688 -0.291711
C79   C     C_1   0.999072 0.500197 0.828180 0.023676
C80   C     C_3   0.737306 0.418433 0.318594 -0.435890
C81   C     C_3   0.340550 0.220834 0.374892 0.046403
C82   C     C_3   0.410725 0.249847 0.358046 -0.293241
C83   C     C_3   0.407262 0.250782 0.315921 -0.438683
C84   C     C_3   0.227591 0.652523 0.375699 0.046115
C85   C     C_3   0.258098 0.581381 0.360721 -0.291579
C86   C     C_3   0.262837 0.582114 0.318634 -0.436290
C87   C     C_3   0.998984 0.338235 0.802706 0.018934
C88   C     C_3   0.027166 0.281124 0.775284 -0.260449
C89   C     C_3   0.093223 0.307298 0.753593 -0.370278
C90   C     C_1   0.500021 0.999927 0.828273 0.020142
C91   C     C_3   0.661457 0.994102 0.801827 0.018992
C92   C     C_3   0.718395 0.019547 0.773582 -0.261599
C93   C     C_3   0.693967 0.086274 0.751876 -0.371666
C94   C     C_3   0.990229 0.662176 0.797558 0.011540
C95   C     C_3   0.962574 0.709251 0.765474 -0.252816
C96   C     C_3   0.893426 0.749713 0.775797 -0.448510
C97   C     C_3   0.338630 0.005836 0.801832 0.019284
C98   C     C_3   0.281555 0.980390 0.773661 -0.259961
C99   C     C_3   0.305846 0.913612 0.752009 -0.373178
C100  C     C_3   0.672459 0.993819 0.288851 0.028243
C101  C     C_1   0.499909 0.000092 0.328402 0.033268
C102  C     C_3   0.735363 0.966018 0.312325 -0.233848
C103  C     C_3   0.804747 0.008588 0.304801 -0.433297
C104  C     C_3   0.023964 0.661521 0.301413 0.013487
C105  C     C_3   0.015682 0.722559 0.273012 -0.237283
C106  C     C_3   0.969583 0.784461 0.288007 -0.471192
C107  C     C_3   0.327323 0.006466 0.288832 0.028450
C108  C     C_3   0.264452 0.034452 0.312231 -0.233804
C109  C     C_3   0.195027 0.991900 0.304784 -0.433550
C110  C     C_3   0.976134 0.338060 0.301477 0.013217
C111  C     C_3   0.984657 0.277180 0.273047 -0.236313
C112  C     C_R   0.999834 0.500053 0.901103 0.577780
C113  C     C_1   0.999968 0.499838 0.328519 0.005278
C114  C     C_3   0.030728 0.215240 0.288080 -0.471414
C115  C     C_1   0.499900 0.999942 0.171385 0.129428
C116  C     C_1   0.000042 0.499848 0.171481 0.125894
C117  C     C_1   0.000423 0.499200 0.671116 0.127548
C118  C     C_1   0.500041 0.999814 0.671198 0.123326
C119  C     C_1   0.499932 0.999944 0.138183 0.151349
C120  C     C_1   0.000030 0.499902 0.138253 0.150088
C121  C     C_1   0.000330 0.499655 0.637988 0.162723
C122  C     C_1   0.500035 0.999879 0.638047 0.147944
C123  C     C_1   0.999316 0.500235 0.861490 0.084536
C124  C     C_R   0.999989 0.499984 0.401191 0.579724
C125  C     C_1   0.499995 0.999964 0.861560 0.082480
C126  C     C_1   0.499945 0.000073 0.361647 0.049055
C127  C     C_1   0.999967 0.499902 0.361736 0.043701
C128  C     C_R   0.499980 0.999980 0.098777 0.523562
C129  C     C_R   0.000010 0.499976 0.098801 0.521725
C130  C     C_R   0.000086 0.499942 0.598709 0.576678
C131  C     C_R   0.500011 0.999984 0.598729 0.548831
C132  C     C_R   0.640515 0.860729 0.000598 0.564619
C133  C     C_R   0.139319 0.640499 0.000539 0.564184
C134  C     C_R   0.359526 0.139301 0.000534 0.572937
C135  C     C_R   0.499992 0.000023 0.401159 0.574478
C136  C     C_R   0.860677 0.359547 0.000510 0.572700
C137  C     C_R   0.638960 0.141259 0.999758 0.559277
C138  C     C_R   0.141237 0.360985 0.999792 0.557808
C139  C     C_R   0.361217 0.858575 0.999635 0.556256
C140  C     C_R   0.858682 0.638933 0.999719 0.558390
C141  C     C_R   0.140779 0.360768 0.500383 0.603003
C142  C     C_R   0.639419 0.140600 0.500214 0.602656
C143  C     C_R   0.859232 0.639230 0.500360 0.603161
C144  C     C_R   0.360635 0.859360 0.500261 0.627835
C145  C     C_R   0.140923 0.639195 0.500928 0.603585
C146  C     C_R   0.444333 0.036541 0.230506 0.216906
C147  C     C_R   0.639193 0.858995 0.500981 0.609358
C148  C     C_R   0.859080 0.360779 0.500928 0.602460
C149  C     C_R   0.360850 0.141038 0.500980 0.604416
C150  C     C_R   0.259438 0.792179 0.971302 -0.059023
C151  C     C_R   0.207925 0.259436 0.971479 -0.058909
C152  C     C_R   0.740439 0.207982 0.971391 -0.060232
C153  C     C_R   0.792627 0.741302 0.971687 -0.058577
C154  C     C_R   0.260436 0.208193 0.971641 -0.066403
C155  C     C_R   0.207805 0.739983 0.971573 -0.061723
C156  C     C_R   0.740179 0.792584 0.971867 -0.061043
C157  C     C_R   0.956751 0.449278 0.230690 0.225840
C158  C     C_R   0.791927 0.260302 0.971601 -0.066796
C159  C     C_R   0.770793 0.281478 0.471126 -0.054845
C160  C     C_R   0.717473 0.769511 0.471430 -0.063118
C161  C     C_R   0.229339 0.718460 0.471187 -0.055900
C162  C     C_R   0.282318 0.230404 0.471447 -0.061885
C163  C     C_R   0.767430 0.716141 0.471157 -0.094078
C164  C     C_R   0.717729 0.231176 0.470863 -0.079507
C165  C     C_R   0.232359 0.283758 0.471189 -0.093709
C166  C     C_R   0.282430 0.768729 0.470946 -0.089377
C167  C     C_R   0.308300 0.799915 0.000280 -0.018621
C168  C     C_R   0.555435 0.963451 0.230572 0.208763
C169  C     C_R   0.199574 0.307685 0.000677 -0.020290
C170  C     C_R   0.692189 0.199648 0.000596 -0.020479
C171  C     C_R   0.800276 0.692159 0.000560 -0.018504
C172  C     C_R   0.303345 0.194044 0.002157 -0.030023
C173  C     C_R   0.194307 0.696513 0.002014 -0.043188
C174  C     C_R   0.696588 0.805873 0.002213 -0.042934
C175  C     C_R   0.805936 0.303326 0.002101 -0.030266
C176  C     C_R   0.800858 0.307519 0.503586 -0.007791
C177  C     C_R   0.692173 0.800394 0.503821 -0.000554
C178  C     C_R   0.199219 0.692373 0.503627 -0.009869
C179  C     C_R   0.043340 0.550322 0.230686 0.218771
C180  C     C_R   0.307976 0.199707 0.503830 -0.004066
C181  C     C_R   0.798615 0.689259 0.503140 -0.037561
C182  C     C_R   0.689761 0.200966 0.502857 -0.038297
C183  C     C_R   0.201406 0.310730 0.503180 -0.036890
C184  C     C_R   0.310295 0.798978 0.502948 -0.022746
C185  C     C_R   0.302228 0.749519 0.030587 0.204499
C186  C     C_R   0.249157 0.300732 0.031319 0.201539
C187  C     C_R   0.699136 0.249191 0.031233 0.202780
C188  C     C_R   0.749881 0.698112 0.030869 0.204046
C189  C     C_R   0.292262 0.237046 0.034118 0.198257
C190  C     C_R   0.035868 0.554997 0.730056 0.213774
C191  C     C_R   0.238465 0.706690 0.033685 0.159575
C192  C     C_R   0.706852 0.761767 0.033909 0.157914
C193  C     C_R   0.762843 0.292265 0.034044 0.197331
C194  C     C_R   0.771427 0.281827 0.538038 0.202734
C195  C     C_R   0.717856 0.771034 0.538295 0.210903
C196  C     C_R   0.228583 0.717988 0.538104 0.198430
C197  C     C_R   0.282680 0.229238 0.538309 0.204224
C198  C     C_R   0.767482 0.710472 0.537496 0.162100
C199  C     C_R   0.710795 0.232316 0.537188 0.160276
C200  C     C_R   0.232854 0.289671 0.537520 0.162943
H1    H     H_    0.490434 0.704637 0.053040 0.400543
H2    H     H_    0.700653 0.924015 0.601317 0.393087
H3    H     H_    0.598541 0.533736 0.465838 0.153801
H4    H     H_    0.658302 0.457672 0.468653 0.161420
H5    H     H_    0.621808 0.484496 0.424199 0.133635
H6    H     H_    0.395689 0.654915 0.401309 0.150879
H7    H     H_    0.345977 0.654933 0.443422 0.152290
H8    H     H_    0.480096 0.751002 0.432194 0.223636
H9    H     H_    0.434476 0.726576 0.474822 0.192443
H10   H     H_    0.468304 0.597746 0.465986 0.154996
H11   H     H_    0.544440 0.657538 0.469920 0.166618
H12   H     H_    0.518738 0.622807 0.424913 0.132193
H13   H     H_    0.076199 0.699573 0.601455 0.394764
H14   H     H_    0.342531 0.395118 0.398941 0.150312
H15   H     H_    0.346181 0.343785 0.440425 0.150365
H16   H     H_    0.248440 0.477720 0.431877 0.225893
H17   H     H_    0.274130 0.430564 0.473804 0.170208
H18   H     H_    0.401449 0.466071 0.465843 0.153603
H19   H     H_    0.341812 0.542229 0.468620 0.163031
H20   H     H_    0.378223 0.515394 0.424181 0.133365
H21   H     H_    0.705508 0.747493 0.363837 0.191060
H22   H     H_    0.665303 0.836824 0.366324 0.203245
H23   H     H_    0.578666 0.694524 0.368172 0.157976
H24   H     H_    0.300988 0.076923 0.601785 0.393941
H25   H     H_    0.542911 0.785215 0.366910 0.193875
H26   H     H_    0.601964 0.804716 0.305073 0.234685
H27   H     H_    0.540221 0.729057 0.304646 0.168769
H28   H     H_    0.636588 0.713054 0.306452 0.172635
H29   H     H_    0.740372 0.301865 0.364231 0.168123
H30   H     H_    0.829378 0.343096 0.366006 0.206425
H31   H     H_    0.686840 0.428077 0.372068 0.154672
H32   H     H_    0.777161 0.464510 0.369616 0.195888
H33   H     H_    0.791841 0.410669 0.306431 0.239460
H34   H     H_    0.715277 0.470978 0.308749 0.169834
H35   H     H_    0.773182 0.547467 0.551845 0.332047
H36   H     H_    0.700947 0.374262 0.309065 0.165810
H37   H     H_    0.294094 0.252604 0.363852 0.190888
H38   H     H_    0.334433 0.163316 0.366359 0.203061
H39   H     H_    0.420786 0.305797 0.368097 0.157802
H40   H     H_    0.456778 0.215204 0.366984 0.194023
H41   H     H_    0.398012 0.195323 0.305156 0.234543
H42   H     H_    0.459283 0.271363 0.304642 0.168996
H43   H     H_    0.362813 0.286772 0.306380 0.172664
H44   H     H_    0.259667 0.698444 0.364296 0.168174
H45   H     H_    0.170645 0.657252 0.366039 0.206073
H46   H     H_    0.547558 0.228154 0.551041 0.331428
H47   H     H_    0.313081 0.572099 0.372165 0.154794
H48   H     H_    0.222718 0.535813 0.369571 0.195879
H49   H     H_    0.208376 0.590123 0.306406 0.239675
H50   H     H_    0.284743 0.529559 0.308776 0.169888
H51   H     H_    0.299369 0.626228 0.309191 0.165362
H52   H     H_    0.706606 0.835302 0.219472 0.379800
H53   H     H_    0.191318 0.682374 0.219099 0.380379
H54   H     H_    0.293173 0.164672 0.219169 0.380118
H55   H     H_    0.808844 0.317177 0.219111 0.380738
H56   H     H_    0.838212 0.290039 0.718261 0.379875
H57   H     H_    0.225888 0.452852 0.551878 0.332486
H58   H     H_    0.701650 0.828921 0.718788 0.380277
H59   H     H_    0.157565 0.711727 0.718355 0.380323
H60   H     H_    0.299005 0.171394 0.718442 0.380942
H61   H     H_    0.974825 0.309517 0.826530 0.167432
H62   H     H_    0.044767 0.370040 0.814444 0.127165
H63   H     H_    0.044088 0.232257 0.790888 0.123571
H64   H     H_    0.983525 0.264269 0.756033 0.245112
H65   H     H_    0.080235 0.355522 0.736656 0.187337
H66   H     H_    0.111841 0.263576 0.734801 0.189554
H67   H     H_    0.138161 0.320892 0.772802 0.160285
H68   H     H_    0.450834 0.828303 0.588666 0.382549
H69   H     H_    0.690372 0.970002 0.825621 0.169339
H70   H     H_    0.631556 0.041229 0.813446 0.126713
H71   H     H_    0.768624 0.034737 0.788486 0.121670
H72   H     H_    0.732612 0.974961 0.754374 0.245224
H73   H     H_    0.644490 0.074987 0.735586 0.186541
H74   H     H_    0.737531 0.102820 0.732470 0.189772
H75   H     H_    0.683127 0.132026 0.771022 0.161626
H76   H     H_    0.008392 0.698208 0.820001 0.164051
H77   H     H_    0.945114 0.629094 0.809154 0.134181
H78   H     H_    0.005121 0.748852 0.757455 0.215317
H79   H     H_    0.156191 0.693031 0.841723 0.396334
H80   H     H_    0.949830 0.674738 0.741260 0.211524
H81   H     H_    0.876542 0.784901 0.752430 0.185444
H82   H     H_    0.902180 0.784122 0.800437 0.164485
H83   H     H_    0.849119 0.710634 0.781605 0.188487
H84   H     H_    0.309847 0.030050 0.825612 0.168814
H85   H     H_    0.368504 0.958694 0.813495 0.126585
H86   H     H_    0.231377 0.965271 0.788624 0.122360
H87   H     H_    0.267307 0.024956 0.754410 0.246534
H88   H     H_    0.355269 0.924841 0.735674 0.184448
H89   H     H_    0.262194 0.897073 0.732651 0.189722
H90   H     H_    0.307493 0.167928 0.841408 0.397845
H91   H     H_    0.316727 0.867879 0.771195 0.161655
H92   H     H_    0.653755 0.046404 0.300655 0.122120
H93   H     H_    0.691967 0.003182 0.260126 0.195827
H94   H     H_    0.720631 0.971051 0.341990 0.225368
H95   H     H_    0.745416 0.907879 0.306143 0.214118
H96   H     H_    0.823566 0.998589 0.276092 0.158214
H97   H     H_    0.847872 0.990928 0.324195 0.184478
H98   H     H_    0.795416 0.067518 0.308449 0.191806
H99   H     H_    0.046392 0.684688 0.327345 0.179336
H100  H     H_    0.969581 0.639194 0.308580 0.135454
H101  H     H_    0.834385 0.308414 0.841396 0.397537
H102  H     H_    0.069947 0.744072 0.265532 0.225783
H103  H     H_    0.989340 0.700909 0.247734 0.205183
H104  H     H_    0.963608 0.826904 0.266458 0.171472
H105  H     H_    0.995987 0.809047 0.312568 0.154652
H106  H     H_    0.914840 0.764468 0.295648 0.184637
H107  H     H_    0.345979 0.953924 0.300745 0.121576
H108  H     H_    0.307802 0.996978 0.260120 0.197258
H109  H     H_    0.279190 0.029576 0.341911 0.225105
H110  H     H_    0.254445 0.092565 0.305923 0.213973
H111  H     H_    0.176236 0.001706 0.276040 0.158371
H112  H     H_    0.294627 0.487431 0.056386 0.401429
H113  H     H_    0.693724 0.832512 0.841478 0.397266
H114  H     H_    0.151909 0.009751 0.324110 0.184361
H115  H     H_    0.204295 0.932987 0.308592 0.191728
H116  H     H_    0.953624 0.314722 0.327357 0.179612
H117  H     H_    0.030439 0.360451 0.308745 0.135391
H118  H     H_    0.930461 0.255653 0.265445 0.226984
H119  H     H_    0.011139 0.298994 0.247838 0.206713
H120  H     H_    0.036842 0.172909 0.266515 0.172171
H121  H     H_    0.004223 0.190510 0.312583 0.154642
H122  H     H_    0.085419 0.235240 0.295816 0.184751
H123  H     H_    0.195179 0.331900 0.843408 0.364135
H124  H     H_    0.331478 0.805053 0.843185 0.364885
H125  H     H_    0.797270 0.668280 0.844172 0.368061
H126  H     H_    0.667234 0.195224 0.843352 0.365326
H127  H     H_    0.722085 0.151766 0.356765 0.332674
H128  H     H_    0.924653 0.774394 0.368153 0.350307
H129  H     H_    0.277752 0.848542 0.356859 0.332680
H130  H     H_    0.074998 0.225853 0.368196 0.350244
H131  H     H_    0.826981 0.934110 0.387630 0.389244
H132  H     H_    0.511572 0.290719 0.056691 0.401363
H133  H     H_    0.935838 0.198158 0.377673 0.362946
H134  H     H_    0.172806 0.065970 0.387640 0.389257
H135  H     H_    0.064107 0.801850 0.377685 0.362967
H136  H     H_    0.063564 0.889504 0.961735 0.134231
H137  H     H_    0.138675 0.856638 0.987414 0.136619
H138  H     H_    0.991168 0.778732 0.983303 0.246797
H139  H     H_    0.064070 0.759922 0.014486 0.161566
H140  H     H_    0.050289 0.875101 0.045847 0.160742
H141  H     H_    0.963760 0.829982 0.043711 0.163801
H142  H     H_    0.982696 0.904230 0.012748 0.134927
H143  H     H_    0.708287 0.509261 0.054000 0.401168
H144  H     H_    0.111680 0.063238 0.961665 0.133759
H145  H     H_    0.144366 0.138143 0.987590 0.140577
H146  H     H_    0.221576 0.990368 0.983455 0.240400
H147  H     H_    0.240669 0.063119 0.014780 0.193930
H148  H     H_    0.125200 0.049958 0.045862 0.179486
H149  H     H_    0.169659 0.963095 0.043773 0.167802
H150  H     H_    0.095817 0.982717 0.012681 0.125411
H151  H     H_    0.936420 0.111189 0.961445 0.133802
H152  H     H_    0.861400 0.143658 0.987251 0.140071
H153  H     H_    0.008500 0.222315 0.983050 0.242186
H154  H     H_    0.332747 0.095603 0.102069 0.392797
H155  H     H_    0.935871 0.239933 0.014651 0.192709
H156  H     H_    0.951064 0.124644 0.045519 0.178666
H157  H     H_    0.037444 0.169962 0.042994 0.172249
H158  H     H_    0.017891 0.096099 0.011936 0.123981
H159  H     H_    0.888877 0.937555 0.961786 0.134097
H160  H     H_    0.856068 0.862718 0.987776 0.137307
H161  H     H_    0.779705 0.010929 0.983362 0.244728
H162  H     H_    0.759024 0.938048 0.014320 0.163451
H163  H     H_    0.874205 0.949563 0.046141 0.160897
H164  H     H_    0.830348 0.036762 0.044181 0.170675
H165  H     H_    0.104448 0.740377 0.079683 0.328055
H166  H     H_    0.904640 0.017225 0.013385 0.133339
H167  H     H_    0.058582 0.124732 0.915953 0.123965
H168  H     H_    0.131629 0.155841 0.887540 0.195976
H169  H     H_    0.990476 0.241604 0.896494 0.271256
H170  H     H_    0.060624 0.253211 0.862940 0.188764
H171  H     H_    0.034026 0.132908 0.835436 0.145079
H172  H     H_    0.951724 0.185589 0.837488 0.188200
H173  H     H_    0.967404 0.114804 0.870620 0.138103
H174  H     H_    0.125479 0.941075 0.915380 0.124060
H175  H     H_    0.157513 0.868636 0.886874 0.196913
H176  H     H_    0.739956 0.896135 0.079470 0.328039
H177  H     H_    0.241914 0.010518 0.896333 0.271720
H178  H     H_    0.254606 0.940862 0.862646 0.187838
H179  H     H_    0.134496 0.966250 0.834792 0.146355
H180  H     H_    0.185780 0.049436 0.837440 0.187925
H181  H     H_    0.114818 0.031953 0.870174 0.136896
H182  H     H_    0.943103 0.875571 0.916414 0.124446
H183  H     H_    0.869306 0.845689 0.888121 0.194042
H184  H     H_    0.009694 0.758416 0.896587 0.273439
H185  H     H_    0.938523 0.747094 0.863670 0.191674
H186  H     H_    0.965599 0.868799 0.836201 0.139329
H187  H     H_    0.904123 0.333717 0.101848 0.391700
H188  H     H_    0.046215 0.813546 0.836523 0.191557
H189  H     H_    0.034556 0.883798 0.870381 0.139646
H190  H     H_    0.874533 0.060040 0.915173 0.124430
H191  H     H_    0.842177 0.132432 0.886690 0.197486
H192  H     H_    0.758432 0.990089 0.896174 0.271695
H193  H     H_    0.745397 0.059705 0.862439 0.187783
H194  H     H_    0.865713 0.034848 0.834670 0.146123
H195  H     H_    0.814752 0.951463 0.837308 0.186048
H196  H     H_    0.885571 0.969166 0.870097 0.136714
H197  H     H_    0.604276 0.345244 0.401300 0.150655
H198  H     H_    0.923816 0.299771 0.601530 0.393945
H199  H     H_    0.654110 0.345095 0.443390 0.150861
H200  H     H_    0.520082 0.248885 0.432244 0.226071
H201  H     H_    0.565729 0.273460 0.474844 0.169973
H202  H     H_    0.531599 0.402181 0.465905 0.153057
H203  H     H_    0.455586 0.342224 0.469873 0.160244
H204  H     H_    0.481176 0.377002 0.424846 0.135378
H205  H     H_    0.657253 0.604876 0.398918 0.150214
H206  H     H_    0.653612 0.656164 0.440377 0.150652
H207  H     H_    0.751528 0.522370 0.431882 0.225823
H208  H     H_    0.725829 0.569434 0.473791 0.170367
O1    O     O_3   0.500000 0.000000 0.000000 -0.519939
O2    O     O_R   0.500000 0.939300 0.418540 -0.506493
O3    O     O_3   0.427794 0.814342 0.564984 -0.545229
O4    O     O_2   0.240997 0.651375 0.901401 -0.185895
O5    O     O_2   0.109857 0.646759 0.907076 -0.260240
O6    O     O_3   0.162162 0.734179 0.859020 -0.510557
O7    O     O_2   0.349042 0.242341 0.901963 -0.191091
O8    O     O_2   0.354285 0.111079 0.906988 -0.258434
O9    O     O_3   0.266816 0.163851 0.859135 -0.520021
O10   O     O_2   0.758576 0.350118 0.902129 -0.191021
O11   O     O_2   0.889931 0.353622 0.906840 -0.260464
O12   O     O_3   0.835574 0.267257 0.858968 -0.515832
O13   O     O_R   0.060700 0.500000 0.418540 -0.500863
O14   O     O_2   0.652204 0.757940 0.901824 -0.191384
O15   O     O_2   0.645887 0.889105 0.907105 -0.256704
O16   O     O_3   0.734102 0.837551 0.859329 -0.525479
O17   O     O_2   0.128958 0.364778 0.905737 -0.277073
O18   O     O_2   0.259876 0.355396 0.912305 -0.194821
O19   O     O_3   0.197235 0.286853 0.858261 -0.498216
O20   O     O_2   0.365361 0.870114 0.905538 -0.277561
O21   O     O_2   0.354828 0.739249 0.912145 -0.193496
O22   O     O_3   0.286579 0.802402 0.858107 -0.491058
O23   O     O_2   0.872054 0.636405 0.905657 -0.272459
O24   O     O_R   0.500000 0.060700 0.418540 -0.504922
O25   O     O_2   0.741265 0.644630 0.913255 -0.199207
O26   O     O_3   0.801610 0.713549 0.858686 -0.508274
O27   O     O_2   0.633762 0.130800 0.905965 -0.276346
O28   O     O_2   0.645010 0.261660 0.912163 -0.193489
O29   O     O_3   0.712326 0.197668 0.858144 -0.495419
O30   O     O_2   0.794421 0.098400 0.438858 -0.160946
O31   O     O_2   0.669124 0.088790 0.418253 -0.256845
O32   O     O_3   0.763791 0.132125 0.370781 -0.491926
O33   O     O_2   0.902978 0.794032 0.441559 -0.194264
O34   O     O_2   0.912366 0.668660 0.420546 -0.254315
O35   O     O_R   0.500000 0.939270 0.081460 -0.483920
O36   O     O_3   0.872797 0.764174 0.372768 -0.503433
O37   O     O_2   0.205728 0.901671 0.439004 -0.162028
O38   O     O_2   0.330951 0.911324 0.418323 -0.259372
O39   O     O_3   0.236112 0.868175 0.370902 -0.491029
O40   O     O_2   0.096776 0.206009 0.441601 -0.194034
O41   O     O_2   0.087400 0.331433 0.420580 -0.254082
O42   O     O_3   0.126867 0.236013 0.372808 -0.503760
O43   O     O_2   0.691632 0.928424 0.424330 -0.259690
O44   O     O_2   0.803602 0.898890 0.456911 -0.198877
O45   O     O_3   0.801295 0.887213 0.385329 -0.523571
O46   O     O_R   0.060730 0.500000 0.081460 -0.482034
O47   O     O_2   0.925562 0.314508 0.423222 -0.274575
O48   O     O_2   0.899939 0.196665 0.450901 -0.186615
O49   O     O_3   0.884064 0.211515 0.379816 -0.514441
O50   O     O_2   0.308110 0.071623 0.424377 -0.258652
O51   O     O_2   0.196168 0.101092 0.456940 -0.198341
O52   O     O_3   0.198414 0.112916 0.385355 -0.523749
O53   O     O_2   0.074485 0.685631 0.423297 -0.274908
O54   O     O_2   0.100179 0.803410 0.450957 -0.186933
O55   O     O_3   0.115932 0.788700 0.379874 -0.514233
O56   O     O_3   0.102884 0.794242 0.940694 -0.578795
O57   O     O_R   0.500000 0.060730 0.081460 -0.505018
O58   O     O_3   0.207199 0.102760 0.940947 -0.578261
O59   O     O_3   0.896783 0.206527 0.940568 -0.578836
O60   O     O_3   0.793368 0.898007 0.941030 -0.577363
O61   O     O_3   0.104881 0.217823 0.935518 -0.591223
O62   O     O_3   0.218693 0.895430 0.935136 -0.590033
O63   O     O_3   0.895702 0.782861 0.935886 -0.592033
O64   O     O_3   0.781140 0.105132 0.934959 -0.590376
O65   O     O_3   0.653545 0.248029 0.411406 -0.574708
O66   O     O_3   0.752914 0.656179 0.410371 -0.547945
O67   O     O_3   0.346499 0.752118 0.411465 -0.575001
O68   O     O_R   0.939270 0.500000 0.081460 -0.505622
O69   O     O_3   0.246818 0.343928 0.410421 -0.547864
O70   O     O_3   0.654181 0.774223 0.413785 -0.591073
O71   O     O_3   0.769907 0.349455 0.414722 -0.589227
O72   O     O_3   0.345543 0.225849 0.413803 -0.590951
O73   O     O_3   0.230132 0.650686 0.414768 -0.588807
O74   O     O_2   0.583694 0.863970 0.178296 -0.197639
O75   O     O_2   0.671907 0.961611 0.186619 -0.276539
O76   O     O_3   0.668731 0.857653 0.235134 -0.496814
O77   O     O_2   0.146556 0.563729 0.178856 -0.200071
O78   O     O_2   0.061654 0.664429 0.185896 -0.277333
O79   O     O_R   1.000000 0.439270 0.581460 -0.503737
O80   O     O_3   0.163377 0.648797 0.235012 -0.493118
O81   O     O_2   0.416060 0.135857 0.178067 -0.223505
O82   O     O_2   0.327845 0.038249 0.186521 -0.301112
O83   O     O_3   0.331048 0.142367 0.234875 -0.491236
O84   O     O_2   0.853767 0.435676 0.178709 -0.217717
O85   O     O_2   0.938622 0.335000 0.186070 -0.305086
O86   O     O_3   0.836674 0.350867 0.234999 -0.487770
O87   O     O_2   0.865530 0.413790 0.677490 -0.203060
O88   O     O_2   0.964229 0.327002 0.685948 -0.295403
O89   O     O_3   0.859635 0.328222 0.734089 -0.447947
O90   O     O_R   0.560730 0.000000 0.581460 -0.501809
O91   O     O_2   0.577796 0.859863 0.678308 -0.216931
O92   O     O_2   0.669138 0.954820 0.685524 -0.294424
O93   O     O_3   0.664165 0.851738 0.734524 -0.448533
O94   O     O_2   0.140319 0.582892 0.680588 -0.200920
O95   O     O_2   0.037720 0.666500 0.682547 -0.293907
O96   O     O_3   0.134644 0.674955 0.734521 -0.447577
O97   O     O_2   0.422251 0.139620 0.678088 -0.199747
O98   O     O_2   0.330831 0.044772 0.685466 -0.297823
O99   O     O_3   0.335991 0.148013 0.734297 -0.447553
O100  O     O_3   0.942469 0.380825 0.787525 -0.490672
O101  O     O_R   1.000000 0.560730 0.581460 -0.502406
O102  O     O_3   0.616400 0.938483 0.787593 -0.489419
O103  O     O_3   0.051244 0.620208 0.787253 -0.493891
O104  O     O_3   0.383698 0.061356 0.787486 -0.489112
O105  O     O_3   0.616192 0.941893 0.289206 -0.540731
O106  O     O_3   0.073628 0.608526 0.288643 -0.533090
O107  O     O_3   0.383640 0.058338 0.289102 -0.540305
O108  O     O_3   0.926441 0.391042 0.288669 -0.532534
O109  O     O_3   1.000000 0.500000 0.000000 -0.520090
O110  O     O_R   0.439270 0.000000 0.581460 -0.518243
O111  O     O_R   0.646180 0.914510 0.978640 -0.506903
O112  O     O_R   0.085490 0.646180 0.978640 -0.507958
O113  O     O_R   0.353820 0.085490 0.978640 -0.507925
O114  O     O_R   0.914510 0.353820 0.978640 -0.508653
O115  O     O_R   0.646180 0.085490 0.978640 -0.506312
O116  O     O_R   0.085490 0.353820 0.978640 -0.506743
O117  O     O_R   0.353820 0.914510 0.978640 -0.507058
O118  O     O_R   0.914510 0.646180 0.978640 -0.506185
O119  O     O_R   0.146180 0.414510 0.478640 -0.548815
O120  O     O_3   1.000000 0.500000 0.500000 -0.500900
O121  O     O_R   0.585490 0.146180 0.478640 -0.547709
O122  O     O_R   0.853820 0.585490 0.478640 -0.548721
O123  O     O_R   0.414510 0.853820 0.478640 -0.535255
O124  O     O_R   0.146180 0.585490 0.478640 -0.526886
O125  O     O_R   0.585490 0.853820 0.478640 -0.523533
O126  O     O_R   0.853820 0.414510 0.478640 -0.527207
O127  O     O_R   0.414510 0.146180 0.478640 -0.530284
O128  O     O_R   0.414550 0.146120 0.021350 -0.471471
O129  O     O_R   0.853880 0.414550 0.021350 -0.471788
O130  O     O_R   0.585450 0.853880 0.021350 -0.462832
O131  O     O_3   0.500000 0.000000 0.500000 -0.499485
O132  O     O_R   0.146120 0.585450 0.021350 -0.462051
O133  O     O_R   0.414550 0.853880 0.021350 -0.469744
O134  O     O_R   0.853880 0.585450 0.021350 -0.467797
O135  O     O_R   0.585450 0.146120 0.021350 -0.466484
O136  O     O_R   0.146120 0.414550 0.021350 -0.468225
O137  O     O_R   0.914550 0.646120 0.521350 -0.456493
O138  O     O_R   0.353880 0.914550 0.521350 -0.466722
O139  O     O_R   0.085450 0.353880 0.521350 -0.456316
O140  O     O_R   0.646120 0.085450 0.521350 -0.456936
O141  O     O_R   0.914550 0.353880 0.521350 -0.459516
O142  O     O_R   0.439300 0.000000 0.918540 -0.469994
O143  O     O_R   0.353880 0.085450 0.521350 -0.456481
O144  O     O_R   0.085450 0.646120 0.521350 -0.459924
O145  O     O_R   0.646120 0.914550 0.521350 -0.460561
O146  O     O_2   0.386059 0.789167 0.088257 -0.213490
O147  O     O_2   0.365526 0.658947 0.080758 -0.178021
O148  O     O_3   0.452897 0.720773 0.035298 -0.459087
O149  O     O_2   0.205557 0.382353 0.089035 -0.214862
O150  O     O_2   0.336152 0.361797 0.083898 -0.175383
O151  O     O_3   0.278160 0.451042 0.038121 -0.458939
O152  O     O_2   0.617662 0.205544 0.089021 -0.215324
O153  O     O_R   1.000000 0.439300 0.918540 -0.470123
O154  O     O_2   0.637975 0.336207 0.083749 -0.174236
O155  O     O_3   0.548776 0.277948 0.038096 -0.459208
O156  O     O_2   0.790460 0.614561 0.088480 -0.212923
O157  O     O_2   0.660117 0.634794 0.081464 -0.174804
O158  O     O_3   0.721178 0.547382 0.035884 -0.458753
O159  O     O_2   0.393270 0.223770 0.087603 -0.187458
O160  O     O_2   0.266602 0.230647 0.107774 -0.193139
O161  O     O_3   0.311127 0.111157 0.078288 -0.570445
O162  O     O_2   0.226155 0.604174 0.086593 -0.147052
O163  O     O_2   0.236214 0.729577 0.107791 -0.204145
O164  O     O_R   0.560700 0.000000 0.918540 -0.470167
O165  O     O_3   0.114538 0.687684 0.079484 -0.517882
O166  O     O_2   0.604226 0.773763 0.086697 -0.147735
O167  O     O_2   0.729631 0.764413 0.108033 -0.202803
O168  O     O_3   0.687310 0.885781 0.079552 -0.515343
O169  O     O_2   0.775964 0.393332 0.087477 -0.185713
O170  O     O_2   0.769029 0.266657 0.107734 -0.192110
O171  O     O_3   0.888584 0.311250 0.078281 -0.569801
O172  O     O_2   0.818406 0.389667 0.581969 -0.267722
O173  O     O_2   0.777701 0.281663 0.614908 -0.137144
O174  O     O_3   0.898982 0.274392 0.580992 -0.450783
O175  O     O_R   1.000000 0.560700 0.918540 -0.467810
O176  O     O_2   0.610331 0.818878 0.582107 -0.283941
O177  O     O_2   0.717955 0.777717 0.615154 -0.136812
O178  O     O_3   0.726126 0.898777 0.580955 -0.450179
O179  O     O_2   0.181126 0.609648 0.581658 -0.269772
O180  O     O_2   0.222581 0.716704 0.615035 -0.135455
O181  O     O_3   0.101282 0.725443 0.581150 -0.450741
O182  O     O_2   0.391148 0.181671 0.581677 -0.265889
O183  O     O_2   0.284375 0.223321 0.615204 -0.137383
O184  O     O_3   0.275219 0.101949 0.581427 -0.449790
O185  O     O_2   0.835113 0.688964 0.602408 -0.160555
O186  O     O_R   0.939300 0.500000 0.418540 -0.500951
O187  O     O_2   0.711174 0.642037 0.596959 -0.187592
O188  O     O_3   0.813480 0.571329 0.565234 -0.508542
O189  O     O_2   0.687895 0.165315 0.602166 -0.162945
O190  O     O_2   0.642227 0.289636 0.596322 -0.189139
O191  O     O_3   0.570920 0.187709 0.564548 -0.504881
O192  O     O_2   0.166112 0.310687 0.602679 -0.162294
O193  O     O_2   0.289479 0.358819 0.596645 -0.190353
O194  O     O_3   0.185942 0.428476 0.565304 -0.508430
O195  O     O_2   0.309760 0.834655 0.602421 -0.206280
O196  O     O_2   0.357974 0.710998 0.596323 -0.180696
S1    S     S_3+6 0.376790 0.729189 0.060556 0.135479
S2    S     S_3+6 0.691601 0.814410 0.580689 0.126307
S3    S     S_3+6 0.185620 0.690962 0.580540 0.127088
S4    S     S_3+6 0.309851 0.186262 0.580704 0.127158
S5    S     S_3+6 0.781524 0.653597 0.576869 0.104673
S6    S     S_3+6 0.653345 0.219047 0.576403 0.103907
S7    S     S_3+6 0.218895 0.346528 0.576869 0.102603
S8    S     S_3+6 0.345782 0.781796 0.576731 0.091912
S9    S     S_3+6 0.173002 0.696003 0.900829 0.093435
S10   S     S_3+6 0.304756 0.174077 0.901014 0.089136
S11   S     S_3+6 0.826207 0.304973 0.900937 0.089101
S12   S     S_3+6 0.267547 0.373971 0.062440 0.134842
S13   S     S_3+6 0.695948 0.826567 0.901106 0.088959
S14   S     S_3+6 0.192279 0.314274 0.902450 0.084532
S15   S     S_3+6 0.314292 0.807175 0.902273 0.087187
S16   S     S_3+6 0.808200 0.686340 0.902844 0.082408
S17   S     S_3+6 0.685107 0.193453 0.902396 0.086903
S18   S     S_3+6 0.737236 0.132931 0.415152 0.111411
S19   S     S_3+6 0.869443 0.737433 0.417109 0.105257
S20   S     S_3+6 0.262821 0.867205 0.415257 0.109492
S21   S     S_3+6 0.130292 0.262653 0.417145 0.105383
S22   S     S_3+6 0.755449 0.877946 0.425116 0.080914
S23   S     S_3+6 0.625900 0.267525 0.062364 0.134164
S24   S     S_3+6 0.876293 0.249740 0.421764 0.075473
S25   S     S_3+6 0.244294 0.122098 0.425147 0.081767
S26   S     S_3+6 0.123770 0.750390 0.421827 0.075456
S27   S     S_3+6 0.621073 0.911049 0.206332 0.052744
S28   S     S_3+6 0.104442 0.607907 0.206340 0.059262
S29   S     S_3+6 0.378690 0.088872 0.206168 0.033955
S30   S     S_3+6 0.895747 0.391619 0.206342 0.042112
S31   S     S_3+6 0.912805 0.376914 0.705627 0.065413
S32   S     S_3+6 0.617370 0.906209 0.705873 0.063213
S33   S     S_3+6 0.087799 0.620987 0.705669 0.064295
S34   S     S_3+6 0.730015 0.623623 0.061003 0.136178
S35   S     S_3+6 0.382684 0.093400 0.705730 0.066158
S36   S     S_3+6 0.316814 0.202147 0.078495 0.097160
S37   S     S_3+6 0.205405 0.681183 0.078291 0.109353
S38   S     S_3+6 0.681162 0.794866 0.078454 0.109403
S39   S     S_3+6 0.797607 0.316874 0.078433 0.097423
S40   S     S_3+6 0.814429 0.308352 0.580527 0.126160
Zn1   Zn    Zn3+2 0.500000 0.913220 0.030510 1.090190
Zn2   Zn    Zn3+2 1.000000 0.586770 0.969480 1.057984
Zn3   Zn    Zn3+2 0.413230 0.000000 0.969480 1.055755
Zn4   Zn    Zn3+2 1.000000 0.413230 0.969480 1.055270
Zn5   Zn    Zn3+2 0.086770 0.500000 0.469480 1.042163
Zn6   Zn    Zn3+2 0.500000 0.086770 0.469480 1.038900
Zn7   Zn    Zn3+2 0.913230 0.500000 0.469480 1.042221
Zn8   Zn    Zn3+2 0.500000 0.913230 0.469480 1.050239
Zn9   Zn    Zn3+2 0.086780 0.500000 0.030510 1.091121
Zn10  Zn    Zn3+2 0.500000 0.086780 0.030510 1.075256
Zn11  Zn    Zn3+2 0.913220 0.500000 0.030510 1.073899
Zn12  Zn    Zn3+2 1.000000 0.413220 0.530510 1.124545
Zn13  Zn    Zn3+2 0.586780 0.000000 0.530510 1.120316
Zn14  Zn    Zn3+2 1.000000 0.586780 0.530510 1.124834
Zn15  Zn    Zn3+2 0.413220 0.000000 0.530510 1.110159
Zn16  Zn    Zn3+2 0.586770 0.000000 0.969480 1.058107

loop_
_geom_bond_atom_site_label_1
_geom_bond_atom_site_label_2
_ccdc_geom_bond_type
C65   H207  S    
O133  Zn1   S    
C144  C184  S    
C110  O108  S    
C76   H28   S    
C52   H177  S    
O127  Zn6   S    
O173  S40   D    
C55   C56   S    
C28   O107  S    
O175  Zn2   S    
C12   S18   S    
C103  H96   S    
C104  O106  S    
C38   O58   S    
H56   O89   S    
C142  O121  A    
H55   O86   S    
C132  O111  A    
O188  S5    S    
O131  Zn8   S    
C57   C117  S    
C48   H168  S    
C199  S6    S    
C15   O67   S    
C167  C185  A    
C29   C33   A    
C24   S32   S    
C81   H38   S    
C73   H19   S    
C89   H66   S    
C14   C163  S    
O172  S40   D    
C27   O106  S    
O178  S2    S    
C110  C111  S    
H128  O36   S    
C18   C159  S    
C6    C158  S    
O37   S20   D    
O21   S15   D    
O44   S22   D    
C131  O90   A    
C170  C187  A    
C85   H48   S    
C15   C166  S    
C35   C115  S    
C17   O70   S    
C9    O62   S    
C133  O132  A    
C3    C184  A    
C61   C62   S    
C149  O143  A    
C64   H205  S    
O191  S6    S    
O176  S2    D    
C135  O24   A    
C91   H70   S    
C179  S28   S    
C59   C60   S    
C187  C193  A    
C26   O105  S    
C138  O116  A    
O177  S2    D    
O14   S13   D    
O12   S11   S    
C15   S20   S    
C104  C105  S    
O93   S32   S    
C140  O118  A    
C17   S22   S    
C50   H171  S    
H131  O45   S    
C15   C20   S    
C51   C52   S    
C165  C183  A    
C130  O101  A    
C80   H34   S    
C28   C32   A    
C166  C184  A    
C47   H164  S    
C22   C31   A    
C97   H84   S    
C6    C11   S    
O36   S19   S    
C92   H71   S    
C78   H31   S    
C24   C68   A    
O150  S12   D    
O126  Zn7   S    
C173  C191  A    
C56   H186  S    
C19   C162  S    
O124  Zn5   S    
C75   C76   S    
C23   C30   A    
O186  Zn7   S    
C162  C165  A    
C152  C170  A    
O138  Zn15  S    
C31   C90   S    
C109  H111  S    
C21   O100  S    
C188  S34   S    
C44   H160  S    
C13   C21   A    
C84   H44   S    
C153  C156  A    
C139  C167  S    
C148  O141  A    
C54   H182  S    
C87   H62   S    
O136  Zn9   S    
H129  O39   S    
C135  O2    A    
O182  S4    D    
C124  C127  S    
C142  C182  S    
O1    Zn16  S    
C194  S40   S    
O3    S8    S    
C59   H193  S    
H68   O3    S    
O87   S31   D    
O34   S19   D    
O7    S10   D    
C138  O136  A    
C91   C92   S    
C105  C106  S    
C86   H51   S    
C74   H22   S    
C69   H8    S    
O151  S12   S    
C177  C195  A    
C34   H136  S    
C46   C179  A    
C143  O137  A    
C182  C199  A    
C3    C196  A    
C36   H138  S    
C72   C73   S    
C200  S7    S    
O54   S26   D    
C5    C8    S    
C111  H119  S    
C46   C116  S    
C107  H108  S    
C9    S15   S    
C71   H14   S    
C77   H29   S    
O89   S31   S    
C49   H170  S    
O5    S9    D    
O183  S4    D    
C100  H92   S    
C2    C25   A    
O147  S1    D    
H154  O161  S    
H176  O168  S    
C54   O63   S    
O190  S6    D    
O192  S7    D    
C4    C155  S    
O145  Zn13  S    
C88   C89   S    
C98   C99   S    
C53   H179  S    
O29   S17   S    
O91   S32   D    
O164  Zn16  S    
O125  Zn8   S    
C133  C173  S    
C175  C193  A    
C44   O60   S    
C25   C31   A    
C195  S2    S    
C43   H157  S    
C26   C32   A    
C109  H114  S    
C163  C181  A    
O146  S1    D    
C70   H12   S    
C80   H36   S    
C110  H117  S    
O52   S25   S    
C198  S5    S    
C121  C130  S    
C20   S26   S    
C97   C98   S    
H13   O181  S    
O13   Zn5   S    
C99   H88   S    
C108  C109  S    
C83   H42   S    
C56   H188  S    
O28   S17   D    
C36   C37   S    
H101  O12   S    
H134  O52   S    
O154  S23   D    
C2    C68   A    
C38   C39   S    
C78   C80   S    
C13   C57   A    
C150  C167  A    
H112  O151  S    
H79   O6    S    
C12   O65   S    
C45   H162  S    
O120  Zn14  S    
C105  H103  S    
O167  S38   D    
H133  O49   S    
C81   O72   S    
C106  H104  S    
C68   C118  S    
C3    S8    S    
O35   Zn1   S    
C7    C156  S    
C45   H161  S    
O80   S28   S    
C107  C108  S    
C7    S13   S    
O42   S21   S    
O184  S4    S    
C74   O70   S    
C162  C180  A    
C64   O66   S    
O139  Zn12  S    
C66   H4    S    
C86   H49   S    
O160  S36   D    
C134  C172  S    
C42   H155  S    
C138  C169  S    
H54   O83   S    
O117  Zn3   S    
C14   C17   S    
O129  Zn11  S    
O49   S24   S    
C130  O79   A    
O174  S40   S    
O57   Zn10  S    
C17   C160  S    
C148  O126  A    
C56   H189  S    
C50   H172  S    
O109  Zn2   S    
C88   H63   S    
C60   H195  S    
O112  Zn2   S    
C120  C129  S    
C75   H25   S    
C1    O164  A    
C18   S24   S    
O39   S20   S    
C66   H5    S    
H124  O22   S    
O118  Zn2   S    
H123  O19   S    
C178  C196  A    
O181  S3    S    
C116  C120  T    
O25   S16   D    
C141  C183  S    
C58   O64   S    
C133  O112  A    
C132  O130  A    
C93   H73   S    
C50   H173  S    
O99   S35   S    
C147  C177  S    
O109  Zn9   S    
C108  H110  S    
C16   C165  S    
C104  H100  S    
C82   H39   S    
C35   C168  A    
O78   S28   D    
C132  C174  S    
C58   H190  S    
C38   H145  S    
C137  C170  S    
O152  S23   D    
C30   C79   S    
C37   H141  S    
C91   O102  S    
C61   O65   S    
C140  C171  S    
C115  C119  T    
C159  C176  A    
C144  O123  A    
C70   H10   S    
C10   O63   S    
H24   O184  S    
O120  Zn7   S    
C146  S29   S    
C122  C131  S    
C51   H174  S    
C52   C53   S    
C88   H64   S    
C107  O107  S    
O111  Zn16  S    
O32   S18   S    
C54   C55   S    
C95   H80   S    
C52   H178  S    
C77   O71   S    
C55   H185  S    
O19   S14   S    
O51   S25   D    
C143  O122  A    
C37   H140  S    
C34   H137  S    
C189  S36   S    
O122  Zn7   S    
C39   H146  S    
C28   C146  A    
C96   H81   S    
C151  C169  A    
O144  Zn14  S    
C11   O64   S    
C41   H151  S    
H53   O80   S    
O79   Zn12  S    
C195  C198  A    
C134  O113  A    
C71   C72   S    
O76   S27   S    
C119  C128  S    
O110  Zn15  S    
H135  O55   S    
C147  O125  A    
C25   O104  S    
C81   H37   S    
C73   H18   S    
O2    Zn8   S    
O101  Zn14  S    
C102  C103  S    
C29   O108  S    
O137  Zn14  S    
C37   H142  S    
C39   C40   S    
C158  C175  A    
O159  S36   D    
O131  Zn15  S    
C49   C50   S    
C42   H153  S    
O143  Zn15  S    
C85   H47   S    
O50   S25   D    
C32   C101  S    
O132  Zn9   S    
O119  Zn5   S    
C4    C9    S    
C23   C190  A    
C20   O73   S    
C174  C192  A    
O109  Zn4   S    
C87   C88   S    
C93   H75   S    
C128  O57   A    
C11   S17   S    
O1    Zn1   S    
C41   C42   S    
O194  S7    S    
C10   S16   S    
O10   S11   D    
H90   O9    S    
C168  S27   S    
O161  S36   S    
H130  O42   S    
O179  S3    D    
C102  H94   S    
H113  O16   S    
C185  S1    S    
C77   C78   S    
C98   H87   S    
C18   O71   S    
O158  S34   S    
C156  C174  A    
C124  O186  A    
C171  C188  A    
O193  S7    D    
O82   S29   D    
C136  O114  A    
H52   O76   S    
C27   C179  A    
O47   S24   D    
O170  S39   D    
C47   H163  S    
C69   C70   S    
C94   H76   S    
C92   H72   S    
O109  Zn11  S    
C78   H32   S    
C5    C154  S    
C83   H43   S    
C63   H204  S    
O48   S24   D    
C100  O105  S    
C5    S10   S    
O43   S22   D    
C19   O72   S    
O120  Zn5   S    
O128  Zn10  S    
O16   S13   S    
C145  C178  S    
O97   S35   D    
C114  H121  S    
O195  S8    D    
C47   H166  S    
C54   H183  S    
C87   H61   S    
H132  O155  S    
C134  O128  A    
C65   H208  S    
C45   C47   S    
C95   H78   S    
C76   H27   S    
C137  O115  A    
C10   C153  S    
C185  C191  A    
O11   S11   D    
C141  O119  A    
C14   S19   S    
C152  C158  A    
C9    C150  S    
C22   O102  S    
O131  Zn6   S    
C186  S12   S    
C103  H98   S    
C41   O59   S    
C48   H167  S    
C55   H184  S    
C112  C123  S    
O46   Zn9   S    
C29   C157  A    
H35   O188  S    
H2    O178  S    
C107  H107  S    
C58   C59   S    
C85   C86   S    
O4    S9    D    
C149  C180  S    
O86   S30   S    
O134  Zn11  S    
C124  O13   A    
C73   H20   S    
H165  O165  S    
C89   H67   S    
C35   C146  A    
C197  C200  A    
C49   H169  S    
C160  C163  A    
H57   O194  S    
C136  O129  A    
O94   S33   D    
H125  O26   S    
C12   C164  S    
C128  O35   A    
C64   H206  S    
H126  O29   S    
C74   H21   S    
C40   H149  S    
O131  Zn13  S    
C7    O60   S    
O27   S17   D    
O33   S19   D    
O142  Zn3   S    
C84   C85   S    
O26   S16   S    
C5    O58   S    
H198  O174  S    
C102  H95   S    
C67   H6    S    
C48   C49   S    
C72   H16   S    
C126  C135  S    
O23   S16   D    
C22   C24   A    
C114  H120  S    
C42   C43   S    
C137  O135  A    
O9    S10   S    
C148  C176  S    
C59   H192  S    
C44   C45   S    
C139  O133  A    
O88   S31   D    
C187  S23   S    
C103  H97   S    
O96   S33   S    
O163  S37   D    
C33   C113  S    
C80   H33   S    
C183  C200  A    
O114  Zn4   S    
C112  O153  A    
C62   H201  S    
C97   H85   S    
C51   H175  S    
C172  C189  A    
C21   C30   A    
C83   H41   S    
C63   H202  S    
O1    Zn10  S    
C188  C192  A    
C2    S35   S    
C64   C65   S    
C131  O110  A    
C186  C189  A    
O18   S14   D    
C169  C186  A    
C16   C19   S    
C84   O73   S    
O95   S33   D    
C39   H147  S    
C92   C93   S    
C44   H159  S    
C192  S38   S    
C4    O56   S    
C111  C114  S    
C105  H102  S    
C94   C95   S    
O155  S23   S    
C160  C177  A    
C164  C182  A    
O83   S29   S    
C93   H74   S    
C145  O124  A    
C82   C83   S    
O187  S5    D    
C60   H194  S    
C180  C197  A    
O92   S32   D    
C176  C194  A    
C161  C178  A    
O41   S21   D    
C38   H144  S    
C86   H50   S    
O6    S9    S    
O141  Zn12  S    
O166  S38   D    
C112  O175  A    
C95   C96   S    
C150  C155  A    
C16   S21   S    
C81   C82   S    
C27   C33   A    
C72   H17   S    
C26   C168  A    
C77   H30   S    
C62   C63   S    
C53   H181  S    
O162  S37   D    
C60   H196  S    
C97   O104  S    
C71   O69   S    
C143  C181  S    
C51   O62   S    
C61   H197  S    
H58   O93   S    
C1    C125  S    
C191  S37   S    
O180  S3    D    
C118  C122  T    
C13   S31   S    
C71   H15   S    
O115  Zn16  S    
C151  C154  A    
C196  S3    S    
O75   S27   D    
O38   S20   D    
C7    C10   S    
C117  C121  T    
C48   O61   S    
O189  S6    D    
C62   H200  S    
O123  Zn8   S    
C53   H180  S    
C82   H40   S    
O121  Zn6   S    
O148  S1    S    
C58   H191  S    
C34   C36   S    
C161  C166  A    
O165  S37   S    
C157  S30   S    
C155  C173  A    
C67   O67   S    
C136  C175  S    
C75   H23   S    
O74   S27   D    
C94   O103  S    
C109  H115  S    
C70   H11   S    
O40   S21   D    
C110  H116  S    
C87   O100  S    
C40   H148  S    
C99   H91   S    
C181  C198  A    
O169  S39   D    
C106  H106  S    
C149  O127  A    
O85   S30   D    
C74   C75   S    
C76   H26   S    
O55   S26   S    
C8    C151  S    
O30   S18   D    
O98   S35   D    
O156  S34   D    
C14   O66   S    
C140  O134  A    
C46   C157  A    
C79   C123  T    
C145  O144  A    
C96   H82   S    
O90   Zn13  S    
C84   H45   S    
C67   C69   S    
C190  S33   S    
O149  S12   D    
O140  Zn13  S    
C106  H105  S    
C194  C199  A    
O24   Zn6   S    
C4    S9    S    
C153  C171  A    
C100  C102  S    
C101  C126  T    
C154  C172  A    
C6    S11   S    
H1    O148  S    
C139  O117  A    
C1    O142  A    
C90   C125  T    
C66   H3    S    
O113  Zn3   S    
C23   O103  S    
O153  Zn4   S    
O168  S38   S    
C65   C66   S    
C129  O68   A    
O116  Zn4   S    
O45   S22   S    
O20   S15   D    
C41   H152  S    
C69   H9    S    
C96   H83   S    
C36   H139  S    
C12   C18   S    
C67   H7    S    
O196  S8    D    
C111  H118  S    
O53   S26   D    
O68   Zn11  S    
C193  S39   S    
C159  C164  A    
C40   H150  S    
H127  O32   S    
C61   H199  S    
O171  S39   S    
C147  O145  A    
H60   O99   S    
C100  H93   S    
C91   H69   S    
C8    S14   S    
H46   O191  S    
C113  C127  T    
O120  Zn12  S    
H59   O96   S    
C197  S4    S    
C34   O56   S    
O22   S15   S    
O135  Zn10  S    
O81   S29   D    
C57   C190  A    
O130  Zn1   S    
C94   H77   S    
C16   O69   S    
O185  S5    D    
C108  H109  S    
H143  O158  S    
C104  H99   S    
O1    Zn3   S    
C20   C161  S    
C63   H203  S    
C89   H65   S    
C141  O139  A    
O31   S18   D    
C142  O140  A    
O8    S10   D    
C43   H158  S    
O157  S34   D    
C11   C152  S    
C43   H156  S    
C19   S25   S    
C8    O61   S    
O17   S14   D    
O84   S30   D    
O15   S13   D    
C6    O59   S    
C114  H122  S    
C144  O138  A    
C99   H89   S    
O77   S28   D    
H187  O171  S    
C98   H86   S    
C129  O46   A    
