data_mof_unit_48738.cif
_audit_creation_date              2012-12-11T14:35:56-0500
_audit_creation_method            fapswitch 2.2
_symmetry_space_group_name_H-M    P1
_symmetry_Int_Tables_number       1
_space_group_crystal_system       triclinic
_cell_length_a                    14.363494
_cell_length_b                    16.238553
_cell_length_c                    6.926347
_cell_angle_alpha                 90.006632
_cell_angle_beta                  80.751777
_cell_angle_gamma                 89.99996
_cell_volume                      1594.5179553

loop_
_atom_site_label
_atom_site_type_symbol
_atom_type_description
_atom_site_fract_x
_atom_site_fract_y
_atom_site_fract_z
_atom_type_partial_charge
O1    O     O_R   0.337460 0.413110 0.524760 -0.500693
O2    O     O_R   0.662540 0.913110 0.475240 -0.500686
O3    O     O_R   0.348690 0.587910 0.191230 -0.557672
O4    O     O_R   0.651310 0.087910 0.808770 -0.557675
O5    O     O_R   0.166530 0.586890 0.082470 -0.517342
O6    O     O_R   0.833470 0.086890 0.917530 -0.516417
C1    C     C_R   0.370599 0.616408 0.353330 0.708914
C2    C     C_R   0.629398 0.116410 0.646680 0.709137
O7    O     O_R   0.348700 0.413830 0.191250 -0.539468
O8    O     O_R   0.651300 0.913830 0.808750 -0.539447
O9    O     O_R   0.166530 0.411570 0.082490 -0.531652
O10   O     O_R   0.833470 0.911570 0.917510 -0.531211
C3    C     C_R   0.371004 0.385264 0.353618 0.793974
C4    C     C_R   0.628996 0.885267 0.646372 0.793868
O11   O     O_R   0.337460 0.588430 0.524740 -0.547187
O12   O     O_R   0.662540 0.088430 0.475260 -0.547084
O13   O     O_3   0.192230 0.499460 0.407330 -0.360593
O14   O     O_3   0.807770 0.999460 0.592670 -0.361017
V1    V     V_3+5 0.263080 0.500100 0.108540 1.555822
V2    V     V_3+5 0.736920 0.000100 0.891460 1.556164
O15   O     O_R   0.155290 0.412090 0.756570 -0.544175
O16   O     O_R   0.844710 0.912090 0.243430 -0.545125
C5    C     C_R   0.130954 0.384286 0.934219 0.785548
C6    C     C_R   0.869068 0.884294 0.065745 0.784615
O17   O     O_R   0.155290 0.586170 0.756550 -0.553726
O18   O     O_R   0.844710 0.086170 0.243450 -0.553759
C7    C     C_R   0.132970 0.615781 0.932984 0.738547
C8    C     C_R   0.867022 0.115800 0.067058 0.738652
V3    V     V_3+5 0.240910 0.499900 0.616030 1.541041
V4    V     V_3+5 0.759090 0.999900 0.383970 1.540135
O19   O     O_3   0.311760 0.500540 0.867100 -0.365817
O20   O     O_3   0.688240 0.000540 0.132900 -0.365732
C9    C     C_3   0.093793 0.751663 0.113971 -0.281914
C10   C     C_3   0.905526 0.252196 0.888165 -0.285391
H1    H     H_    0.105340 0.720776 0.251533 0.183804
H2    H     H_    0.892761 0.221745 0.750916 0.183675
H3    H     H_    0.162194 0.780062 0.049908 0.179794
H4    H     H_    0.837653 0.280896 0.954618 0.179931
C11   C     C_3   0.017397 0.819557 0.165618 -0.223868
C12   C     C_3   0.982189 0.319744 0.835234 -0.223590
H5    H     H_    0.051508 0.881042 0.156228 0.222793
H6    H     H_    0.948262 0.381282 0.844233 0.222423
H7    H     H_    0.982448 0.811132 0.319757 0.182103
H8    H     H_    0.016744 0.310976 0.680935 0.184128
H9    H     H_    0.845814 0.731338 0.214321 0.207465
H10   H     H_    0.154093 0.231610 0.784297 0.207292
C13   C     C_3   0.962120 0.658482 0.053978 0.582416
C14   C     C_3   0.037668 0.158639 0.943758 0.583134
C15   C     C_3   0.057102 0.734132 0.772685 -0.490181
C16   C     C_3   0.943852 0.233620 0.227770 -0.491799
C17   C     C_3   0.063283 0.688026 0.967431 -0.090253
C18   C     C_3   0.936724 0.188055 0.032685 -0.088754
H11   H     H_    0.025255 0.692507 0.673390 0.148105
H12   H     H_    0.976515 0.191731 0.325215 0.149857
H13   H     H_    0.129132 0.748590 0.695162 0.214492
H14   H     H_    0.872146 0.247640 0.307428 0.214663
C19   C     C_3   0.942038 0.814675 0.027745 -0.127872
C20   C     C_3   0.058011 0.314663 0.972175 -0.125498
C21   C     C_3   0.890495 0.730868 0.067249 -0.475363
C22   C     C_3   0.109453 0.230872 0.931408 -0.477000
C23   C     C_3   0.995133 0.813185 0.810275 0.372763
C24   C     C_3   0.005503 0.312901 0.190055 0.371226
H15   H     H_    0.941820 0.810900 0.710256 0.063043
H16   H     H_    0.059171 0.310504 0.289264 0.064113
H17   H     H_    0.939430 0.609278 0.959993 0.095143
H18   H     H_    0.060675 0.108857 0.035757 0.095550
H19   H     H_    0.842195 0.721298 0.958652 0.116865
H20   H     H_    0.157776 0.220917 0.039789 0.116934
H21   H     H_    0.434443 0.694367 0.648401 0.119386
H22   H     H_    0.565567 0.194355 0.351608 0.119353
C25   C     C_2   0.439541 0.683952 0.342194 -0.260852
C26   C     C_2   0.560449 0.183955 0.657822 -0.261016
C27   C     C_2   0.464993 0.717032 0.504412 -0.216424
C28   C     C_2   0.535003 0.217026 0.495596 -0.216058
H23   H     H_    0.528131 0.794520 0.798155 0.110135
H24   H     H_    0.471888 0.294510 0.201829 0.110048
C29   C     C_2   0.559448 0.817683 0.655152 -0.417156
C30   C     C_2   0.440555 0.317676 0.344834 -0.417201
C31   C     C_2   0.534497 0.784339 0.491878 0.643454
C32   C     C_2   0.465489 0.284332 0.508117 0.643441
H25   H     H_    0.469784 0.706875 0.198346 0.178091
H26   H     H_    0.530192 0.206884 0.801671 0.178007
F1    F     F_    0.573179 0.811723 0.310617 -0.676807
F2    F     F_    0.426783 0.311717 0.689378 -0.676864
F3    F     F_    0.961418 0.627008 0.240372 -0.644921
F4    F     F_    0.037647 0.128224 0.756613 -0.644873
S1    S     S_3+6 0.065190 0.904632 0.745091 -0.009591
O21   O     O_2   0.021248 0.976224 0.861926 -0.336933
O22   O     O_2   0.164249 0.893674 0.785140 -0.341532
O23   O     O_3   0.068749 0.924991 0.506521 -0.520679
H27   H     H_    0.100773 0.979022 0.485369 0.387126
S2    S     S_3+6 0.935656 0.404452 0.256634 -0.007227
O24   O     O_2   0.975616 0.475002 0.130725 -0.338182
O25   O     O_2   0.834769 0.391836 0.230256 -0.340869
O26   O     O_3   0.938925 0.428163 0.491272 -0.519785
H28   H     H_    0.905141 0.481360 0.513373 0.387762

loop_
_geom_bond_atom_site_label_1
_geom_bond_atom_site_label_2
_ccdc_geom_bond_type
C20   C24   S    
C5    C20   S    
V4    O20   S    
S1    O21   D    
O11   V3    S    
O13   V3    S    
O26   H28   S    
O4    C2    A    
V1    O19   S    
C11   H5    S    
O9    V1    S    
C16   H12   S    
C10   C12   S    
C13   F3    S    
H24   C30   S    
O3    C1    A    
C1    C25   S    
C30   C32   D    
C19   C21   S    
C20   C22   S    
C11   C19   S    
C4    C29   S    
C23   H15   S    
O7    C3    A    
C24   H16   S    
C23   S1    S    
C21   H19   S    
O5    C7    A    
O7    V1    S    
O6    C8    A    
O8    V2    S    
C6    C19   S    
C15   C17   S    
C24   S2    S    
H22   C28   S    
C16   C18   S    
O3    V1    S    
O14   V4    S    
C10   H2    S    
C32   F2    S    
C12   H6    S    
C2    O12   A    
C28   C32   S    
O1    V3    S    
C7    C17   S    
C14   C22   S    
C29   C31   D    
O17   V3    S    
C2    C26   S    
C12   C20   S    
C15   C23   S    
C26   C28   D    
O8    C4    A    
C25   C27   D    
O13   V1    S    
C14   F4    S    
C13   C17   S    
C1    O11   A    
C15   H13   S    
O15   V3    S    
S2    O26   S    
C16   H14   S    
C12   H8    S    
O10   V2    S    
S2    O25   D    
C27   C31   S    
C9    C11   S    
H21   C27   S    
H23   C29   S    
O18   V4    S    
O15   C5    A    
C16   C24   S    
O16   C6    A    
C9    C17   S    
V2    O20   S    
C3    C30   S    
H9    C21   S    
O16   V4    S    
H10   C22   S    
C10   H4    S    
C10   C18   S    
C11   H7    S    
C19   C23   S    
O5    V1    S    
O17   C7    A    
O6    V2    S    
O10   C6    A    
O18   C8    A    
O2    V4    S    
S1    O22   D    
V3    O19   S    
C31   F1    S    
C8    C18   S    
O23   H27   S    
C15   H11   S    
O9    C5    A    
S2    O24   D    
C9    H1    S    
O14   V2    S    
O2    C4    A    
C9    H3    S    
C13   C21   S    
O4    V2    S    
C14   C18   S    
O1    C3    A    
C22   H20   S    
S1    O23   S    
C14   H18   S    
O12   V4    S    
C13   H17   S    
C26   H26   S    
C25   H25   S    
