data_mof_unit_66967.cif
_audit_creation_date              2013-03-05T15:58:12-0500
_audit_creation_method            fapswitch 2.2
_symmetry_space_group_name_H-M    P1
_symmetry_Int_Tables_number       1
_space_group_crystal_system       triclinic
_cell_length_a                    8.170814
_cell_length_b                    12.701342
_cell_length_c                    14.260615
_cell_angle_alpha                 92.530114
_cell_angle_beta                  90.732116
_cell_angle_gamma                 98.468477
_cell_volume                      1462.12951638

loop_
_atom_site_label
_atom_site_type_symbol
_atom_site_description
_atom_site_fract_x
_atom_site_fract_y
_atom_site_fract_z
_atom_type_partial_charge
P1    P     P_3+3 0.054400 0.427280 0.286870 0.469102
O1    O     O_2   0.887370 0.460630 0.272300 -0.375287
O2    O     O_3   0.129410 0.451380 0.388510 -0.408909
O3    O     O_3   0.670210 0.653170 0.329170 -0.384606
O4    O     O_2   0.800383 0.609818 0.164201 -0.381721
O5    O     O_3   0.014390 0.289113 0.263306 -0.531038
O6    O     O_3   0.689031 0.794286 0.176461 -0.461348
H1    H     H_    0.797378 0.878662 0.292668 0.156543
C1    C     C_3   0.625823 0.969026 0.227718 0.026029
H2    H     H_    0.651623 0.027352 0.288173 0.073419
P2    P     P_3+3 0.668300 0.742890 0.573060 0.467429
P3    P     P_3+3 0.133034 0.842361 0.375039 0.436148
O7    O     O_2   0.845380 0.761330 0.544970 -0.368635
O8    O     O_3   0.088930 0.704860 0.376040 -0.384172
O9    O     O_2   0.994362 0.887985 0.428984 -0.406285
O10   O     O_3   0.691075 0.760435 0.694957 -0.523252
O11   O     O_3   0.113535 0.878047 0.258648 -0.513074
C2    C     C_3   0.182415 0.804268 0.200414 0.455586
H3    H     H_    0.103995 0.724941 0.199487 0.136443
H4    H     H_    0.309740 0.796171 0.224388 -0.004440
C3    C     C_3   0.191164 0.841461 0.100418 -0.860876
H5    H     H_    0.065093 0.833062 0.068801 0.311869
H6    H     H_    0.249365 0.926116 0.099753 0.262020
C4    C     C_3   0.229096 0.764119 0.659828 0.409667
H7    H     H_    0.357713 0.750833 0.648256 0.092974
H8    H     H_    0.151195 0.738731 0.596121 0.129744
C5    C     C_3   0.225854 0.882169 0.679471 -0.896240
H9    H     H_    0.289774 0.908002 0.747207 0.267160
H10   H     H_    0.288390 0.928990 0.623078 0.227648
H11   H     H_    0.096035 0.897497 0.684092 0.271089
Ba1   Ba    Ba6+2 0.855630 0.555280 0.454520 1.556048
C6    C     C_3   0.977477 0.233940 0.345239 0.403034
H12   H     H_    0.842334 0.222361 0.353559 0.080703
H13   H     H_    0.038425 0.273598 0.409952 0.126438
C7    C     C_3   0.034559 0.125776 0.334085 -0.832682
H14   H     H_    0.954969 0.073567 0.282822 0.281138
H15   H     H_    0.028808 0.087497 0.402416 0.230628
H16   H     H_    0.163324 0.135101 0.308684 0.260757
C8    C     C_3   0.709355 0.663157 0.733522 0.293192
H17   H     H_    0.797313 0.621735 0.692637 0.046987
H18   H     H_    0.588455 0.611380 0.732749 0.106052
C9    C     C_3   0.773877 0.680267 0.835226 0.059076
H19   H     H_    0.910512 0.688891 0.837087 0.088259
H20   H     H_    0.724792 0.610603 0.876021 0.045488
P4    P     P_3+3 0.135310 0.572810 0.713130 0.453926
O12   O     O_2   0.302330 0.539400 0.727760 -0.378119
O13   O     O_3   0.060300 0.548700 0.611500 -0.402506
O14   O     O_3   0.519500 0.346920 0.670840 -0.371089
O15   O     O_3   0.170849 0.710247 0.738767 -0.566475
P5    P     P_3+3 0.060908 0.156423 0.628095 0.443205
O16   O     O_3   0.614310 0.373510 0.452640 -0.387379
O17   O     O_3   0.100780 0.295230 0.623970 -0.386484
O18   O     O_2   0.198394 0.112081 0.572030 -0.391077
O19   O     O_3   0.091483 0.120406 0.743570 -0.517844
Ba2   Ba    Ba6+2 0.334200 0.444810 0.545490 1.549694
P6    P     P_3+3 0.655706 0.660403 0.207386 0.498050
C10   C     C_3   0.676291 0.862632 0.255543 0.272212
H21   H     H_    0.581743 0.827855 0.304770 -0.001757
H22   H     H_    0.490820 0.958924 0.213111 0.082491
O20   O     O_3   0.575400 0.626570 0.547370 -0.402429
C11   C     C_3   0.467907 0.308958 0.259116 0.421432
H23   H     H_    0.355902 0.332408 0.292307 0.095924
H24   H     H_    0.570972 0.376576 0.265956 0.113266
C12   C     C_3   0.428665 0.282801 0.155287 -0.911908
H25   H     H_    0.324844 0.215810 0.146734 0.277467
H26   H     H_    0.393046 0.353108 0.121359 0.204702
H27   H     H_    0.538798 0.260355 0.119356 0.291125
P7    P     P_3+3 0.527202 0.241679 0.422067 0.416521
O21   O     O_2   0.344320 0.238700 0.455090 -0.375178
O22   O     O_3   0.513560 0.218857 0.300009 -0.567806
H28   H     H_    0.265485 0.792003 0.057178 0.211251
C13   C     C_3   0.043499 0.199018 0.805488 0.429563
H29   H     H_    0.124261 0.276419 0.798114 0.153548
H30   H     H_    0.912478 0.208701 0.792341 0.020280
C14   C     C_3   0.061359 0.166775 0.906239 -0.819484
H31   H     H_    0.190668 0.154457 0.921198 0.277428
H32   H     H_    0.029331 0.230306 0.955567 0.222936
H33   H     H_    0.977080 0.092060 0.918125 0.292285
P8    P     P_3+3 0.533731 0.344198 0.792904 0.457481
C15   C     C_3   0.531171 0.143210 0.759104 0.310997
H34   H     H_    0.646023 0.178312 0.724061 0.047117
O23   O     O_2   0.403381 0.407969 0.835351 -0.401790
O24   O     O_3   0.470226 0.213498 0.824356 -0.498464
H35   H     H_    0.434641 0.116179 0.704360 0.159360
H36   H     H_    0.679466 0.072810 0.857738 0.289801
C16   C     C_3   0.571375 0.047717 0.809868 -0.727399
H37   H     H_    0.600975 0.985864 0.757960 0.242292
H38   H     H_    0.464724 0.014263 0.852211 0.274909
C17   C     C_R   0.984595 0.443714 0.061258 -0.106551
C18   C     C_R   0.183818 0.497311 0.195483 0.243688
C19   C     C_R   0.339996 0.548160 0.225299 -0.542864
C20   C     C_R   0.453759 0.594467 0.161878 0.261247
C21   C     C_R   0.409309 0.596512 0.067112 -0.302987
C22   C     C_R   0.251267 0.549055 0.034411 0.045653
C23   C     C_R   0.138075 0.495770 0.097863 -0.007756
H39   H     H_    0.375367 0.549176 0.298753 0.181174
C24   C     C_R   0.055067 0.499892 0.901721 -0.021909
C25   C     C_R   0.942054 0.446244 0.965165 0.048115
C26   C     C_R   0.010733 0.496727 0.803693 0.231625
C27   C     C_R   0.858412 0.440427 0.773231 -0.551633
C28   C     C_R   0.742806 0.396878 0.836933 0.240440
C29   C     C_R   0.785035 0.397281 0.932167 -0.282303
C30   C     C_R   0.207367 0.553415 0.938694 -0.098328
H40   H     H_    0.497666 0.635467 0.019137 0.201736
H41   H     H_    0.694813 0.360521 0.980393 0.165203
H42   H     H_    0.824444 0.436998 0.699465 0.183754
H43   H     H_    0.896505 0.400244 0.106595 0.176502
H44   H     H_    0.294877 0.597683 0.893561 0.184674
C31   C     C_R   0.766606 0.176286 0.535302 -0.515331
C32   C     C_R   0.424776 0.814460 0.467537 -0.524140
C33   C     C_R   0.402595 0.995336 0.432719 -0.236517
C34   C     C_R   0.336816 0.888188 0.429010 0.222271
C35   C     C_R   0.574244 0.847313 0.516041 0.274077
C36   C     C_R   0.640346 0.957563 0.524442 -0.068558
C37   C     C_R   0.553677 0.031994 0.480261 -0.066891
C38   C     C_R   0.619665 0.141338 0.485500 0.262708
C39   C     C_R   0.855321 0.104483 0.576362 0.209054
C40   C     C_R   0.790790 0.995978 0.573503 -0.182761
H45   H     H_    0.333015 0.048777 0.398823 0.186010
H46   H     H_    0.860175 0.943281 0.608866 0.186611
H47   H     H_    0.816431 0.260192 0.538274 0.171059
H48   H     H_    0.373472 0.730817 0.462487 0.175869
S1    S     S_3+6 0.720233 0.796399 0.893336 0.003686
O25   O     O_2   0.538681 0.800735 0.879688 -0.289681
O26   O     O_2   0.760014 0.792765 0.995780 -0.235764
O27   O     O_3   0.832849 0.904143 0.849902 -0.491429
H49   H     H_    0.949648 0.894683 0.861040 0.352386
S2    S     S_3+6 0.730163 0.024970 0.127501 0.038699
O28   O     O_2   0.766520 0.143815 0.143298 -0.267515
O29   O     O_2   0.890222 0.982480 0.112248 -0.211600
O30   O     O_3   0.607329 0.997004 0.031585 -0.455345
H50   H     H_    0.541779 0.926656 0.041767 0.373444

loop_
_geom_bond_atom_site_label_1
_geom_bond_atom_site_label_2
_geom_bond_distance
_ccdc_geom_bond_type
C11   O22   1.402836 S    
O14   Ba2   2.777614 S    
O5    C6    1.402245 S    
C21   C22   1.406719 A    
C5    H10   1.106675 S    
C2    C3    1.521149 S    
C6    C7    1.517085 S    
O4    P6    1.548178 D    
C33   C34   1.386092 A    
C4    C5    1.517283 S    
O8    Ba1   2.769729 S    
C15   H35   1.109179 S    
S2    O28   1.501252 D    
C36   C37   1.424969 A    
C10   H21   1.107001 S    
C31   C39   1.389610 A    
S1    O25   1.503037 D    
C8    H18   1.102813 S    
P4    O12   1.502360 D    
P5    O19   1.753031 S    
C3    H28   1.109655 S    
O14   P8    1.745311 S    
C7    H15   1.106531 S    
C4    H8    1.110594 S    
P1    O1    1.501997 D    
C15   O24   1.407226 S    
C16   H38   1.109773 S    
S1    O26   1.496751 D    
C37   C38   1.412225 A    
P5    C39   1.843969 S    
P1    Ba1   3.395660 S    
C29   H41   1.083675 S    
C33   H45   1.073883 S    
C2    H3    1.111035 S    
C11   H24   1.110758 S    
C20   C21   1.397242 A    
C15   C16   1.513892 S    
C31   C38   1.391522 A    
C19   H39   1.082085 S    
O2    Ba2   2.789313 S    
C7    H14   1.102324 S    
P7    O21   1.568131 D    
O12   Ba2   2.846262 S    
P5    O17   1.748817 S    
C30   H44   1.080266 S    
C1    H2    1.108824 S    
C1    C10   1.536529 S    
O17   Ba2   2.770311 S    
P2    Ba1   3.415178 S    
Ba1   O13   2.788749 S    
Ba2   O20   2.804910 S    
O3    P6    1.746630 S    
C5    H11   1.108542 S    
C11   H23   1.108682 S    
C9    H20   1.108649 S    
O6    P6    1.758749 S    
C13   C14   1.522331 S    
C21   H40   1.082302 S    
C24   C26   1.436974 A    
C9    S1    1.773797 S    
C24   C25   1.423385 A    
C8    C9    1.532187 S    
C40   H46   1.076099 S    
P4    O13   1.566122 S    
P5    O18   1.545298 D    
P1    O5    1.753756 S    
C1    S2    1.793487 S    
C28   C29   1.396568 A    
C18   C23   1.435350 A    
C7    H16   1.108610 S    
C4    H7    1.101958 S    
C13   H30   1.109971 S    
P4    C26   1.868674 S    
P1    C18   1.862345 S    
C19   C20   1.391177 A    
C16   H37   1.110334 S    
C13   H29   1.110326 S    
S1    O27   1.679778 S    
H36   C16   1.109103 S    
O1    Ba1   2.845752 S    
P1    O2    1.566240 S    
C6    H13   1.107561 S    
Ba1   O20   2.897958 S    
C17   C23   1.410992 A    
C11   C12   1.522700 S    
C14   H31   1.110041 S    
C12   H27   1.108180 S    
H1    C10   1.103805 S    
P2    O10   1.746819 S    
C26   C27   1.394872 A    
P3    O9    1.545229 D    
P4    O15   1.748391 S    
C17   H43   1.080408 S    
O11   C2    1.408231 S    
C24   C30   1.411083 A    
O2    Ba1   2.906108 S    
C14   H32   1.109611 S    
C32   C35   1.395318 A    
C36   C40   1.417696 A    
P7    C38   1.838822 S    
P3    O8    1.731218 S    
C22   C30   1.412404 A    
C3    H6    1.110307 S    
C9    H19   1.105468 S    
O30   H50   0.989346 S    
S2    O30   1.679711 S    
P3    C34   1.829171 S    
O13   Ba2   2.906863 S    
C35   C36   1.423987 A    
C4    O15   1.395608 S    
O7    Ba1   2.879122 S    
Ba1   O16   2.805571 S    
C15   H34   1.112470 S    
S2    O29   1.501244 D    
P8    O23   1.544055 D    
C2    H4    1.111447 S    
C27   H42   1.081883 S    
C17   C25   1.412340 A    
Ba1   Ba2   4.537536 S    
C6    H12   1.100946 S    
Ba2   O21   2.879331 S    
C25   C29   1.406398 A    
C39   C40   1.399810 A    
C12   H25   1.110895 S    
P3    O11   1.751201 S    
P8    O24   1.744772 S    
P2    O7    1.494019 D    
C31   H47   1.082176 S    
C18   C19   1.394806 A    
O27   H49   0.990972 S    
C27   C28   1.391347 A    
O16   Ba2   2.897184 S    
O16   P7    1.754130 S    
C22   C23   1.422437 A    
P2    C35   1.841287 S    
C14   H33   1.108250 S    
C32   C34   1.388852 A    
O3    Ba1   2.778205 S    
O10   C8    1.401302 S    
C8    H17   1.108256 S    
P6    C20   1.833827 S    
O19   C13   1.405945 S    
P4    Ba2   3.396109 S    
P7    O22   1.751342 S    
C5    H9    1.105514 S    
P8    C28   1.832788 S    
C33   C37   1.407767 A    
C1    H22   1.107583 S    
C3    H5    1.107835 S    
O6    C10   1.406918 S    
C32   H48   1.082054 S    
P2    O20   1.583658 S    
C12   H26   1.107851 S    
