data_mof_unit_6214.cif
_audit_creation_date              2013-03-05T16:36:16-0500
_audit_creation_method            fapswitch 2.2
_symmetry_space_group_name_H-M    P1
_symmetry_Int_Tables_number       1
_space_group_crystal_system       triclinic
_cell_length_a                    27.836161
_cell_length_b                    9.073392
_cell_length_c                    7.770139
_cell_angle_alpha                 90.060634
_cell_angle_beta                  90.010719
_cell_angle_gamma                 90.002067
_cell_volume                      1962.49044456

loop_
_atom_site_label
_atom_site_type_symbol
_atom_site_description
_atom_site_fract_x
_atom_site_fract_y
_atom_site_fract_z
_atom_type_partial_charge
O1    O     O_R   0.500000 0.288390 0.642760 -0.580155
O2    O     O_R   0.500000 0.711610 0.357240 -0.580107
O3    O     O_R   0.500000 0.711610 0.642760 -0.576535
O4    O     O_R   0.500000 0.288390 0.357240 -0.576841
C1    C     C_R   0.500008 0.219994 0.499940 0.832986
C2    C     C_R   0.499999 0.780006 0.500059 0.835527
O5    O     O_R   0.430260 0.500000 0.642770 -0.581384
O6    O     O_R   0.569740 0.500000 0.357230 -0.581852
O7    O     O_R   0.569740 0.500000 0.642770 -0.526464
O8    O     O_R   0.430260 0.500000 0.357230 -0.523513
C3    C     C_R   0.407191 0.502371 0.499985 0.864830
C4    C     C_R   0.592766 0.497536 0.500021 0.866660
Cu1   Cu    Cu3+1 0.500000 0.500000 0.669080 1.070447
Cu2   Cu    Cu3+1 0.500000 0.500000 0.330920 1.071248
C5    C     C_R   0.178319 0.383115 0.587530 0.649554
C6    C     C_R   0.822265 0.593007 0.395177 0.643737
C7    C     C_R   0.177518 0.616636 0.446913 0.608366
C8    C     C_R   0.821462 0.383184 0.579889 0.613297
O9    O     O_2   0.204309 0.273035 0.657859 -0.424762
O10   O     O_2   0.796994 0.694358 0.306101 -0.425578
O11   O     O_2   0.202522 0.723744 0.366498 -0.466343
O12   O     O_2   0.795504 0.289398 0.677234 -0.470039
N1    N     N_R   0.201742 0.499929 0.515608 -0.452259
N2    N     N_R   0.798088 0.489755 0.488683 -0.452879
C9    C     C_R   0.278929 0.577600 0.637144 0.204082
C10   C     C_R   0.720764 0.410957 0.369729 0.202726
C11   C     C_R   0.277598 0.425761 0.377921 0.093628
C12   C     C_R   0.722418 0.575299 0.618342 0.092224
C13   C     C_R   0.328961 0.586065 0.629302 0.282792
C14   C     C_R   0.670672 0.405535 0.376467 0.280171
C15   C     C_R   0.328441 0.426009 0.374503 0.325547
C16   C     C_R   0.671579 0.577424 0.620600 0.323256
C17   C     C_R   0.253282 0.499883 0.510995 0.100975
C18   C     C_R   0.746563 0.493196 0.491439 0.099661
C19   C     C_R   0.101794 0.498200 0.518370 -0.165028
C20   C     C_R   0.898031 0.485061 0.487566 -0.163313
C21   C     C_R   0.127673 0.377068 0.586274 -0.054583
C22   C     C_R   0.872920 0.594758 0.393907 -0.054070
C23   C     C_R   0.127000 0.622749 0.455686 -0.121059
C24   C     C_R   0.872032 0.374081 0.575723 -0.114020
C25   C     C_R   0.102525 0.252921 0.647889 0.474122
C26   C     C_R   0.898880 0.702187 0.301425 0.455798
C27   C     C_R   0.100780 0.747578 0.400419 0.434546
C28   C     C_R   0.897503 0.261348 0.662091 0.434047
C29   C     C_R   0.354123 0.506651 0.500219 -0.249529
C30   C     C_R   0.645749 0.491859 0.499953 -0.245873
C31   C     C_R   0.974271 0.374041 0.582436 -0.001869
C32   C     C_R   0.025320 0.612555 0.434635 -0.001706
C33   C     C_R   0.974734 0.602734 0.413683 0.039668
C34   C     C_R   0.025452 0.372637 0.580663 0.036889
C35   C     C_R   0.949120 0.486957 0.494092 0.076410
C36   C     C_R   0.050741 0.494585 0.511814 0.075137
C37   C     C_R   0.947326 0.265573 0.669530 -0.207072
C38   C     C_R   0.051128 0.739643 0.386097 -0.209613
C39   C     C_R   0.949086 0.704429 0.311914 -0.308742
C40   C     C_R   0.052207 0.251937 0.643499 -0.296612
H1    H     H_    0.963823 0.180841 0.746416 0.166847
H2    H     H_    0.033297 0.839383 0.345749 0.166860
H3    H     H_    0.967551 0.784924 0.234337 0.139110
H4    H     H_    0.034954 0.152018 0.685021 0.132777
C41   C     C_1   0.500009 0.065400 0.499917 -0.137550
C42   C     C_1   0.500004 0.934601 0.500082 -0.137246
N3    N     N_1   0.500000 0.500000 0.076820 -0.016668
N4    N     N_1   0.500000 0.500000 0.923180 -0.016952
O13   O     O_3   0.354311 0.347854 0.252872 -0.676317
H5    H     H_    0.332987 0.279836 0.189745 0.360747
O14   O     O_3   0.645834 0.662454 0.736114 -0.679558
H6    H     H_    0.667339 0.733041 0.794512 0.360359
O15   O     O_3   0.351905 0.674693 0.748213 -0.653053
H7    H     H_    0.381250 0.716004 0.694864 0.328416
O16   O     O_3   0.647475 0.312880 0.262394 -0.656365
H8    H     H_    0.617249 0.277834 0.315486 0.326957
I1    I     I_    0.235801 0.319977 0.181873 -0.151348
I2    I     I_    0.764455 0.690094 0.806598 -0.142906
I3    I     I_    0.241964 0.689963 0.838428 -0.097912
I4    I     I_    0.757630 0.286848 0.177858 -0.076108
O17   O     O_3   0.127478 0.132106 0.709650 -0.650257
H9    H     H_    0.104617 0.054752 0.747214 0.325138
O18   O     O_3   0.874871 0.804546 0.201340 -0.639417
H10   H     H_    0.898277 0.872114 0.146413 0.334072
O19   O     O_3   0.121972 0.881073 0.363436 -0.664092
H11   H     H_    0.145848 0.901164 0.455136 0.377618
O20   O     O_3   0.875196 0.143336 0.739497 -0.665923
H12   H     H_    0.853182 0.100068 0.652776 0.366242

loop_
_geom_bond_atom_site_label_1
_geom_bond_atom_site_label_2
_geom_bond_distance
_ccdc_geom_bond_type
O5    Cu1   1.951990 S    
C39   H3    1.077967 S    
C19   C23   1.416989 A    
C28   O20   1.376697 S    
C12   I2    2.142403 S    
C14   O16   1.381133 S    
O17   H9    0.991572 S    
C11   C17   1.406568 A    
C32   C38   1.410305 A    
C7    N1    1.364552 A    
C8    N2    1.364507 A    
C19   C21   1.416488 A    
C22   C26   1.410791 A    
C32   C36   1.416810 A    
C25   O17   1.384003 S    
C7    C23   1.408982 A    
C8    C24   1.410488 A    
C5    C21   1.410901 A    
O7    Cu1   1.952064 S    
C28   C37   1.388603 A    
C10   C18   1.401830 A    
N1    C17   1.435153 S    
C10   I4    2.130952 S    
C41   C42   1.186797 T    
O3    Cu1   1.931097 S    
C6    O10   1.349349 S    
C31   C37   1.410912 A    
O3    C2    1.271231 A    
C5    N1    1.364592 A    
C12   C18   1.406317 A    
C26   O18   1.383976 S    
C6    N2    1.363831 A    
Cu1   Cu2   2.627551 S    
C21   C25   1.410419 A    
O2    C2    1.270892 A    
O5    C3    1.281986 A    
C31   C34   1.424834 A    
C13   O15   1.380730 S    
C9    C13   1.396177 A    
N3    N4    1.193805 T    
C11   C15   1.415533 A    
O14   H6    0.986753 S    
C12   C16   1.415404 A    
C4    C30   1.475753 S    
O8    Cu2   1.952066 S    
C37   H1    1.076916 S    
C31   C35   1.418575 A    
O19   H11   0.991040 S    
C33   C35   1.415537 A    
C33   C39   1.409893 A    
C34   C40   1.411901 A    
C40   H4    1.075786 S    
C13   C29   1.419349 A    
C9    I3    2.131097 S    
C5    O9    1.349326 S    
C25   C40   1.401091 A    
C26   C39   1.400031 A    
C27   C38   1.388452 A    
C34   C36   1.416807 A    
O20   H12   0.991446 S    
C20   C24   1.417228 A    
O6    C4    1.281447 A    
C1    C41   1.402687 S    
C20   C35   1.423119 A    
C16   O14   1.383203 S    
C32   C33   1.420260 A    
C10   C14   1.396209 A    
C27   O19   1.377831 S    
O1    C1    1.270892 A    
C3    C29   1.477725 S    
O1    Cu1   1.930667 S    
C38   H2    1.078983 S    
C15   O13   1.383298 S    
O6    Cu2   1.951987 S    
C8    O12   1.349026 S    
C16   C30   1.413046 A    
C14   C30   1.419205 A    
O4    C1    1.271229 A    
C23   C27   1.414544 A    
C2    C42   1.402693 S    
C20   C22   1.417843 A    
O16   H8    0.989764 S    
Cu1   N4    1.974392 S    
Cu2   N3    1.974392 S    
O4    Cu2   1.931098 S    
O15   H7    0.989963 S    
O2    Cu2   1.930666 S    
O7    C4    1.281329 A    
N2    C18   1.434768 S    
O8    C3    1.281955 A    
O18   H10   0.991530 S    
C24   C28   1.414439 A    
O13   H5    0.986427 S    
C15   C29   1.413807 A    
C9    C17   1.402110 A    
C19   C36   1.422409 A    
C11   I1    2.142795 S    
C6    C22   1.410172 A    
C7    O11   1.349330 S    
