data_mof_unit_49392.cif
_audit_creation_date              2013-03-05T16:42:53-0500
_audit_creation_method            fapswitch 2.2
_symmetry_space_group_name_H-M    P1
_symmetry_Int_Tables_number       1
_space_group_crystal_system       triclinic
_cell_length_a                    9.884403
_cell_length_b                    10.685712
_cell_length_c                    13.605815
_cell_angle_alpha                 89.967768
_cell_angle_beta                  83.015342
_cell_angle_gamma                 89.525382
_cell_volume                      1426.3578573

loop_
_atom_site_label
_atom_site_type_symbol
_atom_site_description
_atom_site_fract_x
_atom_site_fract_y
_atom_site_fract_z
_atom_type_partial_charge
O1    O     O_R   0.385310 0.683210 0.499990 -0.582893
O2    O     O_R   0.614650 0.683240 0.500000 -0.636607
C1    C     C_R   0.498974 0.739833 0.501609 0.924884
O3    O     O_R   0.368820 0.499950 0.640340 -0.625750
O4    O     O_R   0.598170 0.499990 0.640350 -0.571265
C2    C     C_R   0.475685 0.500534 0.685744 0.887380
Zn1   Zn    Zn3+2 0.346870 0.499980 0.499990 0.997152
Zn2   Zn    Zn3+2 0.653130 0.500020 0.500010 1.015538
O5    O     O_R   0.385350 0.316760 0.500000 -0.610067
O6    O     O_R   0.614690 0.316790 0.500010 -0.633026
O7    O     O_R   0.401830 0.500010 0.359650 -0.603154
O8    O     O_R   0.631180 0.500050 0.359660 -0.556543
C3    C     C_R   0.500298 0.260256 0.500658 0.907730
C4    C     C_R   0.524420 0.498072 0.314312 0.941507
C5    C     C_1   0.543042 0.481289 0.211294 -0.123641
C6    C     C_2   0.557977 0.446694 0.021037 0.358059
C7    C     C_2   0.448381 0.487452 0.981198 -0.291740
C8    C     C_1   0.448723 0.493765 0.877411 0.139508
C9    C     C_1   0.554567 0.464335 0.124432 -0.022167
C10   C     C_1   0.457932 0.497963 0.789620 -0.062551
H1    H     H_    0.360909 0.527337 0.027245 0.149372
C11   C     C_R   0.382232 0.938087 0.485004 0.050379
C12   C     C_R   0.494135 0.871571 0.511575 -0.081697
C13   C     C_R   0.598782 0.934347 0.551799 -0.181740
H2    H     H_    0.681350 0.883915 0.579840 0.179731
C14   C     C_R   0.600463 0.063970 0.550710 -0.208868
H3    H     H_    0.683878 0.112714 0.578246 0.175214
C15   C     C_R   0.497634 0.128659 0.509150 -0.017269
C16   C     C_R   0.385435 0.064989 0.483048 -0.079825
C17   C     C_3   0.310877 0.072613 0.393894 -0.064850
C18   C     C_3   0.302021 0.927416 0.398107 0.827781
H4    H     H_    0.214041 0.125718 0.410665 0.102366
C19   C     C_R   0.914655 0.532902 0.583120 0.097195
N1    N     N_R   0.857130 0.500860 0.500650 -0.172846
C20   C     C_R   0.941631 0.452170 0.422094 0.487025
C21   C     C_R   0.085938 0.454586 0.421721 -0.236789
H5    H     H_    0.151585 0.421148 0.357573 0.196255
N2    N     N_R   0.142770 0.500820 0.500650 -0.115892
C22   C     C_R   0.057089 0.533365 0.582982 0.174576
C23   C     C_3   0.053914 0.655865 0.635738 -0.535306
C24   C     C_3   0.899798 0.655770 0.635333 0.107407
H6    H     H_    0.087960 0.646645 0.710343 0.234415
H7    H     H_    0.105563 0.730998 0.589321 0.237022
H8    H     H_    0.860272 0.730608 0.589730 0.106213
N3    N     N_R   0.824452 0.645564 0.734395 0.247368
O9    O     O_R   0.725869 0.724075 0.761873 -0.396535
O10   O     O_R   0.853130 0.557737 0.795111 -0.317611
N4    N     N_R   0.677167 0.391647 0.965010 0.256441
O11   O     O_R   0.791476 0.386575 0.003336 -0.348442
O12   O     O_R   0.668634 0.332168 0.882571 -0.350231
N5    N     N_R   0.396092 0.121260 0.306692 0.203772
O13   O     O_R   0.520064 0.080304 0.282311 -0.399289
O14   O     O_R   0.348601 0.209491 0.254273 -0.424226
O15   O     O_3   0.175085 0.871125 0.433036 -0.641470
C25   C     C_3   0.060409 0.924693 0.395231 0.037188
H9    H     H_    0.002125 0.847814 0.365721 0.190179
H10   H     H_    0.083960 0.992478 0.333925 0.116589
C26   C     C_3   0.967689 0.987832 0.478528 -0.884980
H11   H     H_    0.015784 0.072929 0.504755 0.242670
H12   H     H_    0.870420 0.014783 0.451118 0.226390
H13   H     H_    0.945850 0.923165 0.541962 0.269117
O16   O     O_3   0.380212 0.858555 0.321408 -0.616608
C27   C     C_3   0.321866 0.859715 0.231522 0.181113
H14   H     H_    0.405908 0.870583 0.170178 0.196128
H15   H     H_    0.251425 0.939391 0.223712 0.119459
C28   C     C_3   0.252428 0.735510 0.216426 -0.826868
H16   H     H_    0.174976 0.714108 0.279987 0.274241
H17   H     H_    0.202022 0.739628 0.147880 0.219557
H18   H     H_    0.329213 0.658916 0.208724 0.249879
O17   O     O_3   0.886580 0.408135 0.340511 -0.568886
C29   C     C_3   0.898836 0.276441 0.338139 0.031734
H19   H     H_    0.852658 0.234533 0.409288 0.153798
H20   H     H_    0.007638 0.246668 0.323121 0.141869
C30   C     C_3   0.823763 0.225838 0.255718 -0.621611
H21   H     H_    0.870564 0.262188 0.183042 0.272832
H22   H     H_    0.829729 0.122000 0.254796 0.207510
H23   H     H_    0.715056 0.255344 0.267982 0.276700

loop_
_geom_bond_atom_site_label_1
_geom_bond_atom_site_label_2
_geom_bond_distance
_ccdc_geom_bond_type
C28   H17   1.110208 S    
C25   H9    1.110159 S    
C27   H15   1.108612 S    
C23   C24   1.524028 S    
C11   C16   1.356834 A    
C1    C12   1.414166 S    
C20   C21   1.426225 A    
C17   N5    1.466583 S    
C6    N4    1.444181 S    
N3    O9    1.300513 A    
Zn1   O7    1.920626 S    
C14   H3    1.083490 S    
C16   C17   1.495808 S    
C30   H22   1.110656 S    
C15   C16   1.388345 A    
C13   C14   1.385394 A    
O4    C2    1.290462 A    
O7    C4    1.291135 A    
C28   H18   1.107862 S    
C26   H12   1.108554 S    
N1    C20   1.373685 A    
O5    C3    1.283231 A    
C19   C22   1.407702 A    
C23   H7    1.109890 S    
C20   O17   1.378892 S    
C6    C7    1.338559 D    
C30   H23   1.110248 S    
C12   C13   1.403215 A    
C3    C15   1.411084 S    
O17   C29   1.411499 S    
C26   H13   1.107011 S    
C23   H6    1.111626 S    
C28   H16   1.108124 S    
C27   C28   1.524617 S    
O1    Zn1   1.997557 S    
C18   O16   1.422341 S    
O3    Zn1   1.947900 S    
C19   N1    1.363228 A    
N3    O10   1.302007 A    
N2    C22   1.363031 A    
C30   H21   1.110827 S    
N5    O13   1.302142 A    
C13   H2    1.081787 S    
O3    C2    1.286944 A    
C11   C18   1.506349 S    
C22   C23   1.491510 S    
C29   H20   1.113784 S    
C26   H11   1.108594 S    
C7    H1    1.088198 S    
O1    C1    1.283018 A    
C5    C9    1.187302 T    
O16   C27   1.414148 S    
O4    Zn2   1.920626 S    
Zn2   O8    1.947900 S    
C7    C8    1.413281 S    
Zn2   N1    2.017591 S    
N4    O11   1.301429 A    
O8    C4    1.285860 A    
C25   H10   1.108829 S    
C24   H8    1.109216 S    
Zn1   O5    1.991348 S    
O15   C25   1.416967 S    
C21   H5    1.081310 S    
C11   C12   1.394013 A    
O2    Zn2   1.991348 S    
O6    C3    1.285446 A    
C29   C30   1.519964 S    
C2    C10   1.403120 S    
C14   C15   1.399401 A    
C19   C24   1.490817 S    
C21   N2    1.365579 A    
O2    C1    1.286851 A    
C29   H19   1.114185 S    
C17   H4    1.108279 S    
C17   C18   1.555365 S    
C6    C9    1.415750 S    
N4    O12   1.301492 A    
Zn1   N2    2.016280 S    
C8    C10   1.187690 T    
C18   O15   1.424453 S    
C27   H14   1.110419 S    
Zn2   O6    1.997556 S    
C25   C26   1.522354 S    
C24   N3    1.462949 S    
C4    C5    1.402725 S    
N5    O14   1.300476 A    
