data_mof_unit_35396.cif
_audit_creation_date              2012-12-11T15:53:48-0500
_audit_creation_method            fapswitch 2.2
_symmetry_space_group_name_H-M    P1
_symmetry_Int_Tables_number       1
_space_group_crystal_system       triclinic
_cell_length_a                    10.838046
_cell_length_b                    10.857834
_cell_length_c                    17.095362
_cell_angle_alpha                 79.822058
_cell_angle_beta                  100.329179
_cell_angle_gamma                 118.764683
_cell_volume                      1725.35841155

loop_
_atom_site_label
_atom_site_type_symbol
_atom_type_description
_atom_site_fract_x
_atom_site_fract_y
_atom_site_fract_z
_atom_type_partial_charge
C1    C     C_R   0.362300 0.230703 0.627651 0.545711
C2    C     C_R   0.510487 0.707066 0.734951 -0.153092
C3    C     C_R   0.489325 0.727364 0.809407 0.110603
C4    C     C_3   0.101690 0.546152 0.749810 0.290902
C5    C     C_3   0.123904 0.505922 0.674657 0.106844
C6    C     C_R   0.396770 0.618599 0.684713 -0.041886
C7    C     C_1   0.768740 0.626899 0.713017 0.019408
C8    C     C_1   0.813672 0.666586 0.778882 0.015219
C9    C     C_1   0.346099 0.188518 0.710117 0.002123
C10   C     C_1   0.319487 0.159796 0.778075 0.006468
C11   C     C_1   0.319281 0.679552 0.279917 0.017102
C12   C     C_R   0.413040 0.620683 0.601487 0.530681
C13   C     C_1   0.298424 0.703333 0.209157 0.025855
C14   C     C_R   0.843759 0.675193 0.159071 0.056136
C15   C     C_R   0.879886 0.588312 0.216810 -0.029923
C16   C     C_R   0.867777 0.580329 0.296021 0.006813
C17   C     C_R   0.760326 0.738024 0.259120 0.109679
C18   C     C_R   0.772919 0.742723 0.177843 0.122295
C19   C     C_3   0.813526 0.432547 0.217111 0.046417
C20   C     C_3   0.831420 0.424868 0.307568 0.283969
C21   C     C_R   0.808583 0.655528 0.318945 -0.004041
C22   C     C_R   0.288370 0.084715 0.175703 0.057397
C23   C     C_R   0.720805 0.586773 0.632961 0.543787
C24   C     C_R   0.223723 0.156877 0.192972 0.042833
C25   C     C_R   0.254083 0.213301 0.262791 0.096619
C26   C     C_R   0.389270 0.088777 0.314102 -0.147798
C27   C     C_R   0.385357 0.060436 0.236220 0.136098
C28   C     C_3   0.071548 0.117729 0.183776 -0.259002
C29   C     C_3   0.108896 0.200173 0.253596 0.036849
C30   C     C_R   0.323986 0.166549 0.327418 -0.040948
C31   C     C_R   0.883307 0.698349 0.857868 0.572158
C32   C     C_R   0.315307 0.707634 0.897844 0.610608
C33   C     C_R   0.282866 0.112924 0.857544 0.587902
C34   C     C_R   0.349953 0.224886 0.401312 0.543973
C35   C     C_R   0.886693 0.691217 0.082194 0.575481
C36   C     C_R   0.286206 0.736782 0.125217 0.560394
C37   C     C_R   0.252311 0.044536 0.095463 0.553959
C38   C     C_R   0.363477 0.655940 0.361564 0.583587
C39   C     C_R   0.764574 0.619437 0.397892 0.589324
C40   C     C_R   0.350469 0.658304 0.833819 0.050037
C41   C     C_R   0.242499 0.556922 0.786600 0.014887
C42   C     C_R   0.266867 0.532329 0.715208 -0.003320
Cr1   Cr    Cr6+3 0.608440 0.389080 0.519680 1.035735
Cr2   Cr    Cr6+3 0.288640 0.400090 0.490760 1.118719
Cr3   Cr    Cr6+3 0.602940 0.710800 0.489510 1.020817
Cr4   Cr    Cr6+3 0.052530 0.947560 0.964210 1.021138
Cr5   Cr    Cr6+3 0.059970 0.626800 0.992920 1.105748
Cr6   Cr    Cr6+3 0.373320 0.938440 0.995370 1.016708
H1    H     H_    0.613727 0.769308 0.713788 0.136057
H2    H     H_    0.440579 0.048055 0.363432 0.121833
H3    H     H_    0.006078 0.002537 0.198769 0.092145
H4    H     H_    0.037472 0.164190 0.126160 0.194990
H5    H     H_    0.050408 0.144593 0.306237 0.145822
H6    H     H_    0.127730 0.581391 0.620740 0.171891
H7    H     H_    0.874080 0.395238 0.191246 0.197203
O1    O     O_R   0.754020 0.497590 0.609930 -0.443240
O2    O     O_R   0.295080 0.533620 0.397890 -0.409425
O3    O     O_R   0.485280 0.746620 0.388440 -0.540733
O4    O     O_R   0.720550 0.696220 0.420010 -0.470291
O5    O     O_3   0.500010 0.499990 0.499980 -0.321484
O6    O     O_R   0.163320 0.092900 0.874450 -0.464661
O7    O     O_R   0.934650 0.822080 0.882840 -0.506042
O8    O     O_R   0.915520 0.604140 0.893670 -0.445219
O9    O     O_R   0.191760 0.638110 0.923230 -0.451665
O10   O     O_R   0.406180 0.826930 0.920660 -0.492155
O11   O     O_R   0.358620 0.062870 0.901950 -0.497421
O12   O     O_R   0.481420 0.271390 0.600630 -0.515185
O13   O     O_R   0.163910 0.085460 0.050210 -0.510648
O14   O     O_R   0.935200 0.815170 0.045770 -0.547894
O15   O     O_R   0.916120 0.596690 0.069430 -0.503308
O16   O     O_R   0.192310 0.631200 0.086170 -0.447105
O17   O     O_R   0.406770 0.819480 0.096420 -0.543799
O18   O     O_R   0.359170 0.055960 0.064880 -0.484613
O19   O     O_3   0.161940 0.837600 0.984160 -0.315438
O20   O     O_R   0.263810 0.254550 0.589590 -0.470061
O21   O     O_R   0.300820 0.531200 0.560890 -0.469306
O22   O     O_R   0.491480 0.744020 0.564270 -0.512204
O23   O     O_R   0.726290 0.693800 0.583010 -0.503607
O24   O     O_R   0.747830 0.500190 0.434090 -0.506896
O25   O     O_R   0.475680 0.273800 0.437630 -0.528716
O26   O     O_R   0.257620 0.257160 0.413750 -0.481364
Br1   Br    Br    0.618074 0.376551 0.165531 -0.566730
N1    N     N_2   0.703152 0.319559 0.342413 -0.468743
H8    H     H_    0.619205 0.341532 0.332853 0.304018
C43   C     C_3   0.717368 0.229777 0.414401 -0.184455
H9    H     H_    0.617508 0.163139 0.440737 0.132166
H10   H     H_    0.792163 0.293857 0.462265 0.216063
H11   H     H_    0.755096 0.158849 0.400125 0.137243
Br2   Br    Br    0.999448 0.413353 0.360454 -0.491248
N2    N     N_2   0.463321 0.992117 0.224222 -0.515505
H12   H     H_    0.484507 0.939308 0.276591 0.244215
C44   C     C_3   0.594431 0.075733 0.188658 -0.235109
H13   H     H_    0.676552 0.147178 0.231188 0.172367
H14   H     H_    0.582614 0.133807 0.130767 0.229542
H15   H     H_    0.631629 0.005099 0.174823 0.131415
Br3   Br    Br    0.117990 0.378164 0.210929 -0.517512
N3    N     N_2   0.606347 0.824743 0.856452 -0.515759
H16   H     H_    0.685349 0.795407 0.872803 0.252426
C45   C     C_3   0.660526 0.971479 0.823647 -0.232975
H17   H     H_    0.712600 0.990805 0.769203 0.170193
H18   H     H_    0.740092 0.039725 0.868620 0.158519
H19   H     H_    0.573661 0.001359 0.808561 0.191484
Br4   Br    Br    0.110610 0.732780 0.728845 -0.516463
Br5   Br    Br    0.945148 0.401410 0.807205 -0.417303
Br6   Br    Br    0.011805 0.309203 0.652513 -0.426797
N4    N     N_2   0.687180 0.804171 0.280056 -0.469371
H20   H     H_    0.601463 0.799345 0.241037 0.263668
C46   C     C_3   0.778153 0.940944 0.308244 -0.267317
H21   H     H_    0.865265 0.938468 0.352887 0.157583
H22   H     H_    0.823041 0.020066 0.257223 0.122273
H23   H     H_    0.715718 0.971937 0.337503 0.154565
N5    N     N_2   0.681505 0.774908 0.116627 -0.507065
H24   H     H_    0.574278 0.719978 0.120712 0.297994
C47   C     C_3   0.735555 0.904362 0.063666 -0.241332
H25   H     H_    0.674699 0.962094 0.063187 0.139949
H26   H     H_    0.723456 0.878370 0.002252 0.184078
H27   H     H_    0.848197 0.973736 0.080935 0.145492

loop_
_geom_bond_atom_site_label_1
_geom_bond_atom_site_label_2
_ccdc_geom_bond_type
C5    C42   S    
C37   O13   A    
Cr3   O5    S    
C16   C21   A    
C11   C38   S    
C11   C13   T    
C41   C42   A    
C14   C18   A    
C19   C20   S    
N5    C47   S    
C47   H25   S    
C7    C8    T    
C5    Br6   S    
C43   H9    S    
C15   C19   S    
C26   C27   A    
N4    C46   S    
Cr4   O7    S    
C28   C29   S    
C18   N5    S    
C26   H2    S    
Cr5   O8    S    
C28   H3    S    
C4    C41   S    
Cr1   O24   S    
C15   C16   A    
C4    Br4   S    
C46   H21   S    
C27   N2    S    
Cr2   O21   S    
Cr4   O14   S    
C34   O25   A    
C38   O3    A    
C45   H17   S    
C35   O15   A    
Cr3   O23   S    
C34   O26   A    
Cr6   O10   S    
C19   Br1   S    
C9    C10   T    
C36   O16   A    
C31   O7    A    
C2    C6    A    
Cr6   O17   S    
N5    H24   S    
N3    C45   S    
C33   O11   A    
N3    H16   S    
C43   H10   S    
C25   C29   S    
Cr3   O3    S    
C30   C34   S    
Cr4   O6    S    
C1    O20   A    
Cr6   O19   S    
C5    H6    S    
C23   O1    A    
C1    C9    S    
C24   C25   A    
C32   O9    A    
C13   C36   S    
Cr2   O26   S    
C14   C35   S    
Cr1   O25   S    
C22   C37   S    
C44   H15   S    
C17   C21   A    
C39   O24   A    
Cr2   O20   S    
Cr5   O15   S    
Cr4   O13   S    
C2    H1    S    
C31   O8    A    
C38   O2    A    
C3    N3    S    
N2    C44   S    
N1    H8    S    
C21   C39   S    
Cr2   O2    S    
C16   C20   S    
C39   O4    A    
C12   O22   A    
C44   H14   S    
C17   C18   A    
N4    H20   S    
Cr5   O16   S    
Cr1   O5    S    
C33   O6    A    
C40   C41   A    
C45   H18   S    
C3    C40   A    
C26   C30   A    
C22   C27   A    
C12   O21   A    
C22   C24   A    
Cr4   O19   S    
C43   H11   S    
C19   H7    S    
C25   C30   A    
C37   O18   A    
Cr3   O4    S    
N1    C43   S    
C8    C31   S    
Cr6   O18   S    
C24   C28   S    
Cr5   O19   S    
C4    C5    S    
C29   Br3   S    
C47   H26   S    
Cr5   O9    S    
C20   Br2   S    
C46   H23   S    
C2    C3    A    
C17   N4    S    
C6    C12   S    
C28   H4    S    
N2    H12   S    
C29   H5    S    
Cr2   O5    S    
C7    C23   S    
C4    Br5   S    
C44   H13   S    
C1    O12   A    
C46   H22   S    
C10   C33   S    
C32   C40   S    
C23   O23   A    
C47   H27   S    
Cr1   O1    S    
C45   H19   S    
C35   O14   A    
Cr1   O12   S    
C6    C42   A    
C20   N1    S    
C14   C15   A    
Cr3   O22   S    
Cr6   O11   S    
C36   O17   A    
C32   O10   A    
