data_mof_unit_14212.cif
_audit_creation_date              2012-12-10T19:08:04-0500
_audit_creation_method            fapswitch 2.2
_symmetry_space_group_name_H-M    P1
_symmetry_Int_Tables_number       1
_space_group_crystal_system       triclinic
_cell_length_a                    9.069733
_cell_length_b                    10.818297
_cell_length_c                    9.564839
_cell_angle_alpha                 89.976687
_cell_angle_beta                  90.062593
_cell_angle_gamma                 90.032825
_cell_volume                      938.49227098

loop_
_atom_site_label
_atom_site_type_symbol
_atom_type_description
_atom_site_fract_x
_atom_site_fract_y
_atom_site_fract_z
_atom_type_partial_charge
C1    C     C_R   0.497258 0.262375 0.499986 0.789372
C2    C     C_R   0.456369 0.935523 0.375092 -0.220362
C3    C     C_R   0.482725 0.870770 0.500142 -0.096903
C4    C     C_R   0.487429 0.936458 0.625636 0.127161
C5    C     C_3   0.595736 0.930271 0.743246 -0.487792
C6    C     C_3   0.595476 0.070589 0.743107 -0.456074
C7    C     C_R   0.628603 0.512124 0.073523 0.124483
C8    C     C_R   0.374621 0.477002 0.074029 -0.062229
C9    C     C_R   0.374559 0.477236 0.925693 -0.087214
C10   C     C_R   0.628957 0.510309 0.926564 0.173002
C11   C     C_3   0.738785 0.612662 0.918341 0.212303
C12   C     C_R   0.220733 0.500133 0.499930 0.831205
C13   C     C_3   0.735584 0.617253 0.078243 0.221275
C14   C     C_R   0.497417 0.737641 0.499971 0.793623
C15   C     C_R   0.779247 0.500273 0.500064 0.848302
C16   C     C_1   0.065554 0.500313 0.499892 -0.198435
C17   C     C_1   0.934401 0.500374 0.500042 -0.164143
C18   C     C_R   0.487268 0.063633 0.625547 0.129016
C19   C     C_R   0.482558 0.129251 0.500047 -0.091926
C20   C     C_R   0.456661 0.064446 0.374959 -0.236816
Cu1   Cu    Cu3+1 0.499990 0.499980 0.640670 0.955104
Cu2   Cu    Cu3+1 0.500010 0.500020 0.359330 0.969435
H1    H     H_    0.443387 0.112642 0.276475 0.168741
H2    H     H_    0.693384 0.694943 0.863125 0.116476
H3    H     H_    0.840214 0.590384 0.131589 0.108396
H4    H     H_    0.442524 0.887274 0.276755 0.194939
H5    H     H_    0.546486 0.890037 0.839446 0.211173
H6    H     H_    0.703197 0.889755 0.711267 0.185292
H7    H     H_    0.546071 0.110997 0.839079 0.201894
H8    H     H_    0.702729 0.111609 0.711061 0.197995
H9    H     H_    0.272364 0.459461 0.128238 0.145249
H10   H     H_    0.272249 0.459889 0.871335 0.158954
N1    N     N_R   0.500920 0.500930 0.147930 -0.158938
N2    N     N_R   0.500930 0.500890 0.852020 -0.205675
O1    O     O_R   0.500000 0.319640 0.618810 -0.575718
O2    O     O_R   0.500020 0.319680 0.381230 -0.589050
O3    O     O_R   0.288380 0.499980 0.618770 -0.591613
O4    O     O_R   0.288400 0.500020 0.381190 -0.593322
O5    O     O_R   0.499980 0.680320 0.618770 -0.593467
O6    O     O_R   0.500000 0.680360 0.381190 -0.529505
O7    O     O_R   0.711600 0.499980 0.618810 -0.538620
O8    O     O_R   0.711620 0.500020 0.381230 -0.587464
O9    O     O_3   0.666866 0.725211 0.129803 -0.555725
C21   C     C_3   0.772453 0.819998 0.143591 -0.348730
H11   H     H_    0.816333 0.848000 0.039867 0.151334
H12   H     H_    0.863525 0.792524 0.215213 0.159948
H13   H     H_    0.718162 0.902192 0.189738 0.197191
O10   O     O_3   0.873930 0.567120 0.866116 -0.570861
C22   C     C_3   0.971590 0.666350 0.843098 -0.336743
H14   H     H_    0.000595 0.712912 0.942947 0.148561
H15   H     H_    0.925608 0.733687 0.766656 0.152009
H16   H     H_    0.075124 0.629304 0.798050 0.204896

loop_
_geom_bond_atom_site_label_1
_geom_bond_atom_site_label_2
_ccdc_geom_bond_type
C7    C10   A    
O9    C21   S    
C20   H1    S    
Cu1   O1    S    
C5    H6    S    
C11   C13   S    
C1    O1    A    
C19   C20   A    
Cu1   O5    S    
C21   H13   S    
C13   O9    S    
C22   H16   S    
Cu2   O6    S    
C2    C3    A    
C4    C18   A    
C10   N2    A    
Cu1   Cu2   S    
C7    N1    A    
C13   H3    S    
C11   O10   S    
Cu2   O8    S    
C3    C14   S    
Cu1   O7    S    
C5    C6    S    
C15   O8    A    
O10   C22   S    
C6    H8    S    
C21   H12   S    
C18   C19   A    
C8    N1    A    
C12   O4    A    
C9    N2    A    
C6    C18   S    
C1    C19   S    
C16   C17   T    
C10   C11   S    
C2    C20   A    
C3    C4    A    
Cu2   O4    S    
C11   H2    S    
C7    C13   S    
C6    H7    S    
Cu1   O3    S    
C21   H11   S    
C15   O7    A    
C2    H4    S    
C22   H14   S    
C12   O3    A    
C15   C17   S    
Cu2   N1    S    
C8    C9    A    
Cu1   N2    S    
C9    H10   S    
C14   O5    A    
C5    H5    S    
C8    H9    S    
C14   O6    A    
Cu2   O2    S    
C12   C16   S    
C1    O2    A    
C4    C5    S    
C22   H15   S    
