data_mof_unit_45058.cif
_audit_creation_date              2012-12-11T14:13:24-0500
_audit_creation_method            fapswitch 2.2
_symmetry_space_group_name_H-M    P1
_symmetry_Int_Tables_number       1
_space_group_crystal_system       triclinic
_cell_length_a                    17.252424
_cell_length_b                    17.293807
_cell_length_c                    17.174595
_cell_angle_alpha                 89.903901
_cell_angle_beta                  89.990939
_cell_angle_gamma                 90.079691
_cell_volume                      5124.20149602

loop_
_atom_site_label
_atom_site_type_symbol
_atom_type_description
_atom_site_fract_x
_atom_site_fract_y
_atom_site_fract_z
_atom_type_partial_charge
C1    C     C_R   0.602402 0.306762 0.112178 -0.118045
C2    C     C_R   0.193727 0.102183 0.611525 -0.126173
C3    C     C_3   0.370963 0.817434 0.348641 -0.236155
C4    C     C_3   0.450078 0.855373 0.359530 -1.061660
C5    C     C_3   0.681750 0.587102 0.381080 0.163292
C6    C     C_3   0.741538 0.536562 0.422313 -0.232981
C7    C     C_3   0.715431 0.516656 0.504891 -1.074535
C8    C     C_3   0.138751 0.244811 0.217370 0.188394
C9    C     C_3   0.132298 0.285336 0.138545 -0.235565
C10   C     C_3   0.056021 0.265443 0.098241 -1.077336
C11   C     C_3   0.830610 0.041161 0.161766 0.151572
C12   C     C_3   0.870772 0.057491 0.083762 -0.300509
C13   C     C_R   0.922893 0.167400 0.645406 -0.086463
C14   C     C_3   0.903290 0.983540 0.048297 -1.029170
C15   C     C_3   0.863882 0.757433 0.214956 0.190497
C16   C     C_3   0.870912 0.717867 0.135809 -0.232381
C17   C     C_3   0.949241 0.734627 0.098091 -1.081697
C18   C     C_3   0.180861 0.956694 0.162936 0.139127
C19   C     C_3   0.144702 0.939965 0.083109 -0.290843
C20   C     C_3   0.114036 0.013716 0.045385 -1.030025
C21   C     C_3   0.035037 0.840608 0.829640 0.174474
C22   C     C_3   0.997150 0.808518 0.903326 -0.230140
C23   C     C_3   0.911275 0.828968 0.906197 -1.064413
C24   C     C_R   0.806791 0.897837 0.612834 -0.140016
C25   C     C_3   0.744710 0.869657 0.777385 0.190852
C26   C     C_3   0.712163 0.877725 0.859794 -0.247565
C27   C     C_3   0.721657 0.959964 0.890534 -1.046953
C28   C     C_3   0.965808 0.159269 0.828975 0.173857
C29   C     C_3   0.003757 0.190202 0.903067 -0.229603
C30   C     C_3   0.089679 0.169734 0.905575 -1.065004
C31   C     C_3   0.259027 0.129757 0.774057 0.181436
C32   C     C_3   0.292814 0.124648 0.856185 -0.246321
C33   C     C_3   0.280785 0.044416 0.891476 -1.046602
C34   C     C_R   0.102457 0.193407 0.388103 -0.121462
C35   C     C_R   0.168428 0.922878 0.355271 -0.110337
C36   C     C_R   0.897995 0.807427 0.386385 -0.130277
C37   C     C_R   0.832395 0.077085 0.354627 -0.088254
C38   C     C_R   0.577025 0.668421 0.144478 -0.189755
C39   C     C_R   0.307743 0.600856 0.115097 -0.144549
C40   C     C_R   0.423457 0.331382 0.144484 -0.181596
C41   C     C_R   0.667738 0.576963 0.145314 -0.076304
C42   C     C_R   0.693102 0.397952 0.112882 -0.164418
C43   C     C_R   0.603374 0.306169 0.889842 -0.184314
C44   C     C_R   0.331930 0.424366 0.855316 -0.180919
C45   C     C_R   0.396756 0.693920 0.889795 -0.181423
C46   C     C_R   0.667917 0.576667 0.854900 -0.184064
C47   C     C_R   0.102479 0.192507 0.613496 -0.167224
C48   C     C_R   0.832890 0.075222 0.645333 -0.174550
C49   C     C_R   0.898173 0.807649 0.614475 -0.158602
C50   C     C_R   0.167051 0.924894 0.645262 -0.170876
C51   C     C_R   0.077427 0.831458 0.355443 -0.158364
C52   C     C_R   0.398241 0.692256 0.114416 -0.152110
C53   C     C_R   0.807492 0.898686 0.385664 -0.169065
C54   C     C_R   0.923785 0.167992 0.355106 -0.174286
C55   C     C_R   0.193086 0.102383 0.387105 -0.169843
C56   C     C_R   0.675545 0.324377 0.138703 -0.110369
C57   C     C_R   0.633708 0.634163 0.189899 -0.009085
C58   C     C_R   0.325821 0.673474 0.142846 -0.081510
C59   C     C_R   0.367044 0.365400 0.189950 -0.049763
C60   C     C_R   0.633405 0.633384 0.809616 -0.021870
C61   C     C_R   0.677986 0.323142 0.866153 -0.087714
C62   C     C_R   0.366244 0.368722 0.809334 -0.052445
C63   C     C_R   0.332295 0.422376 0.145308 -0.083661
C64   C     C_R   0.322216 0.677071 0.866143 -0.088248
C65   C     C_R   0.132691 0.868896 0.691162 -0.109877
C66   C     C_R   0.176500 0.174782 0.639003 -0.115665
C67   C     C_R   0.867270 0.131269 0.691115 -0.110143
C68   C     C_R   0.824742 0.825450 0.641164 -0.120216
C69   C     C_R   0.175563 0.176079 0.361489 -0.113234
C70   C     C_R   0.134720 0.865679 0.310464 -0.033936
C71   C     C_R   0.825351 0.825746 0.358652 -0.117083
C72   C     C_R   0.867288 0.133675 0.309620 -0.060596
C73   C     C_2   0.724660 0.641111 0.702658 -0.267453
C74   C     C_R   0.576512 0.667496 0.854600 -0.074962
C75   C     C_2   0.269612 0.804657 0.842449 -0.210380
C76   C     C_2   0.270294 0.358792 0.707629 -0.289366
C77   C     C_2   0.731292 0.195415 0.843616 -0.206792
C78   C     C_2   0.802156 0.268383 0.158068 -0.191268
C79   C     C_2   0.359486 0.273340 0.295530 -0.276386
C80   C     C_2   0.200656 0.733379 0.157405 -0.200879
C81   C     C_2   0.641165 0.727333 0.293874 -0.330642
C82   C     C_2   0.302133 0.232794 0.343246 -0.185902
C83   C     C_2   0.859048 0.226803 0.205292 -0.281838
C84   C     C_2   0.698474 0.770789 0.338936 -0.238465
C85   C     C_R   0.694103 0.397439 0.889417 -0.105919
C86   C     C_2   0.142882 0.773878 0.204398 -0.241995
C87   C     C_2   0.228918 0.859506 0.792323 -0.269389
C88   C     C_2   0.766568 0.699597 0.657184 -0.226908
C89   C     C_2   0.771504 0.140686 0.792947 -0.269877
C90   C     C_2   0.230791 0.301666 0.659107 -0.183986
C91   C     C_2   0.653221 0.656175 0.729795 0.596425
C92   C     C_2   0.268297 0.728514 0.826208 0.585101
C93   C     C_2   0.344350 0.348621 0.729258 0.628441
C94   C     C_2   0.732385 0.271553 0.827041 0.584900
C95   C     C_2   0.727392 0.271757 0.180530 0.579152
C96   C     C_R   0.423535 0.333792 0.853751 -0.081602
C97   C     C_2   0.346773 0.345767 0.270655 0.608173
C98   C     C_2   0.272964 0.724290 0.185385 0.574148
C99   C     C_2   0.655928 0.654770 0.269539 0.605762
C100  C     C_2   0.227620 0.229122 0.320046 0.573635
C101  C     C_2   0.845596 0.154244 0.229495 0.626318
C102  C     C_2   0.773111 0.774054 0.315972 0.593990
C103  C     C_2   0.158746 0.845005 0.231123 0.587696
C104  C     C_2   0.154750 0.848706 0.771561 0.623143
C105  C     C_2   0.772346 0.772918 0.683357 0.591239
C106  C     C_2   0.845601 0.151351 0.771696 0.622813
C107  C     C_R   0.305885 0.602847 0.889642 -0.110225
C108  C     C_2   0.229871 0.226665 0.680494 0.581560
C109  C     C_3   0.561230 0.675195 0.635547 0.162723
C110  C     C_3   0.576759 0.713672 0.556837 -0.231629
C111  C     C_3   0.526816 0.678280 0.492744 -1.076247
C112  C     C_3   0.249478 0.658047 0.712717 0.164526
C113  C     C_3   0.278045 0.714351 0.649954 -0.302962
C114  C     C_3   0.310306 0.671075 0.579914 -1.043225
C115  C     C_3   0.452579 0.348813 0.652702 0.140889
C116  C     C_3   0.423013 0.396610 0.583143 -0.280693
C117  C     C_3   0.488381 0.442243 0.544665 -1.070645
C118  C     C_R   0.077096 0.832677 0.645594 -0.096525
C119  C     C_3   0.748601 0.339208 0.711338 0.176316
C120  C     C_3   0.708564 0.281281 0.656863 -0.327174
C121  C     C_3   0.678052 0.321226 0.584063 -1.039894
C122  C     C_3   0.642266 0.259381 0.286049 0.187384
C123  C     C_3   0.632776 0.214394 0.362094 -0.241749
C124  C     C_3   0.562447 0.242690 0.407792 -1.063952
C125  C     C_3   0.339678 0.458455 0.337862 0.127572
C126  C     C_3   0.283565 0.521949 0.362782 -0.226666
C127  C     C_3   0.327145 0.594217 0.388887 -1.012820
C128  C     C_3   0.364031 0.778931 0.268908 0.211024
H1    H     H_    0.576172 0.249942 0.111021 0.103770
H2    H     H_    0.250635 0.076277 0.608479 0.094155
H3    H     H_    0.750166 0.482294 0.388823 0.195009
H4    H     H_    0.797752 0.567952 0.425189 0.203958
H5    H     H_    0.706409 0.570162 0.539352 0.275989
H6    H     H_    0.760649 0.481433 0.534101 0.273948
H7    H     H_    0.660491 0.483203 0.503299 0.283682
H8    H     H_    0.084638 0.256293 0.250341 0.107213
H9    H     H_    0.145384 0.181504 0.206981 0.079831
H10   H     H_    0.135317 0.349020 0.146910 0.211319
H11   H     H_    0.181597 0.267630 0.100908 0.192623
H12   H     H_    0.050351 0.201880 0.090858 0.273498
H13   H     H_    0.958418 0.215851 0.662043 0.111716
H14   H     H_    0.054220 0.293651 0.040190 0.283130
H15   H     H_    0.006334 0.287028 0.132979 0.272650
H16   H     H_    0.785442 0.996239 0.152567 0.139213
H17   H     H_    0.872652 0.016319 0.204346 0.073776
H18   H     H_    0.828524 0.083496 0.042477 0.223932
H19   H     H_    0.918974 0.099269 0.092627 0.183697
H20   H     H_    0.945436 0.956143 0.088662 0.272882
H21   H     H_    0.933342 0.997571 0.992865 0.276731
H22   H     H_    0.855630 0.942079 0.036012 0.279360
H23   H     H_    0.916519 0.743275 0.249267 0.105817
H24   H     H_    0.749759 0.923522 0.610349 0.089072
H25   H     H_    0.859957 0.821104 0.205283 0.080083
H26   H     H_    0.864626 0.654271 0.143227 0.213036
H27   H     H_    0.823707 0.738439 0.096919 0.190961
H28   H     H_    0.957959 0.797924 0.091160 0.274997
H29   H     H_    0.951663 0.706695 0.040035 0.283597
H30   H     H_    0.996721 0.710509 0.134244 0.272191
H31   H     H_    0.227556 0.000370 0.155360 0.137048
H32   H     H_    0.137151 0.983263 0.202603 0.082260
H33   H     H_    0.188961 0.913659 0.044297 0.219506
H34   H     H_    0.096003 0.898338 0.089797 0.185426
H35   H     H_    0.076324 0.250184 0.389835 0.099471
H36   H     H_    0.069989 0.041401 0.083345 0.275031
H37   H     H_    0.086677 0.999239 0.988743 0.274444
H38   H     H_    0.162188 0.055160 0.035008 0.278748
H39   H     H_    0.996285 0.828783 0.779457 0.116825
H40   H     H_    0.041322 0.904532 0.836727 0.058053
H41   H     H_    0.003011 0.744514 0.904667 0.216760
H42   H     H_    0.026946 0.832679 0.955297 0.196024
H43   H     H_    0.903019 0.892039 0.897606 0.272280
H44   H     H_    0.886250 0.812251 0.963241 0.288279
H45   H     H_    0.879857 0.796981 0.859916 0.280862
H46   H     H_    0.215452 0.960035 0.337745 0.112192
H47   H     H_    0.711893 0.909411 0.738735 0.101088
H48   H     H_    0.807178 0.885757 0.778557 0.099183
H49   H     H_    0.649564 0.862336 0.859664 0.204837
H50   H     H_    0.742538 0.837006 0.899456 0.210468
H51   H     H_    0.783532 0.977770 0.889182 0.274633
H52   H     H_    0.700806 0.962804 0.951627 0.277183
H53   H     H_    0.686958 0.000754 0.854813 0.268753
H54   H     H_    0.004466 0.172106 0.778926 0.115667
H55   H     H_    0.959787 0.095204 0.835152 0.058625
H56   H     H_    0.997844 0.254169 0.905315 0.216287
H57   H     H_    0.923905 0.750540 0.387522 0.096790
H58   H     H_    0.974039 0.165167 0.954753 0.195776
H59   H     H_    0.097928 0.106965 0.895282 0.271259
H60   H     H_    0.114608 0.184672 0.963090 0.290310
H61   H     H_    0.121221 0.203111 0.860265 0.273847
H62   H     H_    0.286096 0.083754 0.738204 0.106745
H63   H     H_    0.195345 0.120189 0.778073 0.093680
H64   H     H_    0.355961 0.137461 0.854195 0.206299
H65   H     H_    0.264630 0.168522 0.893935 0.205800
H66   H     H_    0.218411 0.028520 0.891211 0.275911
H67   H     H_    0.301858 0.043980 0.952556 0.275251
H68   H     H_    0.785198 0.040449 0.336694 0.117012
H69   H     H_    0.313874 0.000680 0.857916 0.268906
H70   H     H_    0.539385 0.714997 0.161188 0.099014
H71   H     H_    0.251182 0.573871 0.115893 0.089787
H72   H     H_    0.461680 0.285298 0.161464 0.096031
H73   H     H_    0.714462 0.539818 0.163396 0.125479
H74   H     H_    0.749497 0.425267 0.113506 0.094096
H75   H     H_    0.575831 0.249980 0.889831 0.096102
H76   H     H_    0.285900 0.462799 0.838536 0.098001
H77   H     H_    0.424311 0.750095 0.889767 0.095247
H78   H     H_    0.714055 0.538616 0.837536 0.099523
H79   H     H_    0.075231 0.248729 0.614751 0.094924
H80   H     H_    0.787179 0.036556 0.662644 0.097628
H81   H     H_    0.925235 0.751321 0.615608 0.095633
H82   H     H_    0.212692 0.963657 0.662376 0.095179
H83   H     H_    0.039883 0.784757 0.338421 0.090865
H84   H     H_    0.424150 0.749183 0.113373 0.082107
H85   H     H_    0.751120 0.925871 0.384782 0.096043
H86   H     H_    0.962033 0.214144 0.338060 0.094159
H87   H     H_    0.249524 0.075314 0.386445 0.095796
H88   H     H_    0.759903 0.595543 0.727650 0.101260
H89   H     H_    0.312061 0.828132 0.882674 0.096451
H90   H     H_    0.232325 0.397862 0.738826 0.097279
H91   H     H_    0.689142 0.171963 0.884265 0.099162
H92   H     H_    0.823954 0.305907 0.112223 0.096955
H93   H     H_    0.401419 0.236363 0.266965 0.090969
H94   H     H_    0.182649 0.706766 0.103051 0.099414
H95   H     H_    0.285426 0.459114 0.163652 0.118956
H96   H     H_    0.596163 0.762018 0.267216 0.112460
H97   H     H_    0.323399 0.195805 0.389728 0.096626
H98   H     H_    0.902423 0.262794 0.233039 0.090946
H99   H     H_    0.677156 0.807337 0.385628 0.105659
H100  H     H_    0.098220 0.738217 0.230593 0.093009
H101  H     H_    0.266511 0.898301 0.760112 0.088373
H102  H     H_    0.799716 0.680315 0.607060 0.099660
H103  H     H_    0.733600 0.102393 0.760633 0.088266
H104  H     H_    0.192822 0.323016 0.613472 0.091490
H105  H     H_    0.499358 0.683818 0.651305 0.125129
H106  H     H_    0.538924 0.713943 0.836691 0.121309
H107  H     H_    0.570350 0.611413 0.629668 0.066728
H108  H     H_    0.564211 0.776567 0.560868 0.204073
H109  H     H_    0.638870 0.706563 0.541418 0.186981
H110  H     H_    0.537141 0.615047 0.488637 0.273342
H111  H     H_    0.541679 0.705160 0.436011 0.272839
H112  H     H_    0.464596 0.688838 0.504621 0.287247
H113  H     H_    0.204860 0.619732 0.686491 0.133927
H114  H     H_    0.297368 0.619341 0.731672 0.086574
H115  H     H_    0.229162 0.751177 0.630322 0.222769
H116  H     H_    0.324115 0.752275 0.674211 0.186466
H117  H     H_    0.750661 0.424467 0.890152 0.110385
H118  H     H_    0.360966 0.635444 0.597358 0.269128
H119  H     H_    0.328849 0.713363 0.534913 0.274612
H120  H     H_    0.265086 0.632945 0.554491 0.277807
H121  H     H_    0.498841 0.309375 0.631731 0.154180
H122  H     H_    0.480047 0.387056 0.697127 0.081736
H123  H     H_    0.396294 0.357441 0.539427 0.218085
H124  H     H_    0.378171 0.438183 0.603052 0.183919
H125  H     H_    0.518219 0.479348 0.588072 0.268358
H126  H     H_    0.464313 0.479844 0.498187 0.270491
H127  H     H_    0.530847 0.402206 0.517956 0.276676
H128  H     H_    0.461298 0.287892 0.834893 0.116986
H129  H     H_    0.794086 0.370212 0.677717 0.137695
H130  H     H_    0.707049 0.384233 0.731058 0.086841
H131  H     H_    0.750271 0.235729 0.639268 0.223795
H132  H     H_    0.659168 0.253351 0.687550 0.183321
H133  H     H_    0.639816 0.370146 0.600355 0.273584
H134  H     H_    0.644293 0.279256 0.549140 0.284559
H135  H     H_    0.726971 0.342893 0.548110 0.280730
H136  H     H_    0.586232 0.256764 0.254384 0.104483
H137  H     H_    0.656878 0.320607 0.300268 0.085378
H138  H     H_    0.625133 0.151897 0.349025 0.210046
H139  H     H_    0.249222 0.576042 0.890553 0.110892
H140  H     H_    0.685838 0.221327 0.398167 0.200608
H141  H     H_    0.568922 0.304973 0.421931 0.273427
H142  H     H_    0.556975 0.209233 0.462737 0.275389
H143  H     H_    0.508667 0.234235 0.373364 0.273548
H144  H     H_    0.378294 0.482973 0.291823 0.090314
H145  H     H_    0.375812 0.441152 0.388649 0.115226
H146  H     H_    0.245401 0.537209 0.312912 0.204337
H147  H     H_    0.246741 0.500629 0.411427 0.197549
H148  H     H_    0.363608 0.581081 0.440508 0.270420
H149  H     H_    0.284980 0.640110 0.404381 0.288540
H150  H     H_    0.041794 0.784083 0.662430 0.114535
H151  H     H_    0.364764 0.616023 0.341196 0.278025
H152  H     H_    0.374735 0.823493 0.223157 0.110895
H153  H     H_    0.408323 0.732384 0.265467 0.086175
H154  H     H_    0.325318 0.862222 0.354630 0.208606
H155  H     H_    0.362191 0.773428 0.395064 0.202105
H156  H     H_    0.496716 0.811612 0.354733 0.270326
H157  H     H_    0.453217 0.882177 0.418149 0.277862
H158  H     H_    0.459304 0.901041 0.314913 0.271521
H159  H     H_    0.626573 0.553965 0.375252 0.087487
H160  H     H_    0.671818 0.638927 0.417881 0.132026
N1    N     N_R   0.574080 0.369570 0.076720 -0.031283
N2    N     N_R   0.130430 0.074080 0.576720 -0.029237
N3    N     N_R   0.925920 0.130430 0.576720 -0.041604
N4    N     N_R   0.869570 0.925920 0.576720 -0.026508
N5    N     N_R   0.074080 0.130430 0.423280 -0.031044
N6    N     N_R   0.130430 0.925920 0.423280 -0.043056
N7    N     N_R   0.925920 0.869570 0.423280 -0.030186
N8    N     N_R   0.869570 0.074080 0.423280 -0.045330
N9    N     N_R   0.574050 0.630410 0.076720 -0.032173
N10   N     N_R   0.369590 0.574050 0.076720 -0.032105
N11   N     N_R   0.425950 0.369590 0.076720 -0.031848
N12   N     N_R   0.630430 0.574080 0.076720 -0.050005
N13   N     N_R   0.630410 0.425950 0.076720 -0.029082
N14   N     N_R   0.574050 0.369590 0.923280 -0.028821
N15   N     N_R   0.369590 0.425950 0.923280 -0.032114
N16   N     N_R   0.425950 0.630410 0.923280 -0.028939
N17   N     N_R   0.630410 0.574050 0.923280 -0.033714
N18   N     N_R   0.074050 0.130410 0.576720 -0.028606
N19   N     N_R   0.869590 0.074050 0.576720 -0.029332
N20   N     N_R   0.925950 0.869590 0.576720 -0.028741
N21   N     N_R   0.130410 0.925950 0.576720 -0.029496
N22   N     N_R   0.074050 0.869590 0.423280 -0.033366
N23   N     N_R   0.425920 0.630430 0.076720 -0.024404
N24   N     N_R   0.869590 0.925950 0.423280 -0.028191
N25   N     N_R   0.925950 0.130410 0.423280 -0.032138
N26   N     N_R   0.130410 0.074050 0.423280 -0.027597
N27   N     N_R   0.369570 0.425920 0.076720 -0.046849
N28   N     N_R   0.574080 0.630430 0.923280 -0.048155
N29   N     N_R   0.630430 0.425920 0.923280 -0.035854
N30   N     N_R   0.425920 0.369570 0.923280 -0.045489
N31   N     N_R   0.369570 0.574080 0.923280 -0.036098
N32   N     N_R   0.074080 0.869570 0.576720 -0.040894
Ni1   Ni    Ni4+2 0.500000 0.370760 0.000000 0.211017
Ni2   Ni    Ni4+2 0.629240 0.500000 0.000000 0.211720
Ni3   Ni    Ni4+2 0.500000 0.629240 0.000000 0.211979
Ni4   Ni    Ni4+2 0.370760 0.500000 0.000000 0.210078
Ni5   Ni    Ni4+2 1.000000 0.870760 0.500000 0.212154
Ni6   Ni    Ni4+2 0.129240 1.000000 0.500000 0.211464
Ni7   Ni    Ni4+2 0.000000 0.129240 0.500000 0.211658
Ni8   Ni    Ni4+2 0.870760 1.000000 0.500000 0.209876
O1    O     O_3   0.607351 0.711180 0.693345 -0.640365
O2    O     O_3   0.792955 0.108325 0.189466 -0.620642
O3    O     O_3   0.797546 0.728360 0.253399 -0.630420
O4    O     O_3   0.215161 0.889198 0.194266 -0.659035
O5    O     O_3   0.107066 0.803437 0.818342 -0.616361
O6    O     O_3   0.734048 0.792555 0.752691 -0.637714
O7    O     O_3   0.893627 0.196392 0.818239 -0.616767
O8    O     O_3   0.277587 0.202893 0.742223 -0.635853
O9    O     O_3   0.213650 0.698293 0.774808 -0.623891
O10   O     O_3   0.392783 0.302441 0.684695 -0.628864
O11   O     O_3   0.785945 0.301328 0.774131 -0.625814
O12   O     O_3   0.701219 0.224358 0.241191 -0.628621
O13   O     O_3   0.297002 0.393803 0.311447 -0.621115
O14   O     O_3   0.288904 0.747484 0.261581 -0.648683
O15   O     O_3   0.710244 0.608367 0.306932 -0.632621
O16   O     O_3   0.202809 0.275720 0.258138 -0.632673

loop_
_geom_bond_atom_site_label_1
_geom_bond_atom_site_label_2
_ccdc_geom_bond_type
C88   H102  S    
C124  H143  S    
C126  C127  S    
C19   C20   S    
C112  O9    S    
C15   H23   S    
C110  H109  S    
C94   O11   S    
C115  H122  S    
C125  H145  S    
C77   C89   S    
C29   H56   S    
C1    C56   A    
C7    H5    S    
C74   N28   A    
C5    C6    S    
C72   C101  S    
C29   H58   S    
C45   N16   A    
C93   O10   S    
C110  C111  S    
C80   C86   S    
C18   H31   S    
C113  H115  S    
C89   C106  D    
C65   C118  A    
C74   H106  S    
N2    Ni6   S    
N5    N26   A    
C36   C71   A    
C112  H114  S    
C105  O6    S    
C21   C22   S    
C10   H12   S    
N21   Ni6   S    
C5    O15   S    
C27   H52   S    
C6    H4    S    
C96   N30   A    
C118  H150  S    
C61   C94   S    
C81   C99   D    
C120  H132  S    
C118  N32   A    
C19   H34   S    
N18   Ni7   S    
C73   C88   S    
C38   C57   A    
C9    H10   S    
C114  H119  S    
N11   Ni1   S    
C48   H80   S    
C16   H27   S    
C1    N1    A    
C31   O8    S    
C89   H103  S    
C46   N17   A    
C22   H42   S    
C52   C58   A    
C71   C102  S    
C33   H66   S    
N19   Ni8   S    
C53   C71   A    
C43   C61   A    
C54   H86   S    
N30   Ni1   S    
C46   C60   A    
C59   C63   A    
C79   C97   D    
N23   Ni3   S    
C6    C7    S    
C1    H1    S    
C4    H157  S    
C44   N15   A    
C5    H160  S    
C30   H59   S    
C95   O12   S    
C14   H21   S    
C39   N10   A    
C63   N27   A    
C48   C67   A    
C85   N29   A    
C69   C100  S    
C119  H130  S    
C23   H43   S    
C62   C93   S    
C52   H84   S    
C22   C23   S    
C109  H105  S    
C56   C95   S    
C84   C102  D    
N12   Ni2   S    
C58   C98   S    
C49   N20   A    
C109  O1    S    
N1    Ni1   S    
C123  C124  S    
N9    Ni3   S    
C20   H37   S    
C31   H62   S    
C124  H142  S    
C21   H40   S    
C36   H57   S    
C55   H87   S    
C121  H134  S    
C41   N12   A    
C30   H61   S    
C75   H89   S    
C115  C116  S    
C57   C99   S    
C77   C94   D    
C28   H54   S    
C117  H125  S    
C123  H140  S    
C31   C32   S    
N24   Ni8   S    
C18   O4    S    
C102  O3    S    
C38   H70   S    
C73   H88   S    
N20   Ni5   S    
C17   H29   S    
C9    C10   S    
C51   N22   A    
C42   C56   A    
C126  H146  S    
C85   H117  S    
C90   H104  S    
C91   O1    S    
C101  O2    S    
C43   N14   A    
N2    N18   A    
N10   Ni4   S    
C63   H95   S    
C96   H128  S    
N14   Ni1   S    
C55   N26   A    
C3    C128  S    
C77   H91   S    
N16   N31   A    
C25   C26   S    
C39   C58   A    
C25   O6    S    
C27   H53   S    
C29   C30   S    
N27   Ni4   S    
C25   H47   S    
N7    N24   A    
C97   O13   S    
N25   Ni7   S    
C92   O9    S    
C55   C69   A    
C99   O15   S    
C109  H107  S    
C75   C87   S    
N5    Ni7   S    
C16   H26   S    
C42   H74   S    
C68   C105  S    
C3    C4    S    
C120  C121  S    
C26   H49   S    
C106  O7    S    
C46   H78   S    
C81   H96   S    
C39   H71   S    
C53   H85   S    
C83   C101  D    
C48   N19   A    
C128  O14   S    
C32   H65   S    
C2    C66   A    
C79   C82   S    
C115  H121  S    
C116  H123  S    
C45   C64   A    
C111  H112  S    
C2    N2    A    
C90   C108  D    
C107  H139  S    
C88   C105  D    
C117  H127  S    
C123  H138  S    
C4    H156  S    
N16   Ni3   S    
C50   C65   A    
C15   H25   S    
C50   N21   A    
C18   H32   S    
C80   H94   S    
C50   H82   S    
N13   Ni2   S    
C44   H76   S    
C127  H151  S    
C84   H99   S    
C128  H152  S    
C83   H98   S    
C49   C68   A    
C62   C96   A    
C8    H8    S    
N1    N13   A    
N15   N30   A    
C98   O14   S    
C26   C27   S    
C12   H19   S    
C28   C29   S    
C27   H51   S    
N21   N32   A    
C20   H36   S    
C31   H63   S    
C32   H64   S    
C18   C19   S    
C19   H33   S    
C24   H24   S    
C78   H92   S    
C78   C83   S    
C3    H154  S    
C114  H120  S    
C76   H90   S    
C16   C17   S    
C11   O2    S    
C13   H13   S    
C47   C66   A    
N3    Ni7   S    
C82   C100  D    
C110  H108  S    
C79   H93   S    
C111  H110  S    
N17   Ni2   S    
C125  H144  S    
C7    H6    S    
C21   O5    S    
N26   Ni6   S    
C40   H72   S    
C115  O10   S    
C125  O13   S    
C4    H158  S    
C8    H9    S    
C5    H159  S    
C30   H60   S    
C15   O3    S    
C76   C93   D    
C119  O11   S    
C78   C95   D    
C113  H116  S    
C14   H22   S    
N7    Ni5   S    
N32   Ni5   S    
C127  H149  S    
N17   N28   A    
C24   N4    A    
C112  H113  S    
C119  H129  S    
N3    N19   A    
C125  C126  S    
C64   C92   S    
C41   H73   S    
N15   Ni4   S    
C113  C114  S    
N31   Ni4   S    
C45   H77   S    
N8    Ni8   S    
C80   C98   D    
C70   C103  S    
C40   N11   A    
C66   C108  S    
C6    H3    S    
C119  C120  S    
C67   C106  S    
C23   H45   S    
C120  H131  S    
C20   H38   S    
C21   H39   S    
C108  O8    S    
C32   C33   S    
C41   C57   A    
C87   H101  S    
C109  C110  S    
C9    H11   S    
C114  H118  S    
C2    H2    S    
N28   Ni3   S    
C22   H41   S    
C24   C68   A    
C87   C104  D    
C35   N6    A    
C33   H67   S    
C37   C72   A    
C49   H81   S    
C103  O4    S    
C100  O16   S    
C17   H28   S    
C54   N25   A    
C76   C90   S    
C8    O16   S    
C126  H147  S    
N6    Ni6   S    
C86   H100  S    
C127  H148  S    
N10   N23   A    
C15   C16   S    
C14   H20   S    
C116  C117  S    
C53   N24   A    
C12   H18   S    
C121  H133  S    
C36   N7    A    
C23   H44   S    
C35   C70   A    
C8    C9    S    
C10   H14   S    
C51   C70   A    
C11   H16   S    
N4    N20   A    
N11   N27   A    
C3    H155  S    
C40   C59   A    
C128  H153  S    
C86   C103  D    
N29   Ni2   S    
C112  C113  S    
C26   H50   S    
C82   H97   S    
C28   H55   S    
C124  H141  S    
N14   N29   A    
C37   H68   S    
C73   C91   D    
C34   H35   S    
C11   H17   S    
C116  H124  S    
C44   C62   A    
C111  H111  S    
C7    H7    S    
C34   N5    A    
C117  H126  S    
N6    N22   A    
C33   H69   S    
C17   H30   S    
C61   C85   A    
C75   C92   D    
C12   C14   S    
C13   N3    A    
C37   N8    A    
C43   H75   S    
C59   C97   S    
N9    N12   A    
C81   C84   S    
C64   C107  A    
C13   C67   A    
C60   C91   S    
C107  N31   A    
C28   O7    S    
N8    N25   A    
C35   H46   S    
C34   C69   A    
C11   C12   S    
C52   N23   A    
C47   H79   S    
C104  O5    S    
C121  H135  S    
C25   H48   S    
C122  H136  S    
N22   Ni5   S    
C60   C74   A    
C47   N18   A    
C10   H15   S    
C122  O12   S    
C51   H83   S    
C54   C72   A    
C38   N9    A    
C65   C104  S    
C122  C123  S    
C42   N13   A    
N4    Ni8   S    
C122  H137  S    
