data_mof_unit_60318.cif
_audit_creation_date              2012-12-10T18:50:57-0500
_audit_creation_method            fapswitch 2.2
_symmetry_space_group_name_H-M    P1
_symmetry_Int_Tables_number       1
_space_group_crystal_system       triclinic
_cell_length_a                    37.051598
_cell_length_b                    30.234032
_cell_length_c                    21.76722
_cell_angle_alpha                 89.999148
_cell_angle_beta                  125.421845
_cell_angle_gamma                 89.991915
_cell_volume                      19870.7359904

loop_
_atom_site_label
_atom_site_type_symbol
_atom_type_description
_atom_site_fract_x
_atom_site_fract_y
_atom_site_fract_z
_atom_type_partial_charge
C1    C     C_R   0.413921 0.500032 0.914617 0.952282
C2    C     C_R   0.586068 0.500023 0.085386 0.955421
C3    C     C_R   0.913921 0.000032 0.914617 0.952285
C4    C     C_R   0.086068 0.000023 0.085386 0.955421
C5    C     C_2   0.515433 0.497214 0.830787 0.160423
C6    C     C_2   0.484577 0.497233 0.169225 0.161787
C7    C     C_2   0.015437 0.997215 0.830792 0.160440
C8    C     C_2   0.984577 0.997233 0.169225 0.161783
C9    C     C_R   0.297856 0.502823 0.861869 0.481372
C10   C     C_R   0.702794 0.501044 0.141172 0.475797
C11   C     C_R   0.797856 0.002826 0.861869 0.481372
C12   C     C_R   0.202794 0.001046 0.141172 0.475797
C13   C     C_R   0.344018 0.500436 0.906222 0.367470
C14   C     C_R   0.656598 0.499218 0.095831 0.364336
C15   C     C_R   0.844018 0.000438 0.906222 0.367472
C16   C     C_R   0.156598 0.999220 0.095831 0.364333
C17   C     C_R   0.366195 0.500285 0.870697 -0.340114
C18   C     C_R   0.633800 0.500227 0.130238 -0.342998
C19   C     C_R   0.866195 0.000285 0.870697 -0.340115
C20   C     C_R   0.133800 0.000227 0.130237 -0.342997
C21   C     C_R   0.342548 0.502738 0.792136 0.436497
C22   C     C_R   0.656841 0.503416 0.208618 0.419622
C23   C     C_R   0.842548 0.002736 0.792136 0.436498
C24   C     C_R   0.156842 0.003414 0.208618 0.419625
C25   C     C_R   0.296586 0.502176 0.748335 -0.281758
C26   C     C_R   0.702794 0.502302 0.253444 -0.225897
C27   C     C_R   0.796586 0.002174 0.748335 -0.281758
C28   C     C_R   0.202794 0.002299 0.253444 -0.225899
C29   C     C_R   0.274221 0.502734 0.782379 -0.199510
C30   C     C_R   0.725822 0.501510 0.220568 -0.115076
C31   C     C_R   0.774221 0.002735 0.782379 -0.199510
C32   C     C_R   0.225822 0.001509 0.220567 -0.115077
C33   C     C_R   0.203359 0.540796 0.687756 0.430251
C34   C     C_R   0.795852 0.538725 0.315598 0.432276
C35   C     C_R   0.703359 0.040796 0.687754 0.430252
C36   C     C_R   0.295852 0.038724 0.315600 0.432274
C37   C     C_R   0.157407 0.539975 0.636567 0.431232
C38   C     C_R   0.842370 0.539245 0.365001 0.327030
C39   C     C_R   0.657407 0.039975 0.636565 0.431231
C40   C     C_R   0.342370 0.039244 0.365003 0.327032
C41   C     C_R   0.133920 0.502242 0.633527 -0.339182
C42   C     C_R   0.866079 0.501988 0.366760 -0.282288
C43   C     C_R   0.633920 0.002242 0.633527 -0.339184
C44   C     C_R   0.366079 0.001988 0.366760 -0.282290
C45   C     C_R   0.503994 0.499705 0.884972 0.812729
C46   C     C_R   0.496034 0.499708 0.115063 0.814276
C47   C     C_R   0.003996 0.999705 0.884973 0.812734
C48   C     C_R   0.996034 0.999708 0.115063 0.814277
C49   C     C_R   0.156119 0.465650 0.679189 -0.230051
C50   C     C_R   0.844112 0.465057 0.321874 -0.227736
C51   C     C_R   0.656119 0.965651 0.679191 -0.230052
C52   C     C_R   0.344113 0.965057 0.321872 -0.227737
C53   C     C_R   0.201914 0.464846 0.727289 0.477407
C54   C     C_R   0.798322 0.463452 0.275420 0.427241
C55   C     C_R   0.701914 0.964847 0.727291 0.477409
C56   C     C_R   0.298322 0.963453 0.275417 0.427240
C57   C     C_R   0.225904 0.502937 0.732684 -0.220351
C58   C     C_R   0.774121 0.500938 0.271242 -0.145565
C59   C     C_R   0.725904 0.002937 0.732684 -0.220352
C60   C     C_R   0.274121 0.000937 0.271242 -0.145564
C61   C     C_R   0.500004 0.413948 0.500005 0.911270
C62   C     C_R   0.000004 0.913948 0.500005 0.911267
C63   C     C_R   0.499586 0.503116 0.618696 0.812707
C64   C     C_R   0.500416 0.503110 0.381304 0.812708
C65   C     C_R   0.999586 0.003114 0.618696 0.812708
C66   C     C_R   0.000416 0.003110 0.381304 0.812706
C67   C     C_R   0.499996 0.586087 0.499995 0.891811
C68   C     C_R   0.999996 0.086087 0.499995 0.891814
C69   C     C_R   0.999997 0.413883 0.499997 0.897361
C70   C     C_R   0.499997 0.913883 0.499997 0.897362
C71   C     C_R   0.086175 0.500651 0.585941 0.902981
C72   C     C_R   0.913830 0.500649 0.414083 0.900858
C73   C     C_R   0.586175 0.000651 0.585941 0.902981
C74   C     C_R   0.413830 0.000649 0.414083 0.900858
C75   C     C_R   0.999996 0.586139 0.499997 1.040833
C76   C     C_R   0.499996 0.086139 0.499997 1.040834
C77   C     C_R   0.489462 0.297107 0.435316 0.469960
C78   C     C_R   0.510572 0.297103 0.564715 0.469972
C79   C     C_R   0.989464 0.797107 0.435317 0.469961
C80   C     C_R   0.010571 0.797102 0.564714 0.469971
C81   C     C_R   0.999965 0.274096 0.499951 -0.347218
C82   C     C_R   0.499964 0.774096 0.499950 -0.347219
C83   C     C_R   0.488613 0.343134 0.434412 0.296077
C84   C     C_R   0.511416 0.343129 0.565616 0.295851
C85   C     C_R   0.988615 0.843134 0.434412 0.296078
C86   C     C_R   0.011416 0.843129 0.565614 0.295850
C87   C     C_R   0.500013 0.366223 0.500012 -0.410250
C88   C     C_R   0.000013 0.866223 0.500012 -0.410249
C89   C     C_R   0.500019 0.274070 0.500018 -0.230948
C90   C     C_R   0.000020 0.774070 0.500017 -0.230949
C91   C     C_R   0.038795 0.702578 0.554609 0.377471
C92   C     C_R   0.961229 0.702604 0.445430 0.378769
C93   C     C_R   0.538795 0.202578 0.554608 0.377470
C94   C     C_R   0.461228 0.202604 0.445432 0.378770
C95   C     C_R   0.037748 0.656470 0.557446 0.263526
C96   C     C_R   0.962256 0.656497 0.442587 0.262774
C97   C     C_R   0.537748 0.156470 0.557445 0.263524
C98   C     C_R   0.462255 0.156497 0.442588 0.262774
C99   C     C_R   0.000002 0.633796 0.500004 -0.373188
C100  C     C_R   0.500002 0.133796 0.500004 -0.373187
C101  C     C_R   0.000017 0.725706 0.500014 -0.179366
C102  C     C_R   0.500016 0.225706 0.500015 -0.179366
C103  C     C_R   0.519993 0.702865 0.569056 0.459150
C104  C     C_R   0.479939 0.702863 0.430874 0.458974
C105  C     C_R   0.019992 0.202865 0.569056 0.459148
C106  C     C_R   0.979942 0.202863 0.430874 0.458976
C107  C     C_R   0.519172 0.656920 0.568813 0.393213
C108  C     C_R   0.480786 0.656918 0.431142 0.393198
C109  C     C_R   0.019170 0.156920 0.568812 0.393208
C110  C     C_R   0.980788 0.156918 0.431143 0.393197
C111  C     C_R   0.499986 0.633871 0.499984 -0.466264
C112  C     C_R   0.999986 0.133871 0.499984 -0.466264
C113  C     C_R   0.035756 0.297128 0.508032 0.461163
C114  C     C_R   0.964184 0.297152 0.491882 0.461127
C115  C     C_R   0.535753 0.797127 0.508027 0.461166
C116  C     C_R   0.464184 0.797152 0.491886 0.461124
C117  C     C_R   0.499962 0.725909 0.499959 -0.345461
C118  C     C_R   0.999963 0.225909 0.499960 -0.345459
C119  C     C_R   0.999987 0.366123 0.499988 -0.462352
C120  C     C_R   0.499987 0.866123 0.499988 -0.462353
C121  C     C_R   0.036183 0.343074 0.509652 0.399033
C122  C     C_R   0.963779 0.343099 0.490304 0.399092
C123  C     C_R   0.536181 0.843074 0.509648 0.399034
C124  C     C_R   0.463780 0.843100 0.490307 0.399092
C125  C     C_2   0.532800 0.528822 0.747876 0.487342
C126  C     C_2   0.467222 0.528847 0.252142 0.487265
C127  C     C_2   0.032797 0.028825 0.747873 0.487332
C128  C     C_2   0.967223 0.028848 0.252142 0.487265
C129  C     C_2   0.497486 0.512151 0.682604 0.209772
C130  C     C_2   0.502527 0.512151 0.317406 0.209323
C131  C     C_2   0.997485 0.012148 0.682605 0.209785
C132  C     C_2   0.002527 0.012150 0.317406 0.209323
C133  C     C_2   0.530031 0.532673 0.812901 0.308189
C134  C     C_2   0.470024 0.532716 0.187157 0.307843
C135  C     C_2   0.030028 0.032676 0.812898 0.308164
C136  C     C_2   0.970025 0.032716 0.187158 0.307847
H1    H     H_    0.137620 0.436887 0.676076 0.199163
H2    H     H_    0.862825 0.436659 0.324366 0.198078
H3    H     H_    0.637620 0.936888 0.676079 0.199163
H4    H     H_    0.362825 0.936661 0.324362 0.198078
H5    H     H_    0.278184 0.502035 0.687409 0.201773
H6    H     H_    0.720669 0.502529 0.314279 0.192850
H7    H     H_    0.778184 0.002031 0.687409 0.201772
H8    H     H_    0.220669 0.002524 0.314279 0.192849
O1    O     O_R   0.434530 0.536960 0.934530 -0.626546
O2    O     O_R   0.565470 0.536960 0.065470 -0.624096
O3    O     O_R   0.934530 0.036960 0.934530 -0.626545
O4    O     O_R   0.065470 0.036960 0.065470 -0.624098
O5    O     O_R   0.065470 0.500010 0.514410 -0.615491
O6    O     O_R   0.934530 0.500010 0.485590 -0.613907
O7    O     O_R   0.565470 0.000010 0.514410 -0.615492
O8    O     O_R   0.434530 0.000010 0.485590 -0.613906
O9    O     O_R   0.065460 0.500010 0.616540 -0.616784
O10   O     O_R   0.934540 0.500010 0.383460 -0.619187
O11   O     O_R   0.565460 0.000010 0.616540 -0.616784
O12   O     O_R   0.434540 0.000010 0.383460 -0.619188
O13   O     O_R   0.000010 0.565480 0.448930 -0.634432
O14   O     O_R   0.999990 0.565480 0.551070 -0.634366
O15   O     O_R   0.500010 0.065480 0.448930 -0.634432
O16   O     O_R   0.499990 0.065480 0.551070 -0.634367
O17   O     O_R   0.434530 0.463040 0.934530 -0.598893
O18   O     O_R   0.565470 0.463040 0.065470 -0.600659
O19   O     O_R   0.934530 0.963040 0.934530 -0.598890
O20   O     O_R   0.065470 0.963040 0.065470 -0.600657
O21   O     O_R   0.500010 0.536960 0.909550 -0.610475
O22   O     O_R   0.499990 0.536960 0.090450 -0.611017
O23   O     O_R   0.000010 0.036960 0.909550 -0.610473
O24   O     O_R   0.999990 0.036960 0.090450 -0.611016
O25   O     O_R   0.500010 0.463040 0.909550 -0.613211
O26   O     O_R   0.499990 0.463040 0.090450 -0.613577
O27   O     O_R   0.000010 0.963040 0.909550 -0.613212
O28   O     O_R   0.999990 0.963040 0.090450 -0.613576
O29   O     O_R   0.536960 0.434530 0.536970 -0.606700
O30   O     O_R   0.463040 0.434530 0.463030 -0.606645
O31   O     O_R   0.036960 0.934530 0.536970 -0.606698
O32   O     O_R   0.963040 0.934530 0.463030 -0.606648
O33   O     O_R   0.536950 0.500000 0.627420 -0.583665
O34   O     O_R   0.463050 0.500000 0.372580 -0.583429
O35   O     O_R   0.036950 0.000000 0.627420 -0.583659
O36   O     O_R   0.963050 0.000000 0.372580 -0.583432
O37   O     O_R   0.463030 0.500000 0.553490 -0.632477
O38   O     O_R   0.536970 0.500000 0.446510 -0.632643
O39   O     O_R   0.963030 0.000000 0.553490 -0.632477
O40   O     O_R   0.036970 0.000000 0.446510 -0.632642
O41   O     O_R   0.536960 0.565470 0.536960 -0.595869
O42   O     O_R   0.463040 0.565470 0.463040 -0.595696
O43   O     O_R   0.036960 0.065470 0.536960 -0.595866
O44   O     O_R   0.963040 0.065470 0.463040 -0.595698
O45   O     O_R   0.000000 0.434540 0.448940 -0.599360
O46   O     O_R   0.000000 0.434540 0.551060 -0.599696
O47   O     O_R   0.500000 0.934540 0.448940 -0.599359
O48   O     O_R   0.500000 0.934540 0.551060 -0.599695
Zn1   Zn    Zn3+2 0.500000 0.549350 0.000000 1.016569
Zn2   Zn    Zn3+2 1.000000 0.049350 0.000000 1.016570
Zn3   Zn    Zn3+2 0.500000 0.450640 0.000000 1.024649
Zn4   Zn    Zn3+2 1.000000 0.950640 0.000000 1.024651
Zn5   Zn    Zn3+2 0.549360 0.500000 0.549360 1.013879
Zn6   Zn    Zn3+2 0.450640 0.500000 0.450640 1.014355
Zn7   Zn    Zn3+2 0.049360 0.000000 0.549360 1.013887
Zn8   Zn    Zn3+2 0.950640 0.000000 0.450640 1.014351
Zn9   Zn    Zn3+2 0.000010 0.500010 0.431810 0.997343
Zn10  Zn    Zn3+2 0.999990 0.500010 0.568190 0.997507
Zn11  Zn    Zn3+2 0.500010 0.000010 0.431810 0.997345
Zn12  Zn    Zn3+2 0.499990 0.000010 0.568190 0.997509
O49   O     O_3   0.569226 0.544638 0.751227 -0.620229
C137  C     C_3   0.609296 0.533212 0.820297 0.151543
H9    H     H_    0.609265 0.497993 0.835576 0.156501
H10   H     H_    0.615241 0.555204 0.866247 0.201581
C138  C     C_3   0.647363 0.539306 0.812914 -0.720486
H11   H     H_    0.648835 0.574260 0.798777 0.270830
H12   H     H_    0.679149 0.530664 0.866971 0.219875
H13   H     H_    0.642615 0.517481 0.767706 0.247689
O50   O     O_3   0.430782 0.544656 0.248772 -0.620781
C139  C     C_3   0.390721 0.533431 0.179551 0.153082
H14   H     H_    0.390688 0.498261 0.164003 0.157207
H15   H     H_    0.384878 0.555563 0.133821 0.202516
C140  C     C_3   0.352612 0.539489 0.186833 -0.721477
H16   H     H_    0.351201 0.574397 0.201232 0.270772
H17   H     H_    0.320835 0.531004 0.132659 0.220244
H18   H     H_    0.357256 0.517530 0.231820 0.247815
O51   O     O_3   0.069219 0.044649 0.751218 -0.620242
C141  C     C_3   0.109293 0.033242 0.820295 0.151552
H19   H     H_    0.109273 0.998026 0.835596 0.156514
H20   H     H_    0.115230 0.055242 0.866228 0.201581
C142  C     C_3   0.147358 0.039338 0.812910 -0.720536
H21   H     H_    0.148818 0.074287 0.798746 0.270844
H22   H     H_    0.179147 0.030714 0.866973 0.219878
H23   H     H_    0.142619 0.017504 0.767722 0.247695
O52   O     O_3   0.930783 0.044657 0.248773 -0.620781
C143  C     C_3   0.890722 0.033432 0.179553 0.153082
H24   H     H_    0.890688 0.998261 0.164008 0.157205
H25   H     H_    0.884879 0.055562 0.133822 0.202515
C144  C     C_3   0.852613 0.039492 0.186836 -0.721472
H26   H     H_    0.851203 0.074401 0.201234 0.270773
H27   H     H_    0.820836 0.031007 0.132663 0.220243
H28   H     H_    0.857258 0.017534 0.231825 0.247813
O53   O     O_3   0.137105 0.577405 0.593113 -0.679331
H29   H     H_    0.104698 0.573278 0.559168 0.349590
O54   O     O_3   0.862947 0.576597 0.408593 -0.753911
H30   H     H_    0.895467 0.573367 0.439437 0.367437
O55   O     O_3   0.637105 0.077404 0.593110 -0.679329
H31   H     H_    0.604698 0.073277 0.559166 0.349590
O56   O     O_3   0.362946 0.076595 0.408597 -0.753912
H32   H     H_    0.395467 0.073367 0.439439 0.367439
O57   O     O_3   0.221425 0.426252 0.767305 -0.710103
H33   H     H_    0.253678 0.426924 0.791553 0.357450
O58   O     O_3   0.778935 0.424827 0.235522 -0.706807
H34   H     H_    0.746917 0.424949 0.213394 0.349995
O59   O     O_3   0.721425 0.926253 0.767309 -0.710105
H35   H     H_    0.753678 0.926925 0.791558 0.357449
O60   O     O_3   0.278936 0.924829 0.235516 -0.706808
H36   H     H_    0.246917 0.924950 0.213387 0.349995
O61   O     O_3   0.071626 0.276300 0.516212 -0.662619
H37   H     H_    0.067836 0.243854 0.512742 0.345950
O62   O     O_3   0.928305 0.276349 0.483686 -0.662340
H38   H     H_    0.932066 0.243898 0.487078 0.346075
O63   O     O_3   0.571622 0.776300 0.516203 -0.662619
H39   H     H_    0.567831 0.743854 0.512731 0.345950
O64   O     O_3   0.428306 0.776349 0.483694 -0.662341
H40   H     H_    0.432067 0.743899 0.487085 0.346075
O65   O     O_3   0.476684 0.274800 0.370048 -0.516136
C145  C     C_3   0.514652 0.263738 0.373009 0.121778
H41   H     H_    0.534112 0.237673 0.415981 0.096209
H42   H     H_    0.536024 0.293205 0.385687 0.151420
C146  C     C_3   0.500194 0.245313 0.296940 -0.749223
H43   H     H_    0.480810 0.270568 0.252312 0.275133
H44   H     H_    0.529756 0.236143 0.298553 0.201500
H45   H     H_    0.479381 0.215418 0.283299 0.238533
O66   O     O_3   0.523343 0.274791 0.629980 -0.515919
C147  C     C_3   0.485370 0.263748 0.627008 0.121760
H46   H     H_    0.465886 0.237721 0.583986 0.095313
H47   H     H_    0.464024 0.293235 0.614392 0.151339
C148  C     C_3   0.499820 0.245266 0.703044 -0.750495
H48   H     H_    0.519228 0.270483 0.747720 0.275420
H49   H     H_    0.470254 0.236114 0.701422 0.200771
H50   H     H_    0.520608 0.215352 0.716620 0.238442
O67   O     O_3   0.976687 0.774800 0.370049 -0.516135
C149  C     C_3   0.014656 0.763738 0.373012 0.121780
H51   H     H_    0.034116 0.737673 0.415985 0.096210
H52   H     H_    0.036028 0.793205 0.385693 0.151418
C150  C     C_3   0.000200 0.745313 0.296944 -0.749221
H53   H     H_    0.980817 0.770569 0.252317 0.275132
H54   H     H_    0.029762 0.736144 0.298560 0.201498
H55   H     H_    0.979386 0.715419 0.283301 0.238534
O68   O     O_3   0.023342 0.774790 0.629978 -0.515919
C151  C     C_3   0.985368 0.763748 0.627004 0.121757
H56   H     H_    0.965884 0.737721 0.583981 0.095313
H57   H     H_    0.964021 0.793234 0.614388 0.151340
C152  C     C_3   0.999817 0.745265 0.703039 -0.750496
H58   H     H_    0.019224 0.770481 0.747716 0.275421
H59   H     H_    0.970250 0.736113 0.701415 0.200772
H60   H     H_    0.020605 0.715350 0.716615 0.238442
O69   O     O_3   0.477073 0.363776 0.368504 -0.699678
H61   H     H_    0.481313 0.396098 0.375688 0.338757
O70   O     O_3   0.522953 0.363767 0.631521 -0.699712
H62   H     H_    0.518721 0.396092 0.624340 0.338766
O71   O     O_3   0.977075 0.863776 0.368505 -0.699678
H63   H     H_    0.981315 0.896099 0.375689 0.338757
O72   O     O_3   0.022951 0.863767 0.631519 -0.699710
H64   H     H_    0.018719 0.896092 0.624338 0.338765
O73   O     O_3   0.077027 0.724888 0.608665 -0.551911
C153  C     C_3   0.103819 0.730451 0.582574 0.125236
H65   H     H_    0.090453 0.757634 0.540452 0.105867
H66   H     H_    0.106364 0.699567 0.557209 0.166447
C154  C     C_3   0.150263 0.743234 0.648655 -0.712804
H67   H     H_    0.164653 0.716563 0.691735 0.266576
H68   H     H_    0.171660 0.748230 0.628856 0.203647
H69   H     H_    0.149184 0.774416 0.674535 0.258770
O74   O     O_3   0.922993 0.724940 0.391415 -0.550372
C155  C     C_3   0.896199 0.730461 0.417515 0.124079
H70   H     H_    0.909490 0.757705 0.459507 0.108152
H71   H     H_    0.893761 0.699596 0.443047 0.159239
C156  C     C_3   0.849704 0.743087 0.351398 -0.729736
H72   H     H_    0.835392 0.716346 0.308455 0.262946
H73   H     H_    0.828308 0.748057 0.371204 0.201342
H74   H     H_    0.850668 0.774247 0.325345 0.263209
O75   O     O_3   0.577027 0.224889 0.608663 -0.551910
C157  C     C_3   0.603818 0.230452 0.582570 0.125235
H75   H     H_    0.590451 0.257635 0.540447 0.105866
H76   H     H_    0.606362 0.199568 0.557205 0.166447
C158  C     C_3   0.650262 0.243235 0.648649 -0.712804
H77   H     H_    0.664653 0.216564 0.691730 0.266575
H78   H     H_    0.671658 0.248231 0.628849 0.203646
H79   H     H_    0.649184 0.274417 0.674530 0.258769
O76   O     O_3   0.422992 0.224940 0.391419 -0.550373
C159  C     C_3   0.396199 0.230459 0.417521 0.124079
H80   H     H_    0.409490 0.257705 0.459513 0.108154
H81   H     H_    0.393763 0.199595 0.443055 0.159237
C160  C     C_3   0.349703 0.243084 0.351405 -0.729734
H82   H     H_    0.335391 0.216342 0.308464 0.262945
H83   H     H_    0.328308 0.248054 0.371214 0.201341
H84   H     H_    0.350665 0.274245 0.325351 0.263207
O77   O     O_3   0.075293 0.633241 0.611435 -0.581725
C161  C     C_3   0.079022 0.633734 0.679757 0.159099
H85   H     H_    0.048761 0.619891 0.672020 0.135081
H86   H     H_    0.084656 0.667892 0.702678 0.188261
C162  C     C_3   0.118409 0.605448 0.737422 -0.771067
H87   H     H_    0.149165 0.618389 0.746290 0.274057
H88   H     H_    0.122223 0.606088 0.791911 0.203867
H89   H     H_    0.113240 0.570742 0.717322 0.258321
O78   O     O_3   0.924668 0.633302 0.388698 -0.586849
C163  C     C_3   0.920854 0.633714 0.320306 0.155842
H90   H     H_    0.951044 0.619733 0.327940 0.136981
H91   H     H_    0.915300 0.667864 0.297374 0.188899
C164  C     C_3   0.881355 0.605530 0.262734 -0.772037
H92   H     H_    0.850664 0.618647 0.253916 0.269817
H93   H     H_    0.877501 0.606052 0.208208 0.205479
H94   H     H_    0.886411 0.570845 0.282901 0.260659
O79   O     O_3   0.575294 0.133241 0.611433 -0.581725
C165  C     C_3   0.579024 0.133733 0.679755 0.159097
H95   H     H_    0.548763 0.119889 0.672020 0.135082
H96   H     H_    0.584657 0.167892 0.702677 0.188259
C166  C     C_3   0.618412 0.105449 0.737421 -0.771063
H97   H     H_    0.649167 0.118391 0.746288 0.274057
H98   H     H_    0.622226 0.106089 0.791911 0.203867
H99   H     H_    0.613244 0.070743 0.717322 0.258318
O80   O     O_3   0.424667 0.133302 0.388700 -0.586852
C167  C     C_3   0.420852 0.133714 0.320307 0.155840
H100  H     H_    0.451041 0.119734 0.327939 0.136981
H101  H     H_    0.415297 0.167865 0.297375 0.188901
C168  C     C_3   0.381353 0.105530 0.262736 -0.772042
H102  H     H_    0.350662 0.118646 0.253922 0.269818
H103  H     H_    0.377497 0.106053 0.208209 0.205480
H104  H     H_    0.386410 0.070845 0.282903 0.260657
O81   O     O_3   0.072988 0.363955 0.521446 -0.667339
H105  H     H_    0.074358 0.395052 0.536678 0.327315
O82   O     O_3   0.926984 0.364004 0.478528 -0.667422
H106  H     H_    0.925639 0.395112 0.463361 0.326754
O83   O     O_3   0.572986 0.863954 0.521438 -0.667338
H107  H     H_    0.574357 0.895050 0.536674 0.327317
O84   O     O_3   0.426986 0.864005 0.478535 -0.667421
H108  H     H_    0.425640 0.895112 0.463364 0.326756
O85   O     O_3   0.539949 0.723673 0.638246 -0.659035
H109  H     H_    0.539281 0.756141 0.632676 0.347184
O86   O     O_3   0.459972 0.723669 0.361673 -0.659211
H110  H     H_    0.460596 0.756136 0.367221 0.347221
O87   O     O_3   0.039947 0.223673 0.638246 -0.659038
H111  H     H_    0.039279 0.256141 0.632676 0.347184
O88   O     O_3   0.959978 0.223669 0.361675 -0.659210
H112  H     H_    0.960603 0.256136 0.367223 0.347221
O89   O     O_3   0.458003 0.505737 0.675104 -0.787121
H113  H     H_    0.436964 0.489012 0.628320 0.359837
O90   O     O_3   0.542014 0.505722 0.324910 -0.786176
H114  H     H_    0.563055 0.488997 0.371704 0.360049
O91   O     O_3   0.958005 0.005725 0.675107 -0.787120
H115  H     H_    0.936968 0.988996 0.628325 0.359832
O92   O     O_3   0.042014 0.005719 0.324910 -0.786176
H116  H     H_    0.063054 0.988993 0.371702 0.360048
O93   O     O_3   0.537248 0.636019 0.637401 -0.645087
H117  H     H_    0.526658 0.605143 0.629413 0.344529
O94   O     O_3   0.462721 0.636015 0.362565 -0.645305
H118  H     H_    0.473332 0.605142 0.370571 0.344481
O95   O     O_3   0.037244 0.136019 0.637400 -0.645086
H119  H     H_    0.026653 0.105143 0.629410 0.344532
O96   O     O_3   0.962725 0.136015 0.362566 -0.645305
H120  H     H_    0.973333 0.105142 0.370572 0.344482
O97   O     O_3   0.541833 0.572515 0.850954 -0.736302
H121  H     H_    0.557911 0.566072 0.905472 0.337085
O98   O     O_3   0.458350 0.572608 0.149257 -0.737370
H122  H     H_    0.442233 0.566236 0.094713 0.337904
O99   O     O_3   0.041821 0.072521 0.850940 -0.736314
H123  H     H_    0.057903 0.066082 0.905461 0.337085
O100  O     O_3   0.958351 0.072609 0.149259 -0.737365
H124  H     H_    0.942234 0.066237 0.094715 0.337906
O101  O     O_3   0.513523 0.456641 0.798894 -0.759050
H125  H     H_    0.496942 0.434950 0.807639 0.376213
O102  O     O_3   0.486422 0.456654 0.201050 -0.759093
H126  H     H_    0.502962 0.434929 0.192259 0.376109
O103  O     O_3   0.013536 0.956640 0.798909 -0.759040
H127  H     H_    0.996961 0.934945 0.807660 0.376214
O104  O     O_3   0.986420 0.956654 0.201047 -0.759093
H128  H     H_    0.002959 0.934928 0.192256 0.376110
O105  O     O_3   0.277402 0.504845 0.898496 -0.692449
H129  H     H_    0.245565 0.511583 0.862040 0.336248
O106  O     O_3   0.723886 0.502077 0.105580 -0.688266
H130  H     H_    0.755517 0.509549 0.142278 0.336580
O107  O     O_3   0.777401 0.004850 0.898496 -0.692449
H131  H     H_    0.745565 0.011587 0.862039 0.336248
O108  O     O_3   0.223886 0.002082 0.105579 -0.688264
H132  H     H_    0.255517 0.009553 0.142278 0.336579
O109  O     O_3   0.365839 0.499188 0.983658 -0.723570
H133  H     H_    0.398036 0.495608 0.009115 0.299723
O110  O     O_3   0.635382 0.497383 0.018569 -0.718676
H134  H     H_    0.603001 0.495114 0.992296 0.299688
O111  O     O_3   0.865839 0.999193 0.983658 -0.723572
H135  H     H_    0.898036 0.995612 0.009115 0.299723
O112  O     O_3   0.135382 0.997389 0.018569 -0.718667
H136  H     H_    0.103001 0.995121 0.992296 0.299688
O113  O     O_3   0.364683 0.503867 0.758331 -0.591912
C169  C     C_3   0.361892 0.547199 0.731562 0.050300
H137  H     H_    0.374232 0.572079 0.777488 0.158266
H138  H     H_    0.327173 0.555389 0.684345 0.156702
C170  C     C_3   0.390380 0.550416 0.702338 -0.652354
H139  H     H_    0.378828 0.526176 0.656128 0.266186
H140  H     H_    0.388051 0.584229 0.680388 0.207907
H141  H     H_    0.425460 0.543494 0.748696 0.275219
O114  O     O_3   0.634117 0.505474 0.241338 -0.596345
C171  C     C_3   0.636819 0.549149 0.266799 0.067127
H142  H     H_    0.624374 0.573466 0.220065 0.164007
H143  H     H_    0.671522 0.557641 0.313707 0.159803
C172  C     C_3   0.608387 0.553140 0.296053 -0.664295
H144  H     H_    0.620121 0.529518 0.343145 0.267350
H145  H     H_    0.610578 0.587265 0.316819 0.208105
H146  H     H_    0.573321 0.545869 0.250061 0.277003
O115  O     O_3   0.864683 0.003862 0.758330 -0.591910
C173  C     C_3   0.861892 0.047193 0.731558 0.050299
H147  H     H_    0.874231 0.072074 0.777481 0.158266
H148  H     H_    0.827172 0.055382 0.684340 0.156702
C174  C     C_3   0.890380 0.050408 0.702333 -0.652349
H149  H     H_    0.878828 0.026166 0.656125 0.266186
H150  H     H_    0.888051 0.084219 0.680379 0.207906
H151  H     H_    0.925460 0.043486 0.748692 0.275219
O116  O     O_3   0.134118 0.005470 0.241338 -0.596345
C175  C     C_3   0.136821 0.049143 0.266805 0.067124
H152  H     H_    0.124378 0.073463 0.220075 0.164006
H153  H     H_    0.171524 0.057633 0.313715 0.159804
C176  C     C_3   0.108389 0.053133 0.296058 -0.664297
H154  H     H_    0.120120 0.029509 0.343145 0.267353
H155  H     H_    0.110581 0.087258 0.316829 0.208106
H156  H     H_    0.073322 0.045866 0.250063 0.277002
O117  O     O_3   0.224805 0.579376 0.691960 -0.706659
H157  H     H_    0.255197 0.579778 0.738832 0.334588
O118  O     O_3   0.770385 0.574649 0.308219 -0.758023
H158  H     H_    0.789578 0.599074 0.341488 0.385324
O119  O     O_3   0.724805 0.079375 0.691956 -0.706658
H159  H     H_    0.755197 0.079777 0.738828 0.334588
O120  O     O_3   0.270384 0.074647 0.308224 -0.758024
H160  H     H_    0.289577 0.099072 0.341494 0.385325

loop_
_geom_bond_atom_site_label_1
_geom_bond_atom_site_label_2
_ccdc_geom_bond_type
O112  H136  S    
C145  H42   S    
O80   C167  S    
C93   O75   S    
O111  H135  S    
O22   Zn1   S    
C9    O105  S    
C162  H89   S    
C162  H87   S    
C70   O48   A    
O73   C153  S    
C150  H55   S    
C77   C89   A    
O105  H129  S    
C77   O65   S    
C24   O116  S    
O9    Zn10  S    
C132  O92   S    
C55   C59   A    
O26   Zn3   S    
C86   C88   A    
C86   O72   S    
C4    O4    A    
C96   C99   A    
C142  H23   S    
C167  C168  S    
C176  H154  S    
C31   C59   S    
C9    C13   A    
C79   C90   A    
C80   C86   A    
C173  C174  S    
C11   C15   A    
C12   C16   A    
C68   O43   A    
C174  H150  S    
C27   H7    S    
C55   O59   S    
C3    C19   S    
C159  H80   S    
C28   H8    S    
C116  C124  A    
C133  O97   S    
C151  C152  S    
C75   O13   A    
O57   H33   S    
C106  C118  A    
C124  O84   S    
C103  C117  A    
O47   Zn11  S    
C41   C49   A    
C166  H98   S    
C78   C89   A    
C25   C29   A    
C168  H104  S    
C155  H71   S    
C115  C123  A    
C36   O120  S    
C27   C31   A    
O118  H158  S    
C28   C32   A    
C66   O36   A    
C163  H90   S    
C172  H146  S    
O77   C161  S    
C62   C88   S    
C10   O106  S    
C69   C119  S    
C17   C21   A    
C93   C102  A    
C19   C23   A    
O52   C143  S    
C126  O50   S    
C10   C30   A    
C123  O83   S    
C16   C20   A    
C170  H141  S    
C130  O90   S    
C73   O11   A    
C159  C160  S    
C42   C72   S    
O48   Zn12  S    
C74   O12   A    
C54   O58   S    
C164  H94   S    
C143  H25   S    
C115  O63   S    
O89   H113  S    
C176  H156  S    
C147  H47   S    
C105  C118  A    
O28   Zn4   S    
O90   H114  S    
C79   C85   A    
O10   Zn9   S    
C109  O95   S    
C104  C117  A    
O49   C137  S    
C173  H148  S    
C157  C158  S    
C135  O99   S    
C163  C164  S    
C47   O27   A    
O86   H110  S    
C50   H2    S    
C76   C100  S    
O95   H119  S    
C108  C111  A    
C14   O110  S    
O101  H125  S    
C151  H57   S    
C161  C162  S    
O19   Zn4   S    
C49   C53   A    
C62   O31   A    
C125  O49   S    
C95   C99   A    
C165  H95   S    
C169  H138  S    
C4    C20   S    
C125  C129  D    
C126  C134  S    
C53   O57   S    
O88   H112  S    
C158  H77   S    
O76   C159  S    
C34   C58   A    
C126  C130  D    
C103  C107  A    
O41   Zn5   S    
O103  H127  S    
O81   H105  S    
C138  H13   S    
C67   O41   A    
C43   C73   S    
C3    O3    A    
O79   C165  S    
C63   O37   A    
C49   H1    S    
C1    O1    A    
O108  H132  S    
C2    O18   A    
O99   H123  S    
O25   Zn3   S    
C84   O70   S    
O117  H157  S    
C5    C133  D    
O59   H35   S    
O51   C141  S    
C82   C115  A    
O61   H37   S    
C139  H15   S    
C156  H73   S    
O44   Zn8   S    
O98   H122  S    
C56   O60   S    
C92   C96   A    
O63   H39   S    
C68   C112  S    
C78   O66   S    
C157  H76   S    
C61   C87   S    
C37   O53   S    
C85   O71   S    
O120  H160  S    
C70   C120  S    
C154  H68   S    
O18   Zn3   S    
C175  H152  S    
C98   O80   S    
C144  H26   S    
C51   C55   A    
C41   C71   S    
C64   O38   A    
O40   Zn7   S    
C35   O119  S    
C107  O93   S    
O33   Zn5   S    
O67   C149  S    
C160  H83   S    
O115  C173  S    
O38   Zn5   S    
C91   C101  A    
O119  H159  S    
C127  C131  D    
C92   O74   S    
C119  C121  A    
C153  H66   S    
O29   Zn5   S    
C10   C14   A    
C161  H85   S    
O46   Zn10  S    
C141  C142  S    
C140  H16   S    
C46   O26   A    
C167  H101  S    
O69   H61   S    
O36   Zn8   S    
C158  H79   S    
C175  C176  S    
C75   C99   S    
C138  H11   S    
C141  H20   S    
C146  H44   S    
O31   Zn7   S    
C116  O64   S    
C42   C50   A    
C64   C130  S    
C26   C30   A    
C72   O6    A    
O13   Zn9   S    
C93   C97   A    
C97   C100  A    
C15   O111  S    
C85   C88   A    
C105  C109  A    
C138  H12   S    
C18   C22   A    
C107  C111  A    
O42   Zn6   S    
C96   O78   S    
C24   C28   A    
C45   O25   A    
C106  O88   S    
O20   Zn4   S    
C145  H41   S    
C150  H54   S    
C1    C17   S    
O39   Zn8   S    
C13   C17   A    
O97   H121  S    
C103  O85   S    
C142  H22   S    
C37   C41   A    
C144  H28   S    
C110  C112  A    
C91   C95   A    
C40   C44   A    
C113  C121  A    
C68   O44   A    
C174  H149  S    
C149  H51   S    
C159  H81   S    
O12   Zn11  S    
O114  C171  S    
O11   Zn12  S    
C39   O55   S    
C51   H3    S    
C83   C87   A    
C76   O15   A    
C128  O52   S    
C8    C136  D    
O54   H30   S    
C7    O103  S    
C145  C146  S    
C166  H97   S    
C105  O87   S    
O60   H36   S    
O50   C139  S    
C140  H18   S    
C15   C19   A    
C114  O62   S    
C168  H103  S    
C50   C54   A    
C127  C135  S    
C128  C136  S    
C65   O39   A    
C137  H10   S    
C172  H145  S    
C94   C98   A    
C125  C133  S    
O56   H32   S    
C23   O115  S    
C152  H60   S    
O17   Zn3   S    
O3    Zn2   S    
C35   C59   A    
C160  H82   S    
C171  H142  S    
C21   C25   A    
C13   O109  S    
O82   H106  S    
C170  H140  S    
C149  C150  S    
C34   O118  S    
C164  H93   S    
O1    Zn1   S    
C120  C123  A    
C3    O19   A    
C1    O17   A    
O66   C147  S    
C176  H155  S    
C147  C148  S    
O116  C175  S    
O32   Zn8   S    
C162  H88   S    
C70   O47   A    
C136  O100  S    
C113  O61   S    
C61   O30   A    
C72   O10   A    
O70   H62   S    
C53   C57   A    
C65   O35   A    
C165  C166  S    
O113  C169  S    
C5    C45   S    
C81   C118  S    
C33   C37   A    
C56   C60   A    
O43   Zn7   S    
C171  C172  S    
C7    C47   S    
C69   O46   A    
C35   C39   A    
O72   H64   S    
C8    C48   S    
O68   C151  S    
C64   O34   A    
C148  H50   S    
C94   O76   S    
C62   O32   A    
O2    Zn1   S    
C165  H96   S    
C169  C170  S    
C33   O117  S    
C92   C101  A    
C75   O14   A    
O4    Zn2   S    
C29   C57   S    
C22   O114  S    
C98   C100  A    
C54   C58   A    
C2    O2    A    
O6    Zn10  S    
C104  C108  A    
C166  H99   S    
C5    O101  S    
O91   H115  S    
C155  H70   S    
C46   O22   A    
C134  O98   S    
C137  H9    S    
C25   H5    S    
O27   Zn4   S    
O84   H108  S    
O16   Zn12  S    
O96   H120  S    
C122  O82   S    
C82   C116  A    
C131  O91   S    
C160  H84   S    
C43   C51   A    
C156  H72   S    
C71   O5    A    
O35   Zn7   S    
C52   H4    S    
C63   C129  S    
O109  H133  S    
C143  H24   S    
C40   O56   S    
C154  H67   S    
C22   C26   A    
C81   C113  A    
O104  H128  S    
O65   C145  S    
C147  H46   S    
O8    Zn12  S    
C175  H153  S    
C82   C117  S    
C45   O21   A    
C155  C156  S    
C173  H147  S    
C89   C102  S    
C2    C18   S    
O71   H63   S    
C14   C18   A    
O100  H124  S    
C84   C87   A    
O107  H131  S    
O94   H118  S    
O74   C155  S    
C153  C154  S    
C80   O68   S    
C121  O81   S    
C6    O102  S    
O78   C163  S    
C97   O79   S    
C38   C42   A    
C21   O113  S    
C151  H56   S    
C161  H86   S    
C77   C83   A    
C71   O9    A    
O62   H38   S    
O55   H31   S    
C143  C144  S    
C169  H137  S    
C148  H49   S    
C38   O54   S    
C48   O28   A    
C163  H91   S    
C20   C24   A    
C158  H78   S    
O102  H126  S    
C4    O20   A    
C23   C27   A    
C146  H43   S    
C67   O42   A    
C9    C29   A    
C174  H151  S    
O34   Zn6   S    
C11   C31   A    
O24   Zn2   S    
C12   C32   A    
C12   O108  S    
C16   O112  S    
C74   O8    A    
O75   C157  S    
O92   H116  S    
O37   Zn6   S    
C128  C132  D    
C65   C131  S    
C129  O89   S    
C66   C132  S    
O30   Zn6   S    
C36   C40   A    
C61   O29   A    
C109  C112  A    
C69   O45   A    
O110  H134  S    
C139  H14   S    
C156  H74   S    
C39   C43   A    
O45   Zn9   S    
C150  H53   S    
C81   C114  A    
C44   C74   S    
C90   C101  S    
C7    C135  D    
C157  H75   S    
C78   C84   A    
C47   O23   A    
O15   Zn11  S    
O106  H130  S    
C48   O24   A    
C79   O67   S    
C154  H69   S    
C142  H21   S    
C144  H27   S    
C91   O73   S    
O87   H111  S    
C110  O96   S    
O14   Zn10  S    
O23   Zn2   S    
C149  H52   S    
O64   H40   S    
O5    Zn9   S    
C11   O107  S    
C152  H58   S    
O83   H107  S    
C106  C110  A    
C119  C122  A    
C67   C111  S    
C8    O104  S    
C66   O40   A    
C153  H65   S    
C76   O16   A    
C33   C57   A    
C6    C46   S    
C34   C38   A    
O7    Zn11  S    
C36   C60   A    
C139  C140  S    
O21   Zn1   S    
C95   O77   S    
O58   H34   S    
C140  H17   S    
C168  H102  S    
C63   O33   A    
C104  O86   S    
C6    C134  D    
C26   H6    S    
O85   H109  S    
C83   O69   S    
C137  C138  S    
C44   C52   A    
C172  H144  S    
O93   H117  S    
C30   C58   S    
C152  H59   S    
C80   C90   A    
C167  H100  S    
C141  H19   S    
C146  H45   S    
C171  H143  S    
C127  O51   S    
C114  C122  A    
C120  C124  A    
C108  O94   S    
C170  H139  S    
C32   C60   S    
C164  H92   S    
O53   H29   S    
C73   O7    A    
C52   C56   A    
C94   C102  A    
C148  H48   S    
