data_mof_unit_52544.cif
_audit_creation_date              2012-12-10T19:49:27-0500
_audit_creation_method            fapswitch 2.2
_symmetry_space_group_name_H-M    P1
_symmetry_Int_Tables_number       1
_space_group_crystal_system       triclinic
_cell_length_a                    14.995904
_cell_length_b                    14.101133
_cell_length_c                    14.997215
_cell_angle_alpha                 90.694283
_cell_angle_beta                  90.065912
_cell_angle_gamma                 90.006211
_cell_volume                      3171.06469034

loop_
_atom_site_label
_atom_site_type_symbol
_atom_type_description
_atom_site_fract_x
_atom_site_fract_y
_atom_site_fract_z
_atom_type_partial_charge
C1    C     C_R   0.327768 0.499943 0.499348 0.869829
C2    C     C_R   0.813045 0.414378 0.473070 -0.201433
C3    C     C_R   0.815646 0.584662 0.500928 -0.198523
C4    C     C_R   0.184763 0.424785 0.531554 -0.196773
C5    C     C_R   0.232365 0.499452 0.493967 -0.007476
C6    C     C_R   0.768365 0.499598 0.491463 -0.022056
C7    C     C_R   0.048812 0.496750 0.480746 0.116996
C8    C     C_R   0.952332 0.498457 0.479340 0.120752
C9    C     C_R   0.573258 0.103523 0.465487 0.367172
C10   C     C_R   0.549576 0.897069 0.564378 0.375721
C11   C     C_R   0.426381 0.104371 0.533869 0.373071
C12   C     C_R   0.672503 0.499947 0.498405 0.850607
C13   C     C_R   0.450334 0.895157 0.435172 0.374343
C14   C     C_R   0.570080 0.204073 0.464063 -0.184518
C15   C     C_R   0.546613 0.796094 0.563509 -0.175408
C16   C     C_R   0.429938 0.204994 0.535968 -0.178488
C17   C     C_R   0.453247 0.794259 0.436398 -0.168272
C18   C     C_R   0.499805 0.053235 0.499601 0.070881
C19   C     C_R   0.499924 0.946444 0.499692 0.077601
C20   C     C_R   0.498424 0.499179 0.326477 0.935928
C21   C     C_R   0.501073 0.500662 0.673241 0.918158
C22   C     C_R   0.552684 0.569764 0.815465 0.418551
C23   C     C_R   0.387823 0.368259 0.040358 0.541336
C24   C     C_R   0.450306 0.425474 0.183533 0.432840
C25   C     C_R   0.501282 0.502485 0.768622 -0.197099
C26   C     C_R   0.496196 0.497466 0.230593 -0.206345
C27   C     C_R   0.447560 0.437713 0.812188 -0.289872
C28   C     C_R   0.540476 0.569642 0.186623 -0.300091
C29   C     C_R   0.444018 0.438188 0.904110 0.093005
C30   C     C_R   0.540923 0.571502 0.094811 0.082668
C31   C     C_R   0.494231 0.505267 0.952976 -0.043489
C32   C     C_R   0.492277 0.502874 0.045971 -0.042445
C33   C     C_R   0.546749 0.574210 0.908770 -0.105712
C34   C     C_R   0.591691 0.644959 0.959177 0.533178
C35   C     C_R   0.442655 0.431547 0.090184 -0.103833
C36   C     C_R   0.389098 0.373424 0.947008 -0.329538
C37   C     C_R   0.589343 0.641835 0.051764 -0.312645
C38   C     C_3   0.690832 0.587883 0.755699 0.172465
C39   C     C_3   0.756205 0.661059 0.721050 -0.825498
C40   C     C_3   0.465000 0.272198 0.227994 0.161241
C41   C     C_3   0.419320 0.192408 0.277752 -0.743490
C42   C     C_3   0.319277 0.219790 0.044208 -0.320486
C43   C     C_3   0.591205 0.798409 0.915861 -0.265520
C44   C     C_3   0.726683 0.088349 0.456451 0.122015
C45   C     C_R   0.096971 0.570250 0.441322 -0.175562
C46   C     C_3   0.796781 0.011130 0.445829 -0.824025
C47   C     C_3   0.666622 0.902916 0.668385 0.097390
C48   C     C_3   0.724735 0.974025 0.718542 -0.833544
C49   C     C_3   0.272693 0.091426 0.544263 0.119574
C50   C     C_3   0.201596 0.015342 0.553835 -0.819485
C51   C     C_3   0.331837 0.898970 0.332991 0.112345
C52   C     C_3   0.273636 0.969584 0.283883 -0.842153
C53   C     C_R   0.904830 0.414008 0.466180 -0.180560
C54   C     C_R   0.907518 0.583907 0.496094 -0.182672
C55   C     C_R   0.092916 0.423938 0.525772 -0.174997
C56   C     C_R   0.188743 0.572138 0.448778 -0.183261
H1    H     H_    0.407851 0.387177 0.774011 0.167207
H2    H     H_    0.777282 0.348231 0.463716 0.138999
H3    H     H_    0.781961 0.651404 0.513339 0.151797
H4    H     H_    0.218442 0.368412 0.566731 0.131444
H5    H     H_    0.623329 0.243953 0.433812 0.139052
H6    H     H_    0.580770 0.755131 0.613311 0.171612
H7    H     H_    0.376703 0.245755 0.566103 0.142736
H8    H     H_    0.418811 0.751982 0.386728 0.137437
H9    H     H_    0.685065 0.529576 0.705350 0.106931
H10   H     H_    0.718696 0.558865 0.818750 0.139584
H11   H     H_    0.765888 0.718457 0.771491 0.272276
H12   H     H_    0.576829 0.623358 0.224313 0.177140
H13   H     H_    0.821492 0.626932 0.706929 0.210350
H14   H     H_    0.730092 0.692387 0.658828 0.226621
H15   H     H_    0.530238 0.287060 0.260758 0.128361
H16   H     H_    0.478169 0.247332 0.158558 0.121369
H17   H     H_    0.356206 0.172650 0.243735 0.249828
H18   H     H_    0.463595 0.129363 0.280047 0.223731
H19   H     H_    0.403469 0.215738 0.346768 0.254836
H20   H     H_    0.384718 0.191073 0.021399 0.140105
H21   H     H_    0.270526 0.221414 0.988471 0.167918
H22   H     H_    0.292489 0.170001 0.094172 0.189233
H23   H     H_    0.346600 0.327641 0.907063 0.150689
H24   H     H_    0.573349 0.824572 0.983846 0.142858
H25   H     H_    0.530029 0.787998 0.874748 0.178541
H26   H     H_    0.631827 0.854294 0.884028 0.184675
H27   H     H_    0.725876 0.111150 0.527942 0.141137
H28   H     H_    0.746555 0.149085 0.414280 0.126186
H29   H     H_    0.801395 0.988370 0.374827 0.258213
H30   H     H_    0.862746 0.038480 0.467936 0.197719
H31   H     H_    0.778799 0.949040 0.486922 0.253360
H32   H     H_    0.641627 0.850761 0.717387 0.175506
H33   H     H_    0.708862 0.866862 0.617165 0.127786
H34   H     H_    0.626244 0.694552 0.089996 0.164712
H35   H     H_    0.684839 0.011376 0.770499 0.256823
H36   H     H_    0.780878 0.936510 0.751157 0.209294
H37   H     H_    0.752226 0.026839 0.671661 0.250929
H38   H     H_    0.272869 0.114594 0.473394 0.138597
H39   H     H_    0.254271 0.152207 0.588400 0.128520
H40   H     H_    0.197751 0.992215 0.624257 0.258184
H41   H     H_    0.135723 0.043950 0.533570 0.197809
H42   H     H_    0.217935 0.953234 0.510717 0.254024
H43   H     H_    0.354468 0.844622 0.283667 0.142365
H44   H     H_    0.290421 0.865381 0.385571 0.129046
H45   H     H_    0.063649 0.626116 0.405209 0.130084
H46   H     H_    0.311740 0.001445 0.228311 0.249653
H47   H     H_    0.214121 0.932882 0.256004 0.208213
H48   H     H_    0.251258 0.026687 0.330275 0.254994
H49   H     H_    0.938735 0.347805 0.451528 0.128553
H50   H     H_    0.943487 0.649557 0.507555 0.131240
H51   H     H_    0.056387 0.367706 0.558074 0.126805
H52   H     H_    0.225647 0.629268 0.418213 0.139947
N1    N     N_R   0.500000 0.252470 0.500000 -0.113987
N2    N     N_R   0.500000 0.747530 0.500000 -0.113967
O1    O     O_R   0.369060 0.579480 0.500010 -0.623537
O2    O     O_3   0.409155 0.353172 0.229831 -0.551891
O3    O     O_3   0.327164 0.310493 0.084597 -0.553077
O4    O     O_3   0.642198 0.714513 0.919139 -0.583507
O5    O     O_3   0.643260 0.052319 0.427983 -0.602982
O6    O     O_3   0.594306 0.951109 0.629028 -0.602261
O7    O     O_3   0.355993 0.053934 0.570549 -0.598221
O8    O     O_3   0.406085 0.947075 0.369917 -0.610683
O9    O     O_R   0.630940 0.420520 0.499990 -0.634667
O10   O     O_R   0.630940 0.579480 0.499990 -0.620027
O11   O     O_R   0.369060 0.420520 0.500010 -0.621287
O12   O     O_R   0.499980 0.579490 0.367850 -0.630974
O13   O     O_R   0.500020 0.420510 0.632150 -0.624572
O14   O     O_R   0.500020 0.579490 0.632150 -0.578064
O15   O     O_R   0.499980 0.420510 0.367850 -0.593081
O16   O     O_3   0.607138 0.631668 0.769575 -0.585516
Zn1   Zn    Zn3+2 0.500000 0.606140 0.500000 0.963025
Zn2   Zn    Zn3+2 0.500000 0.393860 0.500000 0.951851

loop_
_geom_bond_atom_site_label_1
_geom_bond_atom_site_label_2
_ccdc_geom_bond_type
C14   N1    A    
C11   C18   A    
C40   H15   S    
C27   C29   A    
C34   C37   A    
C5    C56   A    
C24   O2    S    
C7    C55   A    
C44   H27   S    
C17   N2    A    
C13   O8    S    
O10   Zn1   S    
C7    C8    S    
C52   H47   S    
C29   C36   A    
C52   H46   S    
C37   H34   S    
C1    C5    S    
C7    C45   A    
C28   H12   S    
C24   C26   A    
C10   C15   A    
C43   O4    S    
C6    C12   S    
C38   C39   S    
C3    C54   A    
C22   O16   S    
C41   H19   S    
C23   C36   A    
C51   O8    S    
C18   C19   S    
O12   Zn1   S    
C56   H52   S    
N1    Zn2   S    
C41   H18   S    
C12   O10   A    
C15   H6    S    
C49   O7    S    
C38   H10   S    
C45   C56   A    
C22   C25   A    
O15   Zn2   S    
C31   C33   A    
C16   H7    S    
C49   H38   S    
C20   O12   A    
N2    Zn1   S    
C46   H29   S    
O9    Zn2   S    
C3    C6    A    
C47   H33   S    
C15   N2    A    
C2    C6    A    
C26   C28   A    
C38   O16   S    
C44   C46   S    
C16   N1    A    
C51   H43   S    
C47   O6    S    
C50   H42   S    
C24   C35   A    
C48   H37   S    
C54   H50   S    
C51   C52   S    
C9    O5    S    
C32   C35   A    
C44   O5    S    
O11   Zn2   S    
C40   O2    S    
C27   H1    S    
C8    C54   A    
C13   C19   A    
C43   H24   S    
C14   H5    S    
C48   H35   S    
C30   C37   A    
C55   H51   S    
C21   O13   A    
C9    C14   A    
C23   O3    S    
C12   O9    A    
C11   C16   A    
C42   O3    S    
C47   C48   S    
C38   H9    S    
C10   C19   A    
C4    H4    S    
C33   C34   A    
C39   H13   S    
C49   H39   S    
C45   H45   S    
C36   H23   S    
O14   Zn1   S    
C40   C41   S    
C42   H22   S    
C23   C35   A    
C4    C55   A    
O1    Zn1   S    
C43   H25   S    
C34   O4    S    
C11   O7    S    
C10   O6    S    
C46   H31   S    
C51   H44   S    
C22   C33   A    
C21   C25   S    
C52   H48   S    
C50   H41   S    
C40   H16   S    
C39   H11   S    
C31   C32   A    
C4    C5    A    
C44   H28   S    
C2    C53   A    
C8    C53   A    
C2    H2    S    
C25   C27   A    
C42   H20   S    
C13   C17   A    
C47   H32   S    
C21   O14   A    
C28   C30   A    
C20   O15   A    
C17   H8    S    
C1    O1    A    
C30   C32   A    
C50   H40   S    
O13   Zn2   S    
C20   C26   S    
C39   H14   S    
C1    O11   A    
C41   H17   S    
C53   H49   S    
C9    C18   A    
C42   H21   S    
C29   C31   A    
C49   C50   S    
C48   H36   S    
C43   H26   S    
C46   H30   S    
C3    H3    S    
