data_mof_unit_44484.cif
_audit_creation_date              2012-12-10T17:58:17-0500
_audit_creation_method            fapswitch 2.2
_symmetry_space_group_name_H-M    P1
_symmetry_Int_Tables_number       1
_space_group_crystal_system       triclinic
_cell_length_a                    9.494016
_cell_length_b                    10.891266
_cell_length_c                    15.829012
_cell_angle_alpha                 90.07767
_cell_angle_beta                  73.616793
_cell_angle_gamma                 89.288948
_cell_volume                      1570.15070411

loop_
_atom_site_label
_atom_site_type_symbol
_atom_type_description
_atom_site_fract_x
_atom_site_fract_y
_atom_site_fract_z
_atom_type_partial_charge
C1    C     C_R   0.002498 0.262049 0.497345 0.820424
C2    C     C_R   0.997393 0.737932 0.502821 0.821592
C3    C     C_R   0.579375 0.555734 0.087323 -0.194734
C4    C     C_R   0.419899 0.445918 0.912335 -0.193086
C5    C     C_R   0.727051 0.565052 0.041946 -0.209998
C6    C     C_R   0.272281 0.436488 0.957841 -0.211323
C7    C     C_R   0.870905 0.068356 0.511242 -0.216379
C8    C     C_R   0.128620 0.931628 0.489505 -0.215101
C9    C     C_R   0.862638 0.941450 0.517260 -0.002227
C10   C     C_R   0.136872 0.058479 0.483346 -0.002853
C11   C     C_R   0.993999 0.871903 0.505054 -0.121938
C12   C     C_R   0.005600 0.128057 0.495512 -0.121149
C13   C     C_R   0.554833 0.411701 0.544164 0.057889
C14   C     C_R   0.444873 0.588937 0.456509 0.044598
C15   C     C_R   0.405870 0.411828 0.544227 -0.010924
C16   C     C_R   0.594012 0.588424 0.456041 -0.019647
C17   C     C_R   0.916180 0.507174 0.671357 0.810894
C18   C     C_R   0.083700 0.493308 0.328600 0.812376
C19   C     C_R   0.865608 0.520547 0.767831 -0.120100
C20   C     C_R   0.133848 0.480627 0.232043 -0.117105
C21   C     C_R   0.923260 0.548093 0.906118 -0.199478
C22   C     C_R   0.076179 0.453243 0.093759 -0.197215
C23   C     C_R   0.969237 0.528330 0.815600 -0.190420
C24   C     C_R   0.030194 0.472872 0.184303 -0.188718
C25   C     C_R   0.713764 0.531155 0.813282 -0.089448
C26   C     C_R   0.285533 0.470338 0.186651 -0.090595
C27   C     C_R   0.669443 0.518527 0.905610 0.033141
C28   C     C_R   0.330104 0.482552 0.094240 0.024969
C29   C     C_R   0.774132 0.541694 0.951738 0.165366
C30   C     C_R   0.225347 0.459504 0.048115 0.163712
C31   C     C_R   0.522063 0.492462 0.953644 0.075770
C32   C     C_R   0.477448 0.508509 0.046164 0.071903
Cu1   Cu    Cu3+1 0.140660 0.500020 0.500000 0.994295
Cu2   Cu    Cu3+1 0.859340 0.499980 0.500000 0.995346
H1    H     H_    0.803561 0.594849 0.077014 0.147518
H2    H     H_    0.195602 0.407198 0.922743 0.147360
H3    H     H_    0.913587 0.474313 0.217512 0.168041
H4    H     H_    0.085855 0.526774 0.782428 0.172987
H5    H     H_    0.004355 0.567031 0.940408 0.141148
H6    H     H_    0.995042 0.434472 0.059466 0.141504
H7    H     H_    0.546136 0.587293 0.154624 0.183150
H8    H     H_    0.452707 0.415754 0.844613 0.173063
H9    H     H_    0.769614 0.121013 0.521879 0.180679
H10   H     H_    0.229955 0.879016 0.478822 0.181489
H11   H     H_    0.595040 0.341334 0.579936 0.136421
H12   H     H_    0.404543 0.659646 0.421065 0.148282
H13   H     H_    0.333816 0.341534 0.579916 0.142411
H14   H     H_    0.666046 0.658738 0.420368 0.145681
N1    N     N_R   0.352080 0.500030 0.499980 -0.169762
N2    N     N_R   0.647920 0.499970 0.500020 -0.167939
O1    O     O_R   0.118740 0.319660 0.500000 -0.571277
O2    O     O_R   0.881260 0.680340 0.500000 -0.567224
O3    O     O_R   0.881170 0.319630 0.500010 -0.601254
O4    O     O_R   0.118830 0.680370 0.499990 -0.599140
O5    O     O_R   0.055570 0.500030 0.629830 -0.592456
O6    O     O_R   0.944430 0.499970 0.370170 -0.596773
O7    O     O_R   0.818000 0.500000 0.629840 -0.538173
O8    O     O_R   0.182000 0.500000 0.370160 -0.538416
C33   C     C_2   0.387858 0.404771 0.227807 0.886083
O9    O     O_2   0.419380 0.297197 0.208444 -0.553214
O10   O     O_R   0.453657 0.465971 0.284148 -0.775410
H15   H     H_    0.526011 0.411945 0.303899 0.320630
C34   C     C_2   0.610630 0.598321 0.773427 0.881115
O11   O     O_2   0.559056 0.548870 0.719669 -0.609885
O12   O     O_R   0.563730 0.716538 0.804112 -0.726061
H16   H     H_    0.486061 0.750982 0.777684 0.339714
C35   C     C_2   0.714246 0.887570 0.538750 0.853732
O13   O     O_2   0.630063 0.917050 0.496152 -0.576642
O14   O     O_R   0.668523 0.806989 0.609513 -0.726612
H17   H     H_    0.565699 0.775851 0.616470 0.338091
C36   C     C_2   0.285330 0.112148 0.461017 0.855803
O15   O     O_2   0.369706 0.083965 0.503824 -0.580197
O16   O     O_R   0.331105 0.190499 0.388941 -0.711085
H18   H     H_    0.435328 0.219369 0.380103 0.336775

loop_
_geom_bond_atom_site_label_1
_geom_bond_atom_site_label_2
_ccdc_geom_bond_type
Cu1   O5    S    
C34   O12   S    
Cu2   O6    S    
Cu1   O8    S    
C27   C29   A    
O16   H18   S    
C15   H13   S    
C16   H14   S    
C14   H12   S    
C20   C26   A    
C16   N2    A    
C14   N1    A    
Cu1   N1    S    
C25   C34   S    
C1    O3    A    
C18   O8    A    
C20   C24   A    
Cu2   O7    S    
C14   C16   A    
C7    H9    S    
C26   C33   S    
C17   O5    A    
O10   H15   S    
C18   O6    A    
C10   C36   S    
C33   O9    D    
O14   H17   S    
C1    C12   S    
C2    C11   S    
C10   C12   A    
C24   H3    S    
C5    C29   A    
C21   C23   A    
C7    C12   A    
Cu2   N2    S    
C33   O10   S    
C27   C31   A    
C35   O13   D    
C28   C32   A    
C4    C6    A    
C2    O4    A    
C36   O16   S    
C21   C29   A    
C34   O11   D    
C35   O14   S    
C19   C23   A    
C9    C35   S    
C9    C11   A    
C31   C32   A    
C21   H5    S    
C22   H6    S    
Cu1   Cu2   S    
C1    O1    A    
C2    O2    A    
C6    C30   A    
C13   C15   A    
C22   C24   A    
C25   C27   A    
Cu1   O4    S    
C7    C9    A    
C3    H7    S    
C22   C30   A    
Cu2   O2    S    
C8    H10   S    
C3    C5    A    
Cu1   O1    S    
C23   H4    S    
C26   C28   A    
C28   C30   A    
C36   O15   D    
C13   H11   S    
C4    H8    S    
C8    C11   A    
C5    H1    S    
C17   C19   S    
C6    H2    S    
C18   C20   S    
C15   N1    A    
C3    C32   A    
C19   C25   A    
C4    C31   A    
C13   N2    A    
Cu2   O3    S    
C8    C10   A    
O12   H16   S    
C17   O7    A    
