data_mof_unit_47492.cif
_audit_creation_date              2012-12-10T17:04:36-0500
_audit_creation_method            fapswitch 2.2
_symmetry_space_group_name_H-M    P1
_symmetry_Int_Tables_number       1
_space_group_crystal_system       triclinic
_cell_length_a                    14.905357
_cell_length_b                    10.635781
_cell_length_c                    10.035908
_cell_angle_alpha                 89.279418
_cell_angle_beta                  89.29768
_cell_angle_gamma                 89.942878
_cell_volume                      1590.7477253

loop_
_atom_site_label
_atom_site_type_symbol
_atom_type_description
_atom_site_fract_x
_atom_site_fract_y
_atom_site_fract_z
_atom_type_partial_charge
C1    C     C_R   0.492974 0.262586 0.500857 0.975204
C2    C     C_R   0.186792 0.407710 0.438877 0.526456
C3    C     C_R   0.231499 0.503835 0.502665 -0.327778
C4    C     C_R   0.327081 0.501636 0.500869 1.021288
C5    C     C_R   0.186051 0.601952 0.566555 0.337095
C6    C     C_2   0.437668 0.929989 0.415990 0.341018
C7    C     C_2   0.496459 0.870328 0.494539 -0.466193
C8    C     C_2   0.450096 0.065923 0.396990 0.406675
C9    C     C_2   0.469701 0.132177 0.505617 -0.471201
C10   C     C_2   0.552659 0.570274 0.923526 0.595908
C11   C     C_2   0.560881 0.557694 0.073757 0.374950
C12   C     C_R   0.904896 0.608666 0.548690 0.107291
C13   C     C_R   0.499016 0.737526 0.499076 1.005762
C14   C     C_R   0.672831 0.500650 0.499180 0.840396
C15   C     C_R   0.811946 0.605105 0.551228 -0.215451
C16   C     C_R   0.767996 0.503157 0.496806 -0.054826
C17   C     C_R   0.814198 0.404301 0.438420 -0.205994
C18   C     C_R   0.907323 0.404258 0.437713 0.027166
C19   C     C_R   0.953047 0.507291 0.493892 0.056286
C20   C     C_3   0.486836 0.056028 0.173085 0.061248
C21   C     C_3   0.499428 0.139497 0.050445 -0.668048
C22   C     C_3   0.630066 0.738466 0.138177 0.155938
C23   C     C_R   0.955236 0.302655 0.384057 0.436263
C24   C     C_3   0.693790 0.787481 0.242633 -0.824564
C25   C     C_3   0.918082 0.096471 0.412313 0.082707
C26   C     C_3   0.852960 0.996321 0.367201 -0.828056
C27   C     C_3   0.233070 0.661340 0.771700 0.185820
C28   C     C_3   0.305405 0.736081 0.841265 -0.808946
C29   C     C_3   0.044992 0.910016 0.714368 0.072421
C30   C     C_3   0.110211 0.006419 0.767772 -0.792502
C31   C     C_3   0.289285 0.913404 0.360527 0.136449
C32   C     C_3   0.222006 0.832792 0.287483 -0.775763
C33   C     C_R   0.048599 0.306258 0.381979 -0.249053
C34   C     C_R   0.094093 0.406925 0.438851 -0.046349
C35   C     C_R   0.046470 0.508377 0.496104 -0.150683
C36   C     C_R   0.092296 0.610483 0.554976 -0.076787
C37   C     C_R   0.044030 0.717281 0.600016 0.508933
C38   C     C_R   0.949508 0.713107 0.598009 -0.376563
F1    F     F_    0.605260 0.655717 0.858328 -0.695072
F2    F     F_    0.468212 0.396233 0.908206 -0.655947
F3    F     F_    0.234119 0.312577 0.381519 -0.670190
H1    H     H_    0.773480 0.681869 0.593700 0.154749
H2    H     H_    0.539601 0.223547 0.075948 0.276958
H3    H     H_    0.535217 0.086735 0.971119 0.188361
H4    H     H_    0.433019 0.169846 0.012656 0.286824
H5    H     H_    0.561061 0.771911 0.163530 0.126814
H6    H     H_    0.650914 0.780235 0.040770 0.187085
H7    H     H_    0.674740 0.750808 0.342963 0.252296
H8    H     H_    0.763624 0.757943 0.218988 0.265635
H9    H     H_    0.690592 0.891632 0.243709 0.191306
H10   H     H_    0.900881 0.119451 0.517794 0.128298
H11   H     H_    0.987233 0.057096 0.407078 0.155236
H12   H     H_    0.546854 0.918969 0.551726 0.111104
H13   H     H_    0.867960 0.970511 0.262372 0.266756
H14   H     H_    0.858876 0.911107 0.431388 0.211198
H15   H     H_    0.783224 0.032646 0.374658 0.248690
H16   H     H_    0.245921 0.559518 0.791654 0.141922
H17   H     H_    0.166863 0.686354 0.816228 0.147819
H18   H     H_    0.296490 0.838181 0.821499 0.253413
H19   H     H_    0.301530 0.718167 0.950443 0.193921
H20   H     H_    0.372682 0.707321 0.804260 0.269797
H21   H     H_    0.013028 0.860248 0.800998 0.141293
H22   H     H_    0.993898 0.961997 0.655675 0.131437
H23   H     H_    0.467563 0.088550 0.604266 0.132732
H24   H     H_    0.145651 0.055123 0.683898 0.260034
H25   H     H_    0.073060 0.077213 0.827329 0.211525
H26   H     H_    0.160120 0.959384 0.832642 0.250405
H27   H     H_    0.284860 0.010674 0.319021 0.191079
H28   H     H_    0.270286 0.913683 0.468315 0.194141
H29   H     H_    0.226653 0.733587 0.322224 0.264073
H30   H     H_    0.152896 0.867809 0.306856 0.216607
H31   H     H_    0.236056 0.836968 0.178567 0.235439
H32   H     H_    0.440289 0.481715 0.105466 0.198388
H33   H     H_    0.777034 0.326840 0.396575 0.183451
H34   H     H_    0.085170 0.229377 0.336711 0.204943
H35   H     H_    0.909382 0.791235 0.632457 0.133795
H36   H     H_    0.447126 0.972692 0.143730 0.177798
H37   H     H_    0.554593 0.025513 0.206590 0.117814
N1    N     N_2   0.500970 0.501330 0.852150 0.075857
N2    N     N_2   0.500990 0.501360 0.147810 -0.224276
O1    O     O_R   0.499990 0.319060 0.613040 -0.589962
O2    O     O_3   0.636039 0.605872 0.134693 -0.553465
O3    O     O_3   0.910499 0.202970 0.327655 -0.606171
O4    O     O_3   0.235101 0.691266 0.633841 -0.565665
O5    O     O_3   0.092233 0.825525 0.631675 -0.581963
O6    O     O_3   0.376063 0.862609 0.342151 -0.612411
O7    O     O_R   0.500010 0.319100 0.386900 -0.550004
O8    O     O_R   0.367830 0.499950 0.613080 -0.614304
O9    O     O_R   0.367860 0.499990 0.386940 -0.587207
O10   O     O_R   0.499990 0.680900 0.613100 -0.601457
O11   O     O_R   0.500010 0.680940 0.386960 -0.595917
O12   O     O_R   0.632140 0.500010 0.613060 -0.577774
O13   O     O_R   0.632170 0.500050 0.386920 -0.574277
O14   O     O_3   0.440826 0.124269 0.272812 -0.550626
Zn1   Zn    Zn3+2 0.499980 0.499970 0.650990 1.070887
Zn2   Zn    Zn3+2 0.500020 0.500030 0.349010 1.040297

loop_
_geom_bond_atom_site_label_1
_geom_bond_atom_site_label_2
_ccdc_geom_bond_type
C1    O7    A    
C29   H22   S    
C13   O10   A    
C9    H23   S    
C35   C36   A    
C26   H14   S    
O10   Zn1   S    
C32   H31   S    
C38   H35   S    
C37   C38   A    
C23   O3    S    
C20   H36   S    
C22   O2    S    
C37   O5    S    
C27   O4    S    
C18   C19   A    
O1    Zn1   S    
C2    F3    S    
C1    O1    A    
C15   C16   A    
C5    C36   A    
C34   C35   A    
O11   Zn2   S    
C21   H2    S    
C33   H34   S    
C8    C9    D    
C23   C33   A    
N2    Zn2   S    
C14   O13   A    
C29   O5    S    
C30   H26   S    
C28   H20   S    
C2    C34   A    
C22   H6    S    
O8    Zn1   S    
C31   O6    S    
C13   O11   A    
C26   H13   S    
C17   C18   A    
C32   H30   S    
C21   H4    S    
C28   H19   S    
C11   O2    S    
C24   H9    S    
C31   H27   S    
C18   C23   A    
C24   H7    S    
C8    O14   S    
C27   H16   S    
C5    O4    S    
C16   C17   A    
C32   H29   S    
C25   C26   S    
O12   Zn1   S    
C10   F1    S    
C25   H10   S    
N1    Zn1   S    
C29   C30   S    
C21   H3    S    
C31   C32   S    
C12   C15   A    
C31   H28   S    
O7    Zn2   S    
C33   C34   A    
F2    N1    S    
C1    C9    S    
C14   O12   A    
C30   H25   S    
C22   H5    S    
O13   Zn2   S    
C10   C11   S    
C17   H33   S    
C14   C16   S    
C7    H12   S    
C3    C4    S    
C4    O9    A    
C28   H18   S    
C24   H8    S    
C20   O14   S    
C29   H21   S    
C36   C37   A    
C15   H1    S    
C3    C5    A    
C27   H17   S    
C26   H15   S    
C6    C8    S    
C10   N1    D    
C6    C7    D    
C4    O8    A    
C6    O6    S    
C20   H37   S    
O9    Zn2   S    
C2    C3    A    
C25   H11   S    
C19   C35   A    
C12   C19   A    
H32   N2    S    
C22   C24   S    
C12   C38   A    
C30   H24   S    
C11   N2    D    
C7    C13   S    
C20   C21   S    
C27   C28   S    
C25   O3    S    
