data_mof_unit_67734.cif
_audit_creation_date              2013-03-05T16:49:10-0500
_audit_creation_method            fapswitch 2.2
_symmetry_space_group_name_H-M    P1
_symmetry_Int_Tables_number       1
_space_group_crystal_system       triclinic
_cell_length_a                    10.962065
_cell_length_b                    10.729011
_cell_length_c                    9.607675
_cell_angle_alpha                 93.403503
_cell_angle_beta                  91.848758
_cell_angle_gamma                 92.286202
_cell_volume                      1126.40860602

loop_
_atom_site_label
_atom_site_type_symbol
_atom_site_description
_atom_site_fract_x
_atom_site_fract_y
_atom_site_fract_z
_atom_type_partial_charge
O1    O     O_R   0.500060 0.316850 0.620870 -0.539850
O2    O     O_R   0.499940 0.683150 0.379130 -0.538898
O3    O     O_R   0.500000 0.316860 0.379090 -0.582479
O4    O     O_R   0.500000 0.683140 0.620910 -0.571187
C1    C     C_R   0.499463 0.259933 0.496901 0.902274
C2    C     C_R   0.497885 0.739707 0.503139 0.911703
O5    O     O_R   0.319670 0.500010 0.620890 -0.522773
O6    O     O_R   0.680330 0.499990 0.379110 -0.530785
O7    O     O_R   0.319620 0.500010 0.379110 -0.595878
O8    O     O_R   0.680380 0.499990 0.620890 -0.598476
C3    C     C_R   0.262933 0.497304 0.497678 0.861820
C4    C     C_R   0.737081 0.507049 0.502846 0.864975
Cu1   Cu    Cu3+1 0.500030 0.499990 0.643150 1.062331
Cu2   Cu    Cu3+1 0.499970 0.500010 0.356850 1.060249
H1    H     H_    0.079370 0.137510 0.936886 0.145645
H2    H     H_    0.877390 0.002132 0.915101 0.167783
C5    C     C_R   0.071769 0.326072 0.024965 -0.022533
C6    C     C_R   0.843448 0.803344 0.890139 -0.008983
H3    H     H_    0.040786 0.362845 0.928289 0.150508
H4    H     H_    0.814854 0.798739 0.995136 0.218741
C7    C     C_R   0.087078 0.405681 0.145037 -0.100547
C8    C     C_R   0.850173 0.694651 0.802879 -0.104360
H5    H     H_    0.068014 0.503551 0.138481 0.152934
H6    H     H_    0.827790 0.604778 0.842892 0.143395
C9    C     C_R   0.102906 0.355581 0.275840 0.101204
C10   C     C_R   0.898853 0.701891 0.670340 0.055145
C11   C     C_R   0.116494 0.226158 0.281444 -0.126150
C12   C     C_R   0.937912 0.820052 0.627259 -0.064747
H7    H     H_    0.115366 0.182881 0.379397 0.156479
H8    H     H_    0.984137 0.827571 0.529973 0.182206
C13   C     C_R   0.113863 0.148728 0.159113 -0.058637
C14   C     C_R   0.926426 0.928106 0.712949 -0.077857
H9    H     H_    0.120832 0.048913 0.164771 0.175435
H10   H     H_    0.957262 0.017951 0.678740 0.183933
C15   C     C_R   0.089276 0.198384 0.030857 -0.022667
C16   C     C_R   0.881141 0.919346 0.845560 -0.108719
C17   C     C_R   0.926619 0.423294 0.409430 -0.042273
C18   C     C_R   0.073826 0.579709 0.597129 -0.153724
C19   C     C_R   0.871590 0.505474 0.506235 -0.103145
C20   C     C_R   0.128829 0.501518 0.495511 -0.096395
C21   C     C_R   0.945916 0.589175 0.595485 -0.106692
C22   C     C_R   0.054387 0.427227 0.397126 -0.090785
C23   C     C_3   0.583680 0.051841 0.588176 -0.055501
C24   C     C_3   0.411542 0.946956 0.412705 -0.040642
C25   C     C_3   0.606297 0.958825 0.464967 -0.077267
C26   C     C_3   0.389317 0.040059 0.535959 -0.067566
C27   C     C_3   0.497170 0.876598 0.506987 -0.122468
C28   C     C_3   0.498190 0.122564 0.493515 -0.135459
C29   C     C_3   0.474285 0.968888 0.631429 -0.142562
C30   C     C_3   0.520918 0.029594 0.368712 -0.193523
H11   H     H_    0.451980 0.950360 0.739058 0.217196
H12   H     H_    0.542134 0.045911 0.260190 0.204290
C31   C     C_3   0.582985 0.573446 0.057385 0.419996
C32   C     C_3   0.417200 0.425574 0.942661 0.414787
C33   C     C_3   0.480997 0.609152 0.958138 -0.063999
C34   C     C_3   0.519023 0.390442 0.042144 -0.041974
N1    N     N_3   0.500090 0.499970 0.858290 -0.262884
N2    N     N_3   0.499910 0.500030 0.141710 -0.259727
C35   C     C_3   0.604489 0.464995 0.950328 -0.194130
C36   C     C_3   0.395424 0.534218 0.049620 -0.185136
H13   H     H_    0.691963 0.434787 0.907041 0.185429
H14   H     H_    0.307596 0.563216 0.093012 0.189924
C37   C     C_2   0.463195 0.739187 0.917933 0.966187
O9    O     O_2   0.550026 0.801491 0.879487 -0.589198
O10   O     O_R   0.349507 0.791093 0.934477 -0.670731
H15   H     H_    0.349509 0.882973 0.916044 0.364087
C38   C     C_2   0.535256 0.260582 0.083478 0.944787
O11   O     O_2   0.448554 0.201043 0.126591 -0.567718
O12   O     O_R   0.646754 0.205511 0.062581 -0.719282
H16   H     H_    0.645082 0.113857 0.082363 0.345806
N3    N     N_R   0.675411 0.658220 0.125059 0.126175
O13   O     O_R   0.649785 0.773600 0.156080 -0.380184
O14   O     O_R   0.784721 0.620168 0.150048 -0.403732
N4    N     N_R   0.324552 0.339975 0.875378 0.148324
O15   O     O_R   0.339415 0.220194 0.867361 -0.351697
O16   O     O_R   0.229599 0.384182 0.815010 -0.406957
C39   C     C_2   0.848707 0.332162 0.319824 0.907666
O17   O     O_2   0.840950 0.341051 0.193755 -0.553277
O18   O     O_R   0.777303 0.242551 0.382172 -0.713234
H17   H     H_    0.723454 0.190169 0.312216 0.346809
C40   C     C_2   0.149807 0.660972 0.701058 0.977597
O19   O     O_2   0.225030 0.736488 0.660917 -0.518226
O20   O     O_R   0.134400 0.653714 0.844222 -0.694550
H18   H     H_    0.073607 0.584786 0.866409 0.288039
C41   C     C_2   0.727825 0.913034 0.422768 0.896604
O21   O     O_2   0.808891 0.987074 0.392941 -0.581422
O22   O     O_R   0.747030 0.785208 0.414662 -0.740056
H19   H     H_    0.827603 0.764716 0.371853 0.350475
C42   C     C_2   0.266596 0.080118 0.579943 0.879394
O23   O     O_2   0.189562 0.001482 0.609022 -0.571736
O24   O     O_R   0.241226 0.206516 0.590057 -0.743415
H20   H     H_    0.155139 0.220861 0.621329 0.340472
C43   C     C_2   0.677051 0.109102 0.692246 0.893957
O25   O     O_2   0.670338 0.085041 0.814159 -0.570338
O26   O     O_R   0.770106 0.189908 0.650987 -0.729411
H21   H     H_    0.826212 0.223171 0.731860 0.315887
C44   C     C_2   0.313246 0.888154 0.315542 0.876010
O27   O     O_2   0.312278 0.910199 0.192431 -0.562343
O28   O     O_R   0.223282 0.808678 0.366310 -0.746765
H22   H     H_    0.162341 0.774202 0.290696 0.328992

loop_
_geom_bond_atom_site_label_1
_geom_bond_atom_site_label_2
_geom_bond_distance
_ccdc_geom_bond_type
O22   H19   1.012830 S    
C37   O10   1.395070 S    
C43   O25   1.218174 D    
C11   H7    1.074055 S    
C31   C33   1.521404 S    
O26   H21   1.013949 S    
C40   O19   1.220436 D    
C31   C35   1.537153 S    
C27   C29   1.539952 S    
C26   C42   1.494759 S    
C32   C36   1.538687 S    
C39   O17   1.221120 D    
O5    C3    1.317569 A    
C26   C29   1.541667 S    
N4    O16   1.295335 A    
O1    C1    1.305519 A    
C14   C16   1.389189 A    
C8    H6    1.081202 S    
O12   H16   1.012143 S    
N1    C35   1.496942 S    
Cu1   N1    2.066987 S    
N2    C36   1.495302 S    
C17   C22   1.408553 A    
C36   H14   1.109921 S    
O4    Cu1   1.989186 S    
C44   O28   1.396747 S    
C32   N4    1.451041 S    
O28   H22   1.013863 S    
C29   H11   1.097930 S    
C33   C37   1.488144 S    
C30   H12   1.098142 S    
C13   H9    1.081118 S    
C42   O24   1.393573 S    
C23   C28   1.537798 S    
C24   C27   1.534374 S    
C39   O18   1.390845 S    
C43   O26   1.394866 S    
Cu1   Cu2   2.750669 S    
O2    C2    1.305840 A    
H1    C15   1.082342 S    
C40   O20   1.397559 S    
C24   C26   1.535266 S    
C44   O27   1.219711 D    
C26   C28   1.537604 S    
C25   C27   1.536749 S    
Cu2   N2    2.066986 S    
C1    C28   1.471759 S    
C32   C34   1.519544 S    
C35   H13   1.109956 S    
C2    C27   1.467310 S    
C41   O22   1.393799 S    
C11   C13   1.397253 A    
C38   O11   1.221200 D    
C12   C14   1.393801 A    
C18   C21   1.409521 A    
O4    C2    1.315350 A    
N4    O15   1.299923 A    
O24   H20   1.014355 S    
N3    O14   1.300864 A    
C23   C29   1.547182 S    
C41   O21   1.220649 D    
C17   C39   1.487477 S    
C5    C7    1.395569 A    
O18   H17   1.009522 S    
C38   O12   1.393802 S    
C14   H10   1.081792 S    
C25   C41   1.497971 S    
O7    Cu2   1.995391 S    
C23   C25   1.535283 S    
C24   C44   1.497159 S    
O20   H18   1.012429 S    
O5    Cu1   1.981790 S    
O6    C4    1.320557 A    
O7    C3    1.316371 A    
O3    Cu2   1.989186 S    
O8    C4    1.315387 A    
C33   N1    1.495119 S    
C18   C40   1.495317 S    
C13   C15   1.393866 A    
O1    Cu1   1.963876 S    
C5    H3    1.080550 S    
C31   N3    1.445790 S    
C24   C30   1.547478 S    
C7    C9    1.404263 A    
O6    Cu2   1.981790 S    
C6    C8    1.401074 A    
C20   C22   1.415491 A    
O3    C1    1.317749 A    
O8    Cu1   1.995391 S    
C9    C22   1.482525 S    
C31   N2    1.473866 S    
C9    C11   1.406444 A    
C34   C38   1.487108 S    
C10   C12   1.411480 A    
C34   C35   1.540461 S    
C4    C19   1.474604 S    
C7    H5    1.083850 S    
C12   H8    1.083130 S    
C17   C19   1.409816 A    
H2    C16   1.082232 S    
C18   C20   1.414773 A    
C25   C30   1.546583 S    
C28   C30   1.546580 S    
C23   C43   1.495214 S    
C34   N2    1.496816 S    
C6    H4    1.069302 S    
C3    C20   1.472070 S    
O2    Cu2   1.963876 S    
C37   O9    1.220873 D    
N3    O13   1.299807 A    
C19   C21   1.417985 A    
O10   H15   1.011850 S    
C8    C10   1.401641 A    
C5    C15   1.395110 A    
C42   O23   1.220381 D    
C33   C36   1.541346 S    
C6    C16   1.391705 A    
C10   C21   1.488726 S    
C32   N1    1.478618 S    
