data_mof_unit_35298.cif
_audit_creation_date              2012-12-10T18:18:15-0500
_audit_creation_method            fapswitch 2.2
_symmetry_space_group_name_H-M    P1
_symmetry_Int_Tables_number       1
_space_group_crystal_system       triclinic
_cell_length_a                    14.032694
_cell_length_b                    14.938346
_cell_length_c                    15.550626
_cell_angle_alpha                 90.083804
_cell_angle_beta                  66.956913
_cell_angle_gamma                 90.176685
_cell_volume                      2999.69204233

loop_
_atom_site_label
_atom_site_type_symbol
_atom_type_description
_atom_site_fract_x
_atom_site_fract_y
_atom_site_fract_z
_atom_type_partial_charge
C1    C     C_R   0.501500 0.672867 0.496876 0.889017
C2    C     C_R   0.503752 0.768100 0.492805 -0.085553
C3    C     C_R   0.566620 0.188165 0.429732 -0.288262
C4    C     C_R   0.433354 0.811841 0.570221 -0.288233
C5    C     C_R   0.568370 0.096107 0.426443 0.117407
C6    C     C_R   0.431581 0.903899 0.573494 0.117403
C7    C     C_R   0.498809 0.046861 0.502284 0.031299
C8    C     C_R   0.501141 0.953143 0.497652 0.031294
C9    C     C_R   0.427322 0.091134 0.582644 0.100945
C10   C     C_R   0.572640 0.908868 0.417300 0.100955
C11   C     C_R   0.638624 0.053055 0.347634 -0.197964
C12   C     C_R   0.498506 0.327132 0.503110 0.889001
C13   C     C_R   0.361308 0.946949 0.652292 -0.197963
C14   C     C_R   0.640875 0.960545 0.342859 -0.217683
C15   C     C_R   0.359063 0.039458 0.657072 -0.217696
C16   C     C_R   0.434974 0.499054 0.676258 1.008779
C17   C     C_R   0.565025 0.500943 0.323741 1.008767
C18   C     C_R   0.173607 0.452060 0.565629 -0.029691
C19   C     C_R   0.826391 0.547945 0.434375 -0.029704
C20   C     C_R   0.229990 0.549964 0.436107 -0.032997
C21   C     C_R   0.770013 0.450030 0.563888 -0.032996
C22   C     C_R   0.129580 0.553091 0.434669 -0.019126
C23   C     C_R   0.379927 0.524660 0.104374 -0.171036
C24   C     C_R   0.870422 0.446905 0.565325 -0.019124
C25   C     C_R   0.050316 0.500349 0.500285 0.001393
C26   C     C_R   0.949685 0.499651 0.499712 0.001397
C27   C     C_R   0.070772 0.452132 0.569593 -0.009205
C28   C     C_R   0.929227 0.547870 0.430407 -0.009207
C29   C     C_R   0.107136 0.607378 0.369615 0.118390
C30   C     C_R   0.892869 0.392616 0.630375 0.118394
C31   C     C_R   0.011205 0.594307 0.359089 0.121595
C32   C     C_R   0.988795 0.405691 0.640907 0.121595
C33   C     C_R   0.393164 0.501134 0.778062 -0.409456
C34   C     C_R   0.620055 0.475258 0.895633 -0.171052
C35   C     C_R   0.606832 0.498847 0.221937 -0.409467
C36   C     C_R   0.266915 0.549540 0.927464 0.554227
C37   C     C_R   0.733077 0.450421 0.072542 0.554219
C38   C     C_R   0.296706 0.539114 0.831318 0.460588
C39   C     C_R   0.703292 0.460868 0.168684 0.460579
C40   C     C_R   0.457668 0.472331 0.821408 0.467803
C41   C     C_R   0.542320 0.527626 0.178590 0.467801
C42   C     C_R   0.437997 0.498006 0.913296 -0.103926
C43   C     C_R   0.561989 0.501931 0.086708 -0.103926
C44   C     C_R   0.337618 0.530337 0.968714 -0.142475
C45   C     C_R   0.308861 0.540660 0.064525 -0.149350
C46   C     C_R   0.662369 0.469603 0.031292 -0.142469
C47   C     C_R   0.514551 0.492175 0.951585 0.147037
C48   C     C_R   0.485432 0.507749 0.048420 0.147039
C49   C     C_3   0.181413 0.683482 0.319017 -0.441895
C50   C     C_3   0.187934 0.754532 0.387708 -0.815223
C51   C     C_3   0.818604 0.316498 0.680957 -0.441913
C52   C     C_3   0.812105 0.245457 0.612249 -0.815225
C53   C     C_3   0.998297 0.621216 0.269164 -0.503818
C54   C     C_3   0.985080 0.539039 0.215752 -0.672299
C55   C     C_3   0.001694 0.378786 0.730837 -0.503798
C56   C     C_R   0.691123 0.459266 0.935482 -0.149363
C57   C     C_3   0.014893 0.460966 0.784253 -0.672365
C58   C     C_3   0.356099 0.236630 0.672664 -0.461474
C59   C     C_3   0.400524 0.235717 0.747970 -0.781129
C60   C     C_3   0.643962 0.763365 0.327333 -0.461511
C61   C     C_3   0.599572 0.764192 0.252000 -0.781113
C62   C     C_R   0.426295 0.185598 0.585684 0.100405
C63   C     C_R   0.573707 0.814404 0.414284 0.100399
C64   C     C_R   0.496253 0.231902 0.507166 -0.085511
F1    F     F_    0.464785 0.585553 0.225322 -0.708141
F2    F     F_    0.535197 0.414402 0.774667 -0.708150
F3    F     F_    0.767631 0.432908 0.209399 -0.633331
F4    F     F_    0.232375 0.567095 0.790605 -0.633326
F5    F     F_    0.171499 0.582747 0.979188 -0.639487
F6    F     F_    0.828495 0.417216 0.020820 -0.639493
H1    H     H_    0.230505 0.559079 0.109478 0.190497
H2    H     H_    0.380470 0.773416 0.628866 0.170277
H3    H     H_    0.692042 0.091125 0.289244 0.161738
H4    H     H_    0.307879 0.908877 0.710675 0.161737
H5    H     H_    0.696816 0.931101 0.280055 0.163914
H6    H     H_    0.303113 0.068900 0.719872 0.163916
H7    H     H_    0.109834 0.782641 0.427971 0.259308
H8    H     H_    0.219336 0.727337 0.437467 0.261893
H9    H     H_    0.239724 0.809794 0.348352 0.254248
H10   H     H_    0.259392 0.656825 0.276387 0.234581
H11   H     H_    0.157609 0.721437 0.270223 0.214418
H12   H     H_    0.769481 0.440849 0.890530 0.190503
H13   H     H_    0.780708 0.272656 0.562488 0.261897
H14   H     H_    0.890212 0.217359 0.571989 0.259309
H15   H     H_    0.760321 0.190185 0.651592 0.254244
H16   H     H_    0.842410 0.278541 0.729748 0.214417
H17   H     H_    0.740619 0.343142 0.723586 0.234558
H18   H     H_    0.053291 0.494375 0.197882 0.247037
H19   H     H_    0.978784 0.560725 0.149890 0.295986
H20   H     H_    0.914595 0.500222 0.256715 0.286657
H21   H     H_    0.932024 0.667675 0.284963 0.204201
H22   H     H_    0.065712 0.656230 0.218045 0.226790
H23   H     H_    0.194682 0.413516 0.614124 0.142550
H24   H     H_    0.085390 0.499774 0.743304 0.286664
H25   H     H_    0.946690 0.505635 0.802095 0.247034
H26   H     H_    0.021156 0.439285 0.850130 0.296002
H27   H     H_    0.934278 0.343767 0.781949 0.226779
H28   H     H_    0.067971 0.332332 0.715044 0.204206
H29   H     H_    0.479718 0.264867 0.719869 0.299080
H30   H     H_    0.350741 0.276382 0.808701 0.256722
H31   H     H_    0.404430 0.166579 0.772274 0.251673
H32   H     H_    0.345946 0.307546 0.657863 0.220640
H33   H     H_    0.276202 0.209207 0.700032 0.202085
H34   H     H_    0.805313 0.586494 0.385884 0.142541
H35   H     H_    0.649365 0.723477 0.191313 0.256694
H36   H     H_    0.520370 0.735055 0.280112 0.299067
H37   H     H_    0.595696 0.833305 0.227618 0.251662
H38   H     H_    0.723841 0.790831 0.299977 0.202095
H39   H     H_    0.654158 0.692468 0.342175 0.220653
H40   H     H_    0.293900 0.586551 0.385989 0.198296
H41   H     H_    0.706105 0.413437 0.614002 0.198285
H42   H     H_    0.349291 0.524387 0.179598 0.201902
H43   H     H_    0.650694 0.475525 0.820410 0.201910
H44   H     H_    0.619507 0.226590 0.371087 0.170269
N1    N     N_R   0.249980 0.499930 0.499960 -0.110523
N2    N     N_R   0.750020 0.500070 0.500040 -0.110521
O1    O     O_R   0.419720 0.632140 0.499980 -0.605155
O2    O     O_R   0.580280 0.367860 0.500020 -0.605148
O3    O     O_R   0.580270 0.632160 0.499970 -0.641724
O4    O     O_R   0.419730 0.367840 0.500030 -0.641717
O5    O     O_R   0.373870 0.499980 0.632250 -0.588130
O6    O     O_R   0.626130 0.500020 0.367750 -0.588126
O7    O     O_R   0.534420 0.500000 0.632240 -0.581850
O8    O     O_R   0.465580 0.500000 0.367760 -0.581857
Zn1   Zn    Zn3+2 0.392800 0.499980 0.500010 0.977604
Zn2   Zn    Zn3+2 0.607200 0.500020 0.499990 0.977606

loop_
_geom_bond_atom_site_label_1
_geom_bond_atom_site_label_2
_ccdc_geom_bond_type
C58   C62   S    
C30   C32   A    
C30   C51   S    
C34   C56   A    
C23   C45   A    
C22   C29   A    
C45   H1    S    
C59   H29   S    
C2    C4    A    
C10   C63   A    
C50   H9    S    
C7    C8    A    
C29   C49   S    
C3    C64   A    
C44   C45   A    
C34   H43   S    
C23   H42   S    
C60   C63   S    
C52   H15   S    
C16   O7    A    
C24   C26   A    
C54   H20   S    
C12   C64   S    
C11   C14   A    
C1    C2    S    
C1    O3    A    
C49   H11   S    
C52   H14   S    
C62   C64   A    
C60   H39   S    
C12   O4    A    
C22   C25   A    
C53   H21   S    
C58   H32   S    
C61   H35   S    
C43   C48   A    
C32   C55   S    
C60   H38   S    
C40   C42   A    
C15   H6    S    
C40   F2    S    
C37   F6    S    
C59   H30   S    
C41   C43   A    
C42   C44   A    
C21   N2    A    
C35   C41   A    
C50   H8    S    
C51   H16   S    
C21   H41   S    
C33   C40   A    
C9    C62   A    
C59   H31   S    
C54   H19   S    
C4    C6    A    
C11   H3    S    
C51   H17   S    
C5    C7    A    
O4    Zn1   S    
O7    Zn2   S    
C6    C8    A    
C25   C26   A    
C53   C54   S    
C57   H26   S    
C51   C52   S    
C60   C61   S    
O6    Zn2   S    
C52   H13   S    
C35   C39   A    
C16   O5    A    
O5    Zn1   S    
C61   H36   S    
C16   C33   S    
C19   H34   S    
C17   O8    A    
C47   C48   A    
C55   H27   S    
C53   H22   S    
C1    O1    A    
C31   C53   S    
C56   H12   S    
C19   C28   A    
C20   H40   S    
C8    C10   A    
C38   F4    S    
C57   H24   S    
C55   C57   S    
C10   C14   A    
C12   O2    A    
C36   C44   A    
C50   H7    S    
C4    H2    S    
C36   F5    S    
C7    C9    A    
C2    C63   A    
C23   C48   A    
C27   C32   A    
C39   F3    S    
C28   C31   A    
C18   C27   A    
C20   C22   A    
C3    C5    A    
C3    H44   S    
C18   N1    A    
C20   N1    A    
C41   F1    S    
C5    C11   A    
C58   H33   S    
C25   C27   A    
O2    Zn2   S    
C26   C28   A    
C33   C38   A    
N1    Zn1   S    
C49   H10   S    
C14   H5    S    
C13   C15   A    
C58   C59   S    
C29   C31   A    
C6    C13   A    
C54   H18   S    
C19   N2    A    
C55   H28   S    
C36   C38   A    
C42   C47   A    
C9    C15   A    
C61   H37   S    
C43   C46   A    
C24   C30   A    
O3    Zn2   S    
C17   O6    A    
C13   H4    S    
C37   C39   A    
C49   C50   S    
C57   H25   S    
C21   C24   A    
C46   C56   A    
C18   H23   S    
N2    Zn2   S    
C34   C47   A    
C17   C35   S    
C37   C46   A    
O1    Zn1   S    
O8    Zn1   S    
