data_mof_unit_60418.cif
_audit_creation_date              2012-12-10T22:25:44-0500
_audit_creation_method            fapswitch 2.2
_symmetry_space_group_name_H-M    P1
_symmetry_Int_Tables_number       1
_space_group_crystal_system       triclinic
_cell_length_a                    33.008445
_cell_length_b                    33.028539
_cell_length_c                    33.054594
_cell_angle_alpha                 60.144945
_cell_angle_beta                  60.210682
_cell_angle_gamma                 60.169505
_cell_volume                      25582.8680202

loop_
_atom_site_label
_atom_site_type_symbol
_atom_type_description
_atom_site_fract_x
_atom_site_fract_y
_atom_site_fract_z
_atom_type_partial_charge
C1    C     C_R   0.960953 0.595850 0.960945 0.871270
C2    C     C_R   0.039047 0.404150 0.039054 0.871268
C3    C     C_R   0.595847 0.960901 0.960923 0.882303
C4    C     C_R   0.404153 0.039099 0.039077 0.882302
C5    C     C_R   0.960956 0.960929 0.595842 0.870119
C6    C     C_R   0.039044 0.039071 0.404158 0.870120
C7    C     C_R   0.968542 0.429678 0.678193 -0.201321
C8    C     C_R   0.031458 0.570322 0.321807 -0.201321
C9    C     C_R   0.436617 0.678129 0.971442 -0.199754
C10   C     C_R   0.563383 0.321871 0.028558 -0.199754
C11   C     C_R   0.677826 0.971421 0.432094 -0.200939
C12   C     C_R   0.322174 0.028579 0.567906 -0.200940
C13   C     C_R   0.563364 0.028461 0.322014 -0.193727
C14   C     C_R   0.436636 0.971538 0.677986 -0.193728
C15   C     C_R   0.331042 0.497700 0.062640 -0.203010
C16   C     C_R   0.668958 0.502300 0.937360 -0.203011
C17   C     C_R   0.028795 0.322153 0.566517 -0.207023
C18   C     C_R   0.971205 0.677847 0.433483 -0.207023
C19   C     C_R   0.948200 0.415566 0.729662 0.175696
C20   C     C_R   0.051800 0.584433 0.270338 0.175696
C21   C     C_R   0.422450 0.729709 0.951450 0.180911
C22   C     C_R   0.577550 0.270291 0.048550 0.180911
C23   C     C_R   0.729475 0.951883 0.416802 0.176835
C24   C     C_R   0.270525 0.048117 0.583198 0.176835
C25   C     C_R   0.577526 0.048422 0.270493 0.181866
C26   C     C_R   0.422474 0.951578 0.729507 0.181867
C27   C     C_R   0.280142 0.507021 0.083493 0.177870
C28   C     C_R   0.719858 0.492979 0.916507 0.177870
C29   C     C_R   0.048303 0.270550 0.581287 0.181693
C30   C     C_R   0.951697 0.729450 0.418713 0.181693
C31   C     C_R   0.899754 0.443711 0.751834 0.059548
C32   C     C_R   0.100246 0.556289 0.248165 0.059547
C33   C     C_R   0.442503 0.752448 0.900118 0.067697
C34   C     C_R   0.557497 0.247552 0.099882 0.067697
C35   C     C_R   0.752862 0.901526 0.440106 0.064134
C36   C     C_R   0.247137 0.098474 0.559894 0.064134
C37   C     C_R   0.557520 0.099821 0.247717 0.066882
C38   C     C_R   0.442480 0.900179 0.752283 0.066882
C39   C     C_R   0.248938 0.548576 0.099578 0.052726
C40   C     C_R   0.751062 0.451424 0.900422 0.052726
C41   C     C_R   0.098721 0.247286 0.558140 0.058358
C42   C     C_R   0.901279 0.752714 0.441860 0.058358
C43   C     C_R   0.912590 0.413904 0.942120 0.172445
C44   C     C_R   0.087410 0.586096 0.057880 0.172446
C45   C     C_R   0.494460 0.858171 0.930780 0.144694
C46   C     C_R   0.505540 0.141828 0.069220 0.144695
C47   C     C_R   0.877609 0.904526 0.497746 0.166640
C48   C     C_R   0.122391 0.095474 0.502254 0.166640
C49   C     C_R   0.506047 0.068629 0.141873 0.144671
C50   C     C_R   0.493953 0.931371 0.858127 0.144671
C51   C     C_R   0.086999 0.507798 0.126076 0.182908
C52   C     C_R   0.913001 0.492201 0.873924 0.182908
C53   C     C_R   0.061287 0.085268 0.585188 0.190974
C54   C     C_R   0.938713 0.914732 0.414812 0.190974
C55   C     C_R   0.930344 0.426283 0.963443 -0.210676
C56   C     C_R   0.069655 0.573717 0.036557 -0.210676
C57   C     C_R   0.489241 0.884139 0.956733 -0.189679
C58   C     C_R   0.510759 0.115861 0.043267 -0.189680
C59   C     C_R   0.898093 0.925231 0.507749 -0.205723
C60   C     C_R   0.101907 0.074769 0.492251 -0.205724
C61   C     C_R   0.511328 0.042847 0.115713 -0.189325
C62   C     C_R   0.488672 0.957153 0.884286 -0.189326
C63   C     C_R   0.067632 0.496905 0.105130 -0.204013
C64   C     C_R   0.932368 0.503094 0.894870 -0.204011
C65   C     C_R   0.040342 0.065968 0.574093 -0.220072
C66   C     C_R   0.959658 0.934032 0.425907 -0.220071
C67   C     C_R   0.940353 0.470648 0.939738 -0.096544
C68   C     C_R   0.059647 0.529352 0.060262 -0.096544
C69   C     C_R   0.483760 0.934505 0.934476 -0.122647
C70   C     C_R   0.516240 0.065495 0.065524 -0.122647
C71   C     C_R   0.939242 0.939480 0.472123 -0.094208
C72   C     C_R   0.060758 0.060519 0.527877 -0.094208
C73   C     C_R   0.903467 0.447036 0.897248 -0.014086
C74   C     C_R   0.096533 0.552964 0.102752 -0.014086
C75   C     C_R   0.487691 0.884226 0.883883 0.039008
C76   C     C_R   0.512309 0.115774 0.116117 0.039008
C77   C     C_R   0.897748 0.899410 0.450931 -0.025576
C78   C     C_R   0.102252 0.100590 0.549069 -0.025576
C79   C     C_R   0.482679 0.595524 0.961193 0.877910
C80   C     C_R   0.517321 0.404475 0.038807 0.877908
C81   C     C_R   0.595529 0.961112 0.482905 0.879427
C82   C     C_R   0.404470 0.038888 0.517095 0.879428
C83   C     C_R   0.961052 0.483137 0.595377 0.878114
C84   C     C_R   0.038948 0.516863 0.404623 0.878117
C85   C     C_R   0.404641 0.516803 0.038911 0.878961
C86   C     C_R   0.595359 0.483197 0.961089 0.878961
C87   C     C_R   0.038986 0.404496 0.516906 0.876968
C88   C     C_R   0.961014 0.595504 0.483094 0.876966
C89   C     C_R   0.517335 0.038812 0.404484 0.881147
C90   C     C_R   0.482665 0.961188 0.595516 0.881145
C91   C     C_R   0.805903 0.876960 0.876724 0.246018
C92   C     C_R   0.194097 0.123040 0.123276 0.246018
C93   C     C_R   0.876973 0.876982 0.805737 0.245782
C94   C     C_R   0.123027 0.123018 0.194263 0.245782
C95   C     C_R   0.877068 0.805944 0.876843 0.245846
C96   C     C_R   0.122932 0.194056 0.123157 0.245847
C97   C     C_R   0.726795 0.947264 0.873888 -0.148797
C98   C     C_R   0.273205 0.052736 0.126112 -0.148797
C99   C     C_R   0.947367 0.874091 0.726842 -0.149465
C100  C     C_R   0.052633 0.125909 0.273158 -0.149465
C101  C     C_R   0.874238 0.726972 0.947266 -0.148578
C102  C     C_R   0.125762 0.273028 0.052734 -0.148578
C103  C     C_R   0.052524 0.273078 0.125865 -0.148296
C104  C     C_R   0.947476 0.726922 0.874135 -0.148296
C105  C     C_R   0.125860 0.052624 0.273259 -0.147573
C106  C     C_R   0.874140 0.947376 0.726741 -0.147573
C107  C     C_R   0.273021 0.125962 0.052870 -0.148364
C108  C     C_R   0.726979 0.874038 0.947130 -0.148365
C109  C     C_R   0.039108 0.517610 0.039121 0.899324
C110  C     C_R   0.960892 0.482390 0.960879 0.899327
C111  C     C_R   0.515788 0.040026 0.040010 0.907966
C112  C     C_R   0.484212 0.959974 0.959990 0.907968
C113  C     C_R   0.039380 0.039335 0.517089 0.898064
C114  C     C_R   0.960620 0.960664 0.482911 0.898065
C115  C     C_R   0.675666 0.967050 0.893791 -0.178230
C116  C     C_R   0.324334 0.032949 0.106209 -0.178229
C117  C     C_R   0.967180 0.893913 0.675749 -0.180693
C118  C     C_R   0.032820 0.106086 0.324251 -0.180693
C119  C     C_R   0.894033 0.675822 0.967098 -0.178162
C120  C     C_R   0.105967 0.324178 0.032902 -0.178161
C121  C     C_R   0.032754 0.324229 0.106004 -0.183772
C122  C     C_R   0.967245 0.675771 0.893996 -0.183772
C123  C     C_R   0.106019 0.032829 0.324348 -0.182702
C124  C     C_R   0.893981 0.967171 0.675652 -0.182702
C125  C     C_R   0.324156 0.106147 0.032995 -0.178680
C126  C     C_R   0.675844 0.893852 0.967005 -0.178680
C127  C     C_R   0.649755 0.940211 0.940204 -0.044646
C128  C     C_R   0.350245 0.059789 0.059796 -0.044646
C129  C     C_R   0.940334 0.940288 0.649717 -0.044702
C130  C     C_R   0.059666 0.059712 0.350283 -0.044702
C131  C     C_R   0.940360 0.649785 0.940303 -0.044026
C132  C     C_R   0.059639 0.350215 0.059697 -0.044025
C133  C     C_R   0.752844 0.900237 0.900051 0.122833
C134  C     C_R   0.247156 0.099763 0.099949 0.122833
C135  C     C_R   0.900309 0.900300 0.752727 0.124034
C136  C     C_R   0.099691 0.099700 0.247273 0.124034
C137  C     C_R   0.900426 0.752906 0.900239 0.124059
C138  C     C_R   0.099574 0.247094 0.099761 0.124059
C139  C     C_R   0.878480 0.434826 0.805383 0.088165
C140  C     C_R   0.121520 0.565174 0.194617 0.088166
C141  C     C_R   0.437700 0.805145 0.877887 0.078596
C142  C     C_R   0.562300 0.194855 0.122112 0.078596
C143  C     C_R   0.806592 0.880295 0.431149 0.082114
C144  C     C_R   0.193408 0.119704 0.568851 0.082114
C145  C     C_R   0.562230 0.122001 0.195090 0.078334
C146  C     C_R   0.437770 0.877998 0.804910 0.078334
C147  C     C_R   0.195095 0.559717 0.121957 0.072962
C148  C     C_R   0.804905 0.440283 0.878043 0.072963
C149  C     C_R   0.120163 0.193533 0.567288 0.083955
C150  C     C_R   0.879837 0.806466 0.432712 0.083955
C151  C     C_R   0.880485 0.436800 0.876723 0.096613
C152  C     C_R   0.119515 0.563200 0.123277 0.096613
C153  C     C_R   0.466216 0.866952 0.866653 0.069342
C154  C     C_R   0.533784 0.133048 0.133347 0.069343
C155  C     C_R   0.876536 0.877541 0.440194 0.092662
C156  C     C_R   0.123464 0.122459 0.559806 0.092662
C157  C     C_R   0.828903 0.437058 0.830478 -0.193118
C158  C     C_R   0.171097 0.562942 0.169522 -0.193118
C159  C     C_R   0.428956 0.833009 0.832880 -0.194919
C160  C     C_R   0.571044 0.166991 0.167120 -0.194919
C161  C     C_R   0.832930 0.832785 0.427327 -0.188783
C162  C     C_R   0.167070 0.167215 0.572673 -0.188783
C163  C     C_R   0.831454 0.437895 0.901859 -0.109000
C164  C     C_R   0.168546 0.562105 0.098141 -0.109000
C165  C     C_R   0.454132 0.895511 0.822936 -0.130556
C166  C     C_R   0.545868 0.104489 0.177064 -0.130556
C167  C     C_R   0.901546 0.829223 0.438977 -0.118522
C168  C     C_R   0.098454 0.170777 0.561023 -0.118522
C169  C     C_R   0.546015 0.176700 0.104654 -0.128959
C170  C     C_R   0.453985 0.823300 0.895346 -0.128958
C171  C     C_R   0.095774 0.565661 0.171074 -0.110221
C172  C     C_R   0.904225 0.434339 0.828926 -0.110220
C173  C     C_R   0.170962 0.097192 0.563245 -0.108602
C174  C     C_R   0.829038 0.902808 0.436755 -0.108602
C175  C     C_R   0.871938 0.484176 0.721809 -0.162166
C176  C     C_R   0.128062 0.515824 0.278191 -0.162166
C177  C     C_R   0.474070 0.723083 0.869503 -0.178601
C178  C     C_R   0.525930 0.276917 0.130497 -0.178601
C179  C     C_R   0.723785 0.871274 0.476637 -0.171109
C180  C     C_R   0.276214 0.128726 0.523363 -0.171110
C181  C     C_R   0.526062 0.130537 0.276987 -0.177998
C182  C     C_R   0.473938 0.869463 0.723013 -0.177998
C183  C     C_R   0.269822 0.578468 0.096541 -0.171710
C184  C     C_R   0.730178 0.421532 0.903459 -0.171711
C185  C     C_R   0.129037 0.276452 0.522219 -0.180762
C186  C     C_R   0.870963 0.723548 0.477781 -0.180762
C187  C     C_R   0.891884 0.496812 0.670705 -0.180906
C188  C     C_R   0.108116 0.503188 0.329295 -0.180906
C189  C     C_R   0.486786 0.671969 0.889508 -0.172664
C190  C     C_R   0.513214 0.328031 0.110492 -0.172664
C191  C     C_R   0.672485 0.890673 0.490366 -0.174468
C192  C     C_R   0.327515 0.109327 0.509634 -0.174467
C193  C     C_R   0.513362 0.110558 0.328049 -0.175222
C194  C     C_R   0.486638 0.889442 0.671951 -0.175222
C195  C     C_R   0.320897 0.567625 0.077418 -0.180828
C196  C     C_R   0.679103 0.432375 0.922582 -0.180829
C197  C     C_R   0.109639 0.327733 0.509015 -0.177367
C198  C     C_R   0.890361 0.672267 0.490985 -0.177367
C199  C     C_R   0.940488 0.470244 0.648819 -0.058589
C200  C     C_R   0.059512 0.529756 0.351181 -0.058589
C201  C     C_R   0.469185 0.649240 0.940598 -0.065780
C202  C     C_R   0.530815 0.350760 0.059402 -0.065780
C203  C     C_R   0.649328 0.940971 0.468953 -0.063393
C204  C     C_R   0.350672 0.059029 0.531047 -0.063393
C205  C     C_R   0.530864 0.059398 0.350817 -0.067785
C206  C     C_R   0.469135 0.940602 0.649183 -0.067785
C207  C     C_R   0.351423 0.527568 0.059974 -0.063968
C208  C     C_R   0.648576 0.472432 0.940026 -0.063968
C209  C     C_R   0.059298 0.350756 0.530367 -0.064095
C210  C     C_R   0.940702 0.649244 0.469633 -0.064095
H1    H     H_    0.808025 0.439902 0.811636 0.139826
H2    H     H_    0.191974 0.560098 0.188363 0.139826
H3    H     H_    0.418766 0.818004 0.817959 0.144743
H4    H     H_    0.581234 0.181996 0.182041 0.144743
H5    H     H_    0.815254 0.814734 0.424166 0.143313
H6    H     H_    0.184746 0.185266 0.575834 0.143313
H7    H     H_    0.745668 0.968401 0.837546 0.147878
H8    H     H_    0.254332 0.031598 0.162453 0.147878
H9    H     H_    0.968499 0.837755 0.745815 0.147249
H10   H     H_    0.031501 0.162245 0.254185 0.147249
H11   H     H_    0.837925 0.745948 0.968349 0.147706
H12   H     H_    0.162075 0.254052 0.031650 0.147706
H13   H     H_    0.031381 0.254142 0.162156 0.147239
H14   H     H_    0.968619 0.745858 0.837844 0.147239
H15   H     H_    0.162176 0.031462 0.254366 0.147831
H16   H     H_    0.837824 0.968537 0.745634 0.147831
H17   H     H_    0.253999 0.162272 0.031751 0.147803
H18   H     H_    0.746001 0.837728 0.968249 0.147803
H19   H     H_    0.812844 0.440816 0.938560 0.164942
H20   H     H_    0.187156 0.559184 0.061440 0.164941
H21   H     H_    0.458216 0.931178 0.801398 0.180138
H22   H     H_    0.541784 0.068822 0.198602 0.180138
H23   H     H_    0.936497 0.808471 0.445968 0.158823
H24   H     H_    0.063503 0.191529 0.554031 0.158823
H25   H     H_    0.542078 0.198087 0.068923 0.180449
H26   H     H_    0.457922 0.801913 0.931077 0.180449
H27   H     H_    0.058695 0.563580 0.191327 0.164366
H28   H     H_    0.941305 0.436420 0.808673 0.164366
H29   H     H_    0.191634 0.061509 0.557863 0.165908
H30   H     H_    0.808366 0.938491 0.442137 0.165908
H31   H     H_    0.869852 0.528031 0.648176 0.146534
H32   H     H_    0.130148 0.471969 0.351824 0.146534
H33   H     H_    0.511610 0.650067 0.865219 0.156319
H34   H     H_    0.488390 0.349932 0.134781 0.156319
H35   H     H_    0.650807 0.866707 0.518600 0.149425
H36   H     H_    0.349193 0.133293 0.481400 0.149425
H37   H     H_    0.488605 0.134923 0.349880 0.153652
H38   H     H_    0.511395 0.865077 0.650120 0.153652
H39   H     H_    0.336555 0.590938 0.075377 0.153225
H40   H     H_    0.663445 0.409062 0.924623 0.153225
H41   H     H_    0.133639 0.349504 0.481267 0.149430
H42   H     H_    0.866361 0.650496 0.518733 0.149430
H43   H     H_    0.005702 0.408125 0.661080 0.165553
H44   H     H_    0.994298 0.591875 0.338920 0.165553
H45   H     H_    0.421404 0.660631 0.010877 0.167036
H46   H     H_    0.578596 0.339369 0.989123 0.167036
H47   H     H_    0.659896 0.010059 0.414185 0.168326
H48   H     H_    0.340103 0.989941 0.585815 0.168326
H49   H     H_    0.578514 0.988970 0.339535 0.171982
H50   H     H_    0.421485 0.011030 0.660465 0.171982
H51   H     H_    0.354981 0.465995 0.050152 0.169467
H52   H     H_    0.645019 0.534005 0.949848 0.169467
H53   H     H_    0.990107 0.339955 0.584341 0.169308
H54   H     H_    0.009893 0.660044 0.415659 0.169308
H55   H     H_    0.834965 0.506785 0.737894 0.157949
H56   H     H_    0.165035 0.493214 0.262106 0.157949
H57   H     H_    0.490541 0.739617 0.830094 0.142498
H58   H     H_    0.509459 0.260383 0.169906 0.142499
H59   H     H_    0.740767 0.832689 0.495570 0.143588
H60   H     H_    0.259233 0.167311 0.504430 0.143588
H61   H     H_    0.509641 0.170004 0.260421 0.142061
H62   H     H_    0.490359 0.829996 0.739579 0.142061
H63   H     H_    0.246509 0.610087 0.109212 0.162280
H64   H     H_    0.753490 0.389913 0.890788 0.162280
H65   H     H_    0.167702 0.259549 0.503498 0.144081
H66   H     H_    0.832298 0.740451 0.496502 0.144081
H67   H     H_    0.937398 0.400849 0.997912 0.164677
H68   H     H_    0.062601 0.599151 0.002088 0.164677
H69   H     H_    0.493584 0.863919 0.992856 0.187670
H70   H     H_    0.506416 0.136081 0.007144 0.187670
H71   H     H_    0.882571 0.929321 0.543628 0.164199
H72   H     H_    0.117429 0.070679 0.456372 0.164199
H73   H     H_    0.507416 0.006516 0.135712 0.188000
H74   H     H_    0.492584 0.993484 0.864288 0.188001
H75   H     H_    0.060071 0.462415 0.123141 0.165815
H76   H     H_    0.939930 0.537584 0.876859 0.165815
H77   H     H_    0.008804 0.054221 0.601836 0.161721
H78   H     H_    0.991196 0.945779 0.398164 0.161721
H79   H     H_    0.656407 0.003135 0.872589 0.164388
H80   H     H_    0.343593 0.996864 0.127411 0.164388
H81   H     H_    0.003270 0.872673 0.656613 0.163673
H82   H     H_    0.996730 0.127327 0.343387 0.163673
H83   H     H_    0.872801 0.656646 0.003159 0.164411
H84   H     H_    0.127199 0.343354 0.996841 0.164411
H85   H     H_    0.996670 0.343446 0.127171 0.163405
H86   H     H_    0.003330 0.656554 0.872829 0.163405
H87   H     H_    0.127234 0.996717 0.343559 0.164135
H88   H     H_    0.872766 0.003283 0.656441 0.164135
H89   H     H_    0.343275 0.127364 0.996877 0.164246
H90   H     H_    0.656725 0.872636 0.003123 0.164246
N1    N     N_R   0.829646 0.900300 0.829449 -0.282843
N2    N     N_R   0.170354 0.099700 0.170551 -0.282843
N3    N     N_R   0.900373 0.829717 0.829574 -0.283137
N4    N     N_R   0.099627 0.170283 0.170426 -0.283137
N5    N     N_R   0.829757 0.829706 0.900106 -0.282967
N6    N     N_R   0.170243 0.170293 0.099894 -0.282967
O1    O     O_R   0.003330 0.572150 0.937250 -0.625555
O2    O     O_R   0.996670 0.427850 0.062750 -0.625554
O3    O     O_R   0.572150 0.937250 0.003330 -0.621164
O4    O     O_R   0.427850 0.062750 0.996670 -0.621162
O5    O     O_R   0.937250 0.003330 0.572150 -0.624485
O6    O     O_R   0.062750 0.996670 0.427850 -0.624486
O7    O     O_R   0.427850 0.996670 0.062750 -0.621246
O8    O     O_R   0.572150 0.003330 0.937250 -0.621246
O9    O     O_R   0.062750 0.427850 0.996670 -0.620210
O10   O     O_R   0.937250 0.572150 0.003330 -0.620210
O11   O     O_R   0.996670 0.062750 0.427850 -0.621466
O12   O     O_R   0.003330 0.937250 0.572150 -0.621466
O13   O     O_R   0.996560 0.512880 0.063050 -0.612402
O14   O     O_R   0.003440 0.487120 0.936950 -0.612403
O15   O     O_R   0.512880 0.063050 0.996560 -0.619987
O16   O     O_R   0.487120 0.936950 0.003440 -0.619988
O17   O     O_R   0.063050 0.996560 0.512880 -0.609737
O18   O     O_R   0.936950 0.003440 0.487120 -0.609737
O19   O     O_R   0.487120 0.003440 0.936950 -0.620203
O20   O     O_R   0.512880 0.996560 0.063050 -0.620203
O21   O     O_R   0.936950 0.487120 0.003440 -0.610108
O22   O     O_R   0.063050 0.512880 0.996560 -0.610108
O23   O     O_R   0.003440 0.936950 0.487120 -0.611109
O24   O     O_R   0.996560 0.063050 0.512880 -0.611109
O25   O     O_R   0.488820 0.572080 0.003280 -0.612448
O26   O     O_R   0.511180 0.427920 0.996720 -0.612448
O27   O     O_R   0.572080 0.003280 0.488820 -0.606917
O28   O     O_R   0.427920 0.996720 0.511180 -0.606917
O29   O     O_R   0.003280 0.488820 0.572080 -0.606997
O30   O     O_R   0.996720 0.511180 0.427920 -0.606996
O31   O     O_R   0.427920 0.511180 0.996720 -0.605964
O32   O     O_R   0.572080 0.488820 0.003280 -0.605963
O33   O     O_R   0.996720 0.427920 0.511180 -0.609377
O34   O     O_R   0.003280 0.572080 0.488820 -0.609377
O35   O     O_R   0.511180 0.996720 0.427920 -0.607064
O36   O     O_R   0.488820 0.003280 0.572080 -0.607064
O37   O     O_R   0.427880 0.513270 0.062460 -0.622039
O38   O     O_R   0.572120 0.486730 0.937540 -0.622038
O39   O     O_R   0.513270 0.062460 0.427880 -0.625743
O40   O     O_R   0.486730 0.937540 0.572120 -0.625742
O41   O     O_R   0.062460 0.427880 0.513270 -0.622161
O42   O     O_R   0.937540 0.572120 0.486730 -0.622160
O43   O     O_R   0.486730 0.572120 0.937540 -0.620323
O44   O     O_R   0.513270 0.427880 0.062460 -0.620323
O45   O     O_R   0.937540 0.486730 0.572120 -0.621351
O46   O     O_R   0.062460 0.513270 0.427880 -0.621352
O47   O     O_R   0.572120 0.937540 0.486730 -0.622612
O48   O     O_R   0.427880 0.062460 0.513270 -0.622613
Zn1   Zn    Zn3+2 0.044470 0.500000 0.955530 0.988460
Zn2   Zn    Zn3+2 0.955530 0.500000 0.044470 0.988460
Zn3   Zn    Zn3+2 0.500000 0.955530 0.044470 0.987528
Zn4   Zn    Zn3+2 0.500000 0.044470 0.955530 0.987528
Zn5   Zn    Zn3+2 0.955530 0.044470 0.500000 0.988227
Zn6   Zn    Zn3+2 0.044470 0.955530 0.500000 0.988227
Zn7   Zn    Zn3+2 0.500090 0.500090 0.045140 0.990712
Zn8   Zn    Zn3+2 0.499910 0.499910 0.954860 0.990712
Zn9   Zn    Zn3+2 0.500090 0.045140 0.500090 0.990396
Zn10  Zn    Zn3+2 0.499910 0.954860 0.499910 0.990396
Zn11  Zn    Zn3+2 0.045140 0.500090 0.500090 0.988874
Zn12  Zn    Zn3+2 0.954860 0.499910 0.499910 0.988875
I1    I     I_    0.991372 0.349603 0.770808 -0.302283
I2    I     I_    0.008628 0.650397 0.229192 -0.302282
I3    I     I_    0.368956 0.770523 0.000328 -0.321749
I4    I     I_    0.631044 0.229477 0.999672 -0.321749
I5    I     I_    0.769065 0.999642 0.356153 -0.301864
I6    I     I_    0.230935 0.000358 0.643847 -0.301864
I7    I     I_    0.630926 0.999383 0.229815 -0.306665
I8    I     I_    0.369074 0.000616 0.770185 -0.306665
I9    I     I_    0.255195 0.453042 0.094118 -0.317469
I10   I     I_    0.744805 0.546958 0.905882 -0.317469
I11   I     I_    0.000281 0.231027 0.641195 -0.280809
I12   I     I_    0.999719 0.768973 0.358805 -0.280810
I13   I     I_    0.901806 0.344160 0.978775 -0.306816
I14   I     I_    0.098193 0.655841 0.021226 -0.306815
I15   I     I_    0.533933 0.780761 0.955475 -0.330712
I16   I     I_    0.466067 0.219239 0.044525 -0.330712
I17   I     I_    0.817806 0.879930 0.555726 -0.349389
I18   I     I_    0.182194 0.120070 0.444274 -0.349389
I19   I     I_    0.466864 0.043304 0.219174 -0.334582
I20   I     I_    0.533136 0.956696 0.780826 -0.334582
I21   I     I_    0.104272 0.452063 0.190713 -0.320984
I22   I     I_    0.895729 0.547936 0.809286 -0.320984
I23   I     I_    0.030892 0.087908 0.657783 -0.251878
I24   I     I_    0.969108 0.912092 0.342217 -0.251878

loop_
_geom_bond_atom_site_label_1
_geom_bond_atom_site_label_2
_ccdc_geom_bond_type
O44   Zn7   S    
C126  C127  A    
C13   C25   A    
C123  H87   S    
C45   C57   A    
C12   H48   S    
C18   C210  A    
C147  C164  A    
C185  H65   S    
C186  H66   S    
C183  H63   S    
C21   C33   A    
C28   C40   A    
O5    Zn5   S    
C105  C123  A    
C164  H20   S    
C88   O34   A    
C103  H13   S    
O47   Zn10  S    
O23   Zn6   S    
C89   C205  S    
O3    Zn3   S    
C79   C201  S    
C47   I17   S    
C182  C194  A    
C97   C115  A    
O35   Zn10  S    
C176  H56   S    
C161  H5    S    
C19   C31   A    
C194  H38   S    
C35   C179  A    
C149  C168  A    
C191  C203  A    
O15   Zn4   S    
C94   N2    A    
C176  C188  A    
C145  C166  A    
C156  C173  A    
C3    O8    A    
C22   I4    S    
C101  C137  A    
C26   C38   A    
C94   N4    A    
C171  H27   S    
C72   C113  S    
C144  C162  A    
O13   Zn2   S    
O38   Zn8   S    
C15   C27   A    
C37   C181  A    
C192  C204  A    
C14   C26   A    
C44   C74   A    
C10   C202  A    
C55   H67   S    
C7    C19   A    
C14   C206  A    
C191  H35   S    
C103  C121  A    
O7    Zn3   S    
C102  H12   S    
C84   O46   A    
C167  H23   S    
C150  C161  A    
O31   Zn8   S    
C50   I20   S    
O11   Zn5   S    
C20   I2    S    
C45   I15   S    
C1    C131  S    
O45   Zn12  S    
C29   I11   S    
C65   H77   S    
O41   Zn11  S    
C66   H78   S    
C53   C78   A    
C36   C144  S    
C120  H84   S    
C108  C133  A    
C112  O16   A    
C11   C23   A    
C85   O37   A    
C63   H75   S    
C47   C59   A    
C179  C191  A    
C139  C157  A    
O30   Zn12  S    
C165  H21   S    
C95   N3    A    
C149  C162  A    
C185  C197  A    
C87   O33   A    
C95   N5    A    
C31   C139  S    
O24   Zn5   S    
C172  H28   S    
C43   C73   A    
C48   I18   S    
O9    Zn1   S    
O36   Zn9   S    
C97   C133  A    
C6    C130  S    
C9    C21   A    
C162  H6    S    
O19   Zn4   S    
C24   C36   A    
C61   H73   S    
C107  C134  A    
C186  C198  A    
C177  H57   S    
C96   C138  S    
C178  H58   S    
C104  C122  A    
C197  H41   S    
C80   O44   A    
C192  H36   S    
O32   Zn7   S    
C116  H80   S    
C38   C146  S    
C109  O22   A    
C140  C158  A    
C141  C159  A    
C107  H17   S    
C153  C170  A    
C189  H33   S    
C119  C131  A    
C27   I9    S    
C117  C129  A    
C54   C77   A    
C46   C58   A    
C9    H45   S    
C5    O5    A    
O17   Zn6   S    
O1    Zn1   S    
C22   C34   A    
C95   C137  S    
C193  C205  A    
O29   Zn11  S    
C33   C177  A    
O27   Zn9   S    
C107  C125  A    
C155  C167  A    
C190  C202  A    
C33   C141  S    
C56   C68   A    
C85   O31   A    
C196  C208  A    
C15   H51   S    
C99   C117  A    
C75   C153  S    
C67   C110  S    
C2    C132  S    
C160  H4    S    
O8    Zn4   S    
C91   N5    A    
C155  C174  A    
C43   C55   A    
C146  C165  A    
C157  H1    S    
C140  C171  A    
C123  C130  A    
C121  H85   S    
C86   O38   A    
C8    C200  A    
C122  H86   S    
C121  C132  A    
C196  H40   S    
C122  C131  A    
C124  H88   S    
C85   C207  S    
C20   C32   A    
C63   C68   A    
C166  H22   S    
C169  H25   S    
C29   C41   A    
C30   C42   A    
C92   C134  S    
C88   O42   A    
C93   C135  S    
C4    O7    A    
C173  H29   S    
C79   O43   A    
C54   C66   A    
C65   C72   A    
O46   Zn11  S    
C12   C24   A    
C38   C182  A    
C108  C126  A    
C13   H49   S    
C14   H50   S    
C113  O24   A    
C77   C155  S    
C78   C156  S    
C92   N6    A    
C76   C154  S    
C143  C161  A    
C148  C157  A    
C12   C204  A    
C60   C72   A    
C198  C210  A    
C175  C187  A    
C52   I22   S    
C198  H42   S    
C112  O19   A    
C53   I23   S    
C91   N1    A    
C89   O35   A    
C1    O10   A    
C51   I21   S    
C2    O9    A    
C88   C210  S    
C96   N4    A    
C110  O21   A    
C147  C158  A    
C49   I19   S    
C104  H14   S    
C15   C207  A    
C100  C136  A    
C181  H61   S    
C61   C70   A    
C182  H62   S    
C190  H34   S    
C159  H3    S    
C17   C29   A    
C119  H83   S    
C188  H32   S    
C36   C180  A    
C51   C74   A    
C83   O45   A    
C10   C22   A    
C1    O1    A    
C80   O26   A    
C2    O2    A    
C109  O13   A    
C10   H46   S    
C154  C169  A    
C110  O14   A    
C62   H74   S    
C32   C140  S    
C17   C209  A    
C178  C190  A    
C69   C112  S    
C104  C137  A    
O28   Zn10  S    
C4    O4    A    
C90   C206  S    
C46   I16   S    
O14   Zn1   S    
C80   C202  S    
C6    O6    A    
C183  C195  A    
C41   C149  S    
C19   I1    S    
C181  C193  A    
C153  C165  A    
C5    C129  S    
C59   H71   S    
C105  H15   S    
C117  H81   S    
C158  H2    S    
C87   C209  S    
O16   Zn3   S    
C118  H82   S    
C81   O47   A    
O4    Zn4   S    
C5    O12   A    
O12   Zn6   S    
C179  H59   S    
C184  H64   S    
C49   C61   A    
C4    C128  S    
C23   I5    S    
C90   O36   A    
C51   C63   A    
C52   C64   A    
C103  C138  A    
C86   C208  S    
C40   C148  S    
C16   C208  A    
C184  C196  A    
C170  H26   S    
C62   C69   A    
C187  C199  A    
C118  C130  A    
C174  H30   S    
C44   C56   A    
C66   C71   A    
O37   Zn7   S    
O33   Zn12  S    
C99   C135  A    
C139  C172  A    
C11   C203  A    
C113  O17   A    
C145  C160  A    
C9    C201  A    
C142  C169  A    
C99   H9    S    
O25   Zn7   S    
C23   C35   A    
C57   C69   A    
C13   C205  A    
C34   C178  A    
C100  C118  A    
C54   I24   S    
C11   H47   S    
C102  C120  A    
C168  H24   S    
C101  H11   S    
C84   O30   A    
C34   C142  S    
C58   C70   A    
C30   I12   S    
O10   Zn2   S    
C108  H18   S    
O40   Zn10  S    
C50   C75   A    
C82   O48   A    
C150  C167  A    
C141  C170  A    
C124  C129  A    
C79   O25   A    
C68   C109  S    
C111  O20   A    
C70   C111  S    
C195  C207  A    
C71   C114  S    
C81   O27   A    
C28   I10   S    
C156  C168  A    
C154  C166  A    
C83   O29   A    
C143  C174  A    
C39   C183  A    
C35   C143  S    
C40   C184  A    
O22   Zn1   S    
C16   C28   A    
O18   Zn5   S    
C187  H31   S    
C175  H55   S    
C46   C76   A    
O20   Zn3   S    
C81   C203  S    
C31   C175  A    
C84   C200  S    
C32   C176  A    
C8    C20   A    
C97   H7    S    
C93   N1    A    
C24   I6    S    
C87   O41   A    
C125  H89   S    
C3    C127  S    
C126  H90   S    
C89   O39   A    
C43   I13   S    
C115  C127  A    
C102  C138  A    
C48   C78   A    
C25   C37   A    
C26   I8    S    
C27   C39   A    
C144  C173  A    
C115  H79   S    
C125  C128  A    
C94   C136  S    
C106  H16   S    
C18   C30   A    
C188  C200  A    
C96   N6    A    
C42   C186  A    
C7    H43   S    
C3    O3    A    
C74   C152  S    
C114  O18   A    
C111  O15   A    
C48   C60   A    
C194  C206  A    
C177  C189  A    
C56   H68   S    
C101  C119  A    
C64   C67   A    
C82   O28   A    
O6    Zn6   S    
C52   C73   A    
C180  C192  A    
C152  C171  A    
C146  C159  A    
C58   H70   S    
C189  C201  A    
O2    Zn2   S    
O48   Zn9   S    
C86   O32   A    
C25   I7    S    
C17   H53   S    
C18   H54   S    
O43   Zn8   S    
C98   C116  A    
C91   C133  S    
O39   Zn9   S    
C193  H37   S    
C49   C76   A    
C41   C185  A    
C100  H10   S    
C152  C164  A    
C105  C136  A    
C57   H69   S    
C6    O11   A    
C106  C135  A    
C151  C163  A    
C50   C62   A    
C90   O40   A    
C47   C77   A    
C83   C199  S    
C53   C65   A    
C64   H76   S    
O26   Zn8   S    
C92   N2    A    
C120  C132  A    
C148  C163  A    
C93   N3    A    
C142  C160  A    
C163  H19   S    
C55   C67   A    
O21   Zn2   S    
C98   C134  A    
O34   Zn11  S    
C45   C75   A    
C37   C145  S    
C98   H8    S    
C114  O23   A    
C16   H52   S    
C82   C204  S    
O42   Zn12  S    
C195  H39   S    
C8    H44   S    
C60   H72   S    
C7    C199  A    
C42   C150  S    
C180  H60   S    
C197  C209  A    
C21   I3    S    
C116  C128  A    
C39   C147  S    
C106  C124  A    
C44   I14   S    
C73   C151  S    
C151  C172  A    
C59   C71   A    
