data_mof_unit_55056.cif
_audit_creation_date              2012-12-10T20:27:15-0500
_audit_creation_method            fapswitch 2.2
_symmetry_space_group_name_H-M    P1
_symmetry_Int_Tables_number       1
_space_group_crystal_system       triclinic
_cell_length_a                    10.783867
_cell_length_b                    10.69499
_cell_length_c                    9.891974
_cell_angle_alpha                 89.670457
_cell_angle_beta                  104.807693
_cell_angle_gamma                 90.64981
_cell_volume                      1102.90926855

loop_
_atom_site_label
_atom_site_type_symbol
_atom_type_description
_atom_site_fract_x
_atom_site_fract_y
_atom_site_fract_z
_atom_type_partial_charge
C1    C     C_R   0.503292 0.259986 0.501323 0.909137
C2    C     C_R   0.611760 0.504942 0.102635 -0.089815
C3    C     C_R   0.611740 0.504711 0.959096 -0.083878
C4    C     C_R   0.258955 0.501728 0.440376 0.966944
C5    C     C_R   0.387464 0.505408 0.897605 0.221033
C6    C     C_3   0.278550 0.413827 0.861825 -0.480194
C7    C     C_3   0.278326 0.412520 0.015348 -0.206173
C8    C     C_R   0.504382 0.739881 0.500976 0.882862
C9    C     C_R   0.741053 0.498561 0.559452 0.925135
C10   C     C_2   0.122034 0.487147 0.403901 -0.331998
C11   C     C_2   0.058261 0.531264 0.491861 0.114599
C12   C     C_R   0.522048 0.128510 0.507518 -0.061052
C13   C     C_2   0.878436 0.509120 0.595182 -0.403659
C14   C     C_2   0.941652 0.465211 0.505622 0.124874
C15   C     C_R   0.522336 0.062606 0.629703 -0.054748
C16   C     C_R   0.546901 0.065813 0.393047 -0.203623
C17   C     C_R   0.548063 0.936495 0.392858 -0.172680
C18   C     C_R   0.524771 0.871291 0.507344 -0.113730
C19   C     C_R   0.524453 0.934829 0.629699 0.023342
C20   C     C_3   0.436503 0.921469 0.724108 0.200121
C21   C     C_3   0.433242 0.064347 0.724685 0.366440
C22   C     C_R   0.387530 0.504243 0.039939 0.240830
Cl1   Cl    Cl    0.514194 0.847584 0.886249 -0.624637
Cl2   Cl    Cl    0.276645 0.123179 0.644260 -0.681868
H1    H     H_    0.702380 0.507242 0.180791 0.167077
H2    H     H_    0.343624 0.875988 0.671149 0.146740
H3    H     H_    0.968910 0.290013 0.443193 0.205765
H4    H     H_    0.819839 0.311659 0.449100 0.188242
H5    H     H_    0.587482 0.094961 0.896182 0.204724
H6    H     H_    0.493608 0.218048 0.848167 0.205664
H7    H     H_    0.249579 0.224491 0.028870 0.220854
H8    H     H_    0.303169 0.295085 0.182349 0.225840
H9    H     H_    0.124033 0.626994 0.675693 0.184652
H10   H     H_    0.031320 0.710984 0.542651 0.196493
H11   H     H_    0.702013 0.506715 0.930479 0.149382
H12   H     H_    0.189676 0.453875 0.794805 0.189964
H13   H     H_    0.306000 0.324363 0.822885 0.264150
H14   H     H_    0.189686 0.450926 0.036660 0.162865
H15   H     H_    0.920766 0.576453 0.675804 0.130850
H16   H     H_    0.081136 0.418148 0.324449 0.133228
H17   H     H_    0.556899 0.115459 0.300567 0.186549
H18   H     H_    0.558282 0.888535 0.300192 0.198708
N1    N     N_R   0.499160 0.499140 0.142600 -0.103970
N2    N     N_R   0.499160 0.499180 0.856960 -0.104588
N3    N     N_3   0.895837 0.356217 0.419929 -0.443198
N4    N     N_3   0.491376 0.121275 0.861211 -0.387250
N5    N     N_3   0.315795 0.291361 0.081287 -0.398139
N6    N     N_3   0.103763 0.644298 0.568513 -0.443464
O1    O     O_R   0.500020 0.316790 0.614700 -0.613476
O2    O     O_R   0.500000 0.316760 0.385350 -0.635711
O3    O     O_R   0.317820 0.500020 0.571850 -0.581828
O4    O     O_R   0.317800 0.499980 0.342510 -0.637080
O5    O     O_R   0.500000 0.683240 0.614650 -0.577736
O6    O     O_R   0.499980 0.683210 0.385300 -0.615307
O7    O     O_R   0.682200 0.500020 0.657490 -0.624157
O8    O     O_R   0.682180 0.499980 0.428150 -0.607662
Zn1   Zn    Zn3+2 0.500010 0.500020 0.653140 0.984622
Zn2   Zn    Zn3+2 0.499990 0.499980 0.346860 0.959934

loop_
_geom_bond_atom_site_label_1
_geom_bond_atom_site_label_2
_ccdc_geom_bond_type
C8    O5    A    
C20   Cl1   S    
C6    C7    S    
O3    Zn1   S    
C14   N3    S    
C2    N1    A    
C7    N5    S    
C1    O2    A    
N2    Zn1   S    
H6    N4    S    
C19   C20   S    
C12   C15   A    
C3    H11   S    
H5    N4    S    
H3    N3    S    
C2    C3    A    
C6    H13   S    
C9    O8    A    
H7    N5    S    
C13   C14   D    
C15   C19   A    
C11   N6    S    
C1    C12   S    
O4    Zn2   S    
C4    O4    A    
C9    O7    A    
C21   N4    S    
C11   C14   S    
C7    H14   S    
C6    H12   S    
C17   C18   A    
C2    H1    S    
O7    Zn1   S    
C5    C6    S    
C3    N2    A    
H8    N5    S    
H4    N3    S    
C13   H15   S    
H10   N6    S    
C10   C11   D    
C4    O3    A    
C4    C10   S    
C7    C22   S    
C12   C16   A    
C15   C21   S    
O1    Zn1   S    
C20   C21   S    
C10   H16   S    
C18   C19   A    
O6    Zn2   S    
C21   Cl2   S    
C8    O6    A    
H9    N6    S    
O5    Zn1   S    
C17   H18   S    
C9    C13   S    
N1    Zn2   S    
C1    O1    A    
C16   H17   S    
C5    N2    A    
C8    C18   S    
C5    C22   A    
C22   N1    A    
O8    Zn2   S    
C16   C17   A    
C20   H2    S    
O2    Zn2   S    
