data_mof_unit_67631.cif
_audit_creation_date              2012-10-26T18:56:24-0400
_audit_creation_method            fapswitch 2.2
_symmetry_space_group_name_H-M    P1
_symmetry_Int_Tables_number       1
_space_group_crystal_system       triclinic
_cell_length_a                    10.716345
_cell_length_b                    10.760595
_cell_length_c                    9.574737
_cell_angle_alpha                 88.776613
_cell_angle_beta                  91.531286
_cell_angle_gamma                 92.056349
_cell_volume                      1102.76873289

loop_
_atom_site_label
_atom_site_type_symbol
_atom_type_description
_atom_site_fract_x
_atom_site_fract_y
_atom_site_fract_z
_atom_type_partial_charge
C1    C     C_R   0.501459 0.259822 0.501012 0.553474
C2    C     C_3   0.424726 0.414287 0.049336 0.369106
C3    C     C_R   0.259929 0.495855 0.499086 0.581173
C4    C     C_R   0.740108 0.503779 0.501078 0.579909
C5    C     C_3   0.034637 0.390859 0.557864 0.273400
C6    C     C_3   0.965594 0.607982 0.443418 0.272068
C7    C     C_3   0.949086 0.404903 0.426460 -0.043111
C8    C     C_3   0.051016 0.593916 0.574702 -0.044784
C9    C     C_3   0.877349 0.504427 0.500852 -0.025915
C10   C     C_3   0.122740 0.494523 0.500138 -0.025943
C11   C     C_3   0.961731 0.489930 0.632910 -0.118234
C12   C     C_R   0.498509 0.740207 0.498932 0.554858
C13   C     C_3   0.038343 0.508919 0.368324 -0.117978
C14   C     C_3   0.608951 0.041194 0.554023 -0.012422
C15   C     C_3   0.391128 0.958974 0.445558 -0.014789
C16   C     C_3   0.593615 0.962595 0.421581 -0.122419
C17   C     C_3   0.406440 0.037518 0.578052 -0.122439
C18   C     C_3   0.497738 0.877557 0.497983 0.038576
C19   C     C_3   0.502293 0.122534 0.501702 0.037136
C20   C     C_3   0.880329 0.314118 0.326711 -0.254396
C21   C     C_3   0.960943 0.212253 0.274944 -0.411115
C22   C     C_3   0.119464 0.685242 0.674061 -0.247230
C23   C     C_3   0.514108 0.954773 0.631286 -0.108919
C24   C     C_3   0.037972 0.785829 0.727386 -0.396757
C25   C     C_3   0.737163 0.088379 0.607826 -0.256090
C26   C     C_3   0.799850 0.991698 0.700293 -0.373891
C27   C     C_3   0.262951 0.912550 0.390900 -0.264672
C28   C     C_3   0.200659 0.010311 0.299373 -0.359024
C29   C     C_3   0.394937 0.719293 0.086911 -0.248318
C30   C     C_3   0.476264 0.837254 0.093607 -0.393421
C31   C     C_3   0.605424 0.280926 0.912636 -0.251082
C32   C     C_3   0.524460 0.162720 0.905872 -0.392900
C33   C     C_3   0.485980 0.045383 0.368366 -0.111550
C34   C     C_3   0.466836 0.605928 0.045976 0.061585
C35   C     C_3   0.533307 0.394074 0.953925 0.054802
C36   C     C_3   0.391532 0.519845 0.945166 -0.012365
C37   C     C_3   0.608574 0.480123 0.054859 -0.015312
C38   C     C_3   0.575419 0.585623 0.950565 0.368096
Cu1   Cu    Cu3+1 0.500030 0.499990 0.643150 1.048577
Cu2   Cu    Cu3+1 0.499970 0.500010 0.356850 1.053495
H1    H     H_    0.929318 0.479705 0.741321 0.221273
H2    H     H_    0.957586 0.131150 0.347699 0.208499
H3    H     H_    0.924316 0.180070 0.171771 0.127853
H4    H     H_    0.795711 0.272924 0.375822 0.134718
H5    H     H_    0.848429 0.369028 0.234261 0.165129
H6    H     H_    0.041833 0.868247 0.656496 0.202326
H7    H     H_    0.940474 0.750458 0.737386 0.234557
H8    H     H_    0.073593 0.816259 0.831645 0.136766
H9    H     H_    0.152824 0.630430 0.765863 0.169892
H10   H     H_    0.203114 0.727666 0.624102 0.131751
H11   H     H_    0.030300 0.179162 0.859246 0.368097
H12   H     H_    0.071151 0.519347 0.260210 0.231447
H13   H     H_    0.979185 0.826863 0.148357 0.355288
H14   H     H_    0.745931 0.973202 0.795885 0.162272
H15   H     H_    0.806705 0.905183 0.641240 0.232540
H16   H     H_    0.895113 0.024722 0.731816 0.194898
H17   H     H_    0.797332 0.108641 0.517755 0.181131
H18   H     H_    0.728970 0.174924 0.665951 0.159426
H19   H     H_    0.195293 0.096657 0.359015 0.232685
H20   H     H_    0.253518 0.028883 0.202892 0.186814
H21   H     H_    0.104800 0.978364 0.269047 0.187739
H22   H     H_    0.271097 0.826619 0.331704 0.159288
H23   H     H_    0.671593 0.932151 0.358191 0.183520
H24   H     H_    0.202568 0.891441 0.480675 0.183630
H25   H     H_    0.554673 0.826100 0.169810 0.236156
H26   H     H_    0.512033 0.861647 0.988613 0.181945
H27   H     H_    0.418847 0.914515 0.125232 0.114734
H28   H     H_    0.318997 0.736833 0.008237 0.121557
H29   H     H_    0.348702 0.698218 0.186557 0.193073
H30   H     H_    0.491055 0.136707 0.011430 0.175750
H31   H     H_    0.444478 0.174287 0.831786 0.230786
H32   H     H_    0.581582 0.086274 0.871661 0.115549
H33   H     H_    0.651459 0.302232 0.812921 0.191778
H34   H     H_    0.328540 0.068025 0.641512 0.185056
H35   H     H_    0.681605 0.263493 0.991047 0.116862
H36   H     H_    0.814969 0.838271 0.980582 0.346203
H37   H     H_    0.096606 0.353528 0.032728 0.378128
H38   H     H_    0.523742 0.914152 0.738190 0.147612
H39   H     H_    0.476098 0.086072 0.261509 0.146358
H40   H     H_    0.298949 0.535494 0.895475 0.158236
H41   H     H_    0.701349 0.464707 0.104364 0.152826
H42   H     H_    0.058353 0.247272 0.263252 0.229436
N1    N     N_3   0.500090 0.499970 0.858290 -0.288840
N2    N     N_3   0.499910 0.500030 0.141710 -0.285089
O1    O     O_R   0.500060 0.316850 0.620870 -0.513339
O2    O     O_2   0.213520 0.274265 0.708192 -0.255034
O3    O     O_3   0.988081 0.239406 0.796009 -0.575993
O4    O     O_2   0.787907 0.726640 0.294018 -0.242859
O5    O     O_2   0.934995 0.857789 0.429865 -0.358464
O6    O     O_3   0.013787 0.757918 0.205498 -0.544760
O7    O     O_2   0.822782 0.598141 0.914535 -0.325628
O8    O     O_2   0.699115 0.727198 0.755756 -0.317238
O9    O     O_3   0.735304 0.797866 0.010220 -0.544833
O10   O     O_2   0.273097 0.210679 0.004356 -0.348472
O11   O     O_2   0.296350 0.278386 0.245409 -0.299378
O12   O     O_R   0.499940 0.683150 0.379130 -0.514046
O13   O     O_3   0.163148 0.409377 0.072555 -0.563904
O14   O     O_R   0.500000 0.316860 0.379090 -0.474506
O15   O     O_R   0.500000 0.683140 0.620910 -0.471696
O16   O     O_R   0.316880 0.499960 0.620870 -0.494771
O17   O     O_R   0.683120 0.500040 0.379130 -0.492440
O18   O     O_R   0.316830 0.499970 0.379090 -0.463154
O19   O     O_R   0.683170 0.500030 0.620910 -0.467817
O20   O     O_2   0.068691 0.141414 0.571649 -0.350094
S1    S     S_3+6 0.080527 0.256386 0.657226 -0.024977
S2    S     S_3+6 0.921211 0.742868 0.344358 -0.018385
S3    S     S_3+6 0.710916 0.678133 0.902355 -0.017089
S4    S     S_3+6 0.289028 0.321671 0.096287 -0.021952

loop_
_geom_bond_atom_site_label_1
_geom_bond_atom_site_label_2
_ccdc_geom_bond_type
C2    C35   S    
C15   C18   S    
C38   N1    S    
Cu2   N2    S    
C2    N2    S    
C26   H15   S    
C6    C9    S    
C32   H32   S    
C5    S1    S    
C31   H35   S    
O10   S4    D    
C17   C23   S    
C25   H17   S    
C35   C37   S    
C37   C38   S    
C5    C11   S    
Cu2   O14   S    
H36   O9    S    
C31   H33   S    
C36   N1    S    
C29   H28   S    
C4    O19   A    
C15   C17   S    
C38   S3    S    
C12   O15   A    
Cu2   O17   S    
C21   H3    S    
O13   S4    S    
Cu1   O15   S    
C3    O16   A    
O5    S2    D    
C8    C22   S    
C37   N2    S    
H37   O13   S    
C16   H23   S    
C34   C36   S    
C20   H5    S    
C22   H10   S    
C28   H21   S    
C14   C25   S    
C37   H41   S    
C34   N2    S    
Cu2   O12   S    
C26   H14   S    
O20   S1    D    
C20   H4    S    
C32   H31   S    
C29   H29   S    
C28   H20   S    
C1    O1    A    
C1    C19   S    
C18   C23   S    
C24   H8    S    
O7    S3    D    
O6    S2    S    
C36   H40   S    
H11   O3    S    
Cu1   Cu2   S    
C5    C7    S    
C35   N1    S    
C33   H39   S    
C6    C8    S    
C25   C26   S    
C29   C34   S    
C14   C23   S    
C29   C30   S    
C27   H22   S    
C16   C33   S    
C13   H12   S    
O4    S2    D    
O8    S3    D    
C15   C27   S    
C31   C32   S    
O3    S1    S    
C4    O17   A    
C6    S2    S    
C21   H42   S    
C9    C11   S    
C30   H26   S    
C22   H9    S    
C3    O18   A    
C16   C18   S    
C19   C33   S    
C17   H34   S    
C22   C24   S    
O2    S1    D    
C25   H18   S    
Cu1   O1    S    
H13   O6    S    
C28   H19   S    
C2    C36   S    
C7    C9    S    
C14   C16   S    
C34   C38   S    
C24   H7    S    
C14   C19   S    
C30   H27   S    
C10   C13   S    
C26   H16   S    
C1    O14   A    
C32   H30   S    
Cu1   O19   S    
C24   H6    S    
Cu1   N1    S    
C5    C10   S    
C3    C10   S    
O9    S3    S    
C6    C13   S    
Cu1   O16   S    
C8    C11   S    
C2    S4    S    
C17   C19   S    
C11   H1    S    
C31   C35   S    
C23   H38   S    
C30   H25   S    
O11   S4    D    
Cu2   O18   S    
C21   H2    S    
C7    C13   S    
C20   C21   S    
C8    C10   S    
C7    C20   S    
C12   C18   S    
C27   C28   S    
C27   H24   S    
C12   O12   A    
C4    C9    S    
C15   C33   S    
