data_mof_unit_17634.cif
_audit_creation_date              2013-03-05T15:39:51-0500
_audit_creation_method            fapswitch 2.2
_symmetry_space_group_name_H-M    P1
_symmetry_Int_Tables_number       1
_space_group_crystal_system       triclinic
_cell_length_a                    16.987707
_cell_length_b                    16.987746
_cell_length_c                    16.989006
_cell_angle_alpha                 64.55785
_cell_angle_beta                  64.556185
_cell_angle_gamma                 64.557764
_cell_volume                      3813.0845784

loop_
_atom_site_label
_atom_site_type_symbol
_atom_site_description
_atom_site_fract_x
_atom_site_fract_y
_atom_site_fract_z
_atom_type_partial_charge
O1    O     O_R   0.982940 0.138950 0.510160 -0.587186
O2    O     O_R   0.017060 0.861050 0.489840 -0.590309
O3    O     O_R   0.138950 0.510160 0.982940 -0.587252
O4    O     O_R   0.861050 0.489840 0.017060 -0.590283
O5    O     O_R   0.510160 0.982940 0.138950 -0.587117
O6    O     O_R   0.489840 0.017060 0.861050 -0.590317
O7    O     O_R   0.489840 0.861050 0.017060 -0.587214
O8    O     O_R   0.510160 0.138950 0.982940 -0.590333
O9    O     O_R   0.017060 0.489840 0.861050 -0.587299
O10   O     O_R   0.982940 0.510160 0.138950 -0.590340
O11   O     O_R   0.861050 0.017060 0.489840 -0.587243
O12   O     O_R   0.138950 0.982940 0.510160 -0.590325
C1    C     C_R   0.587147 0.032855 0.597703 0.157946
C2    C     C_R   0.402149 0.967747 0.412612 0.157681
C3    C     C_R   0.032567 0.597755 0.587276 0.157887
C4    C     C_R   0.967364 0.412785 0.402232 0.157749
C5    C     C_R   0.597752 0.587206 0.032679 0.157822
C6    C     C_R   0.412713 0.402206 0.967509 0.157889
O13   O     O_R   0.867700 0.025880 0.612340 -0.624955
O14   O     O_R   0.132300 0.974120 0.387660 -0.632520
O15   O     O_R   0.025880 0.612340 0.867700 -0.624938
O16   O     O_R   0.974120 0.387660 0.132300 -0.632546
O17   O     O_R   0.612340 0.867700 0.025880 -0.624957
O18   O     O_R   0.387660 0.132300 0.974120 -0.632571
O19   O     O_R   0.387660 0.974120 0.132300 -0.624964
O20   O     O_R   0.612340 0.025880 0.867700 -0.632602
O21   O     O_R   0.132300 0.387660 0.974120 -0.624952
O22   O     O_R   0.867700 0.612340 0.025880 -0.632557
O23   O     O_R   0.974120 0.132300 0.387660 -0.624935
O24   O     O_R   0.025880 0.867700 0.612340 -0.632556
C7    C     C_R   0.975274 0.177124 0.431404 0.910674
C8    C     C_R   0.041798 0.821450 0.560598 0.862704
C9    C     C_R   0.177122 0.431404 0.975275 0.910695
C10   C     C_R   0.821451 0.560583 0.041833 0.862641
C11   C     C_R   0.431387 0.975314 0.177109 0.910754
C12   C     C_R   0.560585 0.041831 0.821456 0.862632
C13   C     C_R   0.568598 0.822873 0.024726 0.910701
C14   C     C_R   0.439408 0.178552 0.958191 0.862594
C15   C     C_R   0.024737 0.568590 0.822876 0.910713
C16   C     C_R   0.958182 0.439408 0.178548 0.862585
C17   C     C_R   0.822867 0.024752 0.568586 0.910700
C18   C     C_R   0.178556 0.958210 0.439398 0.862650
Zn1   Zn    Zn3+2 0.004880 0.004880 0.583590 1.111205
Zn2   Zn    Zn3+2 0.995120 0.995120 0.416410 1.111198
Zn3   Zn    Zn3+2 0.004880 0.583590 0.004880 1.111158
Zn4   Zn    Zn3+2 0.995120 0.416410 0.995120 1.111197
Zn5   Zn    Zn3+2 0.583590 0.004880 0.004880 1.111262
Zn6   Zn    Zn3+2 0.416410 0.995120 0.995120 1.111182
C19   C     C_R   0.538085 0.017189 0.550820 -0.192968
C20   C     C_R   0.448946 0.983700 0.461559 -0.192864
C21   C     C_R   0.016705 0.550953 0.538279 -0.192980
C22   C     C_R   0.983143 0.461811 0.449080 -0.192867
C23   C     C_R   0.550898 0.538173 0.016918 -0.192860
C24   C     C_R   0.461696 0.449013 0.983382 -0.192983
C25   C     C_R   0.578660 0.016222 0.458203 0.198467
C26   C     C_R   0.402542 0.999226 0.548584 0.204786
C27   C     C_R   0.015580 0.458375 0.578864 0.198517
C28   C     C_R   0.998651 0.548855 0.402732 0.204961
C29   C     C_R   0.458354 0.578851 0.015666 0.198430
C30   C     C_R   0.548622 0.402556 0.999120 0.204836
C31   C     C_R   0.541443 0.985134 0.420845 0.198568
C32   C     C_R   0.451142 0.001475 0.597216 0.205011
C33   C     C_R   0.421085 0.541583 0.984538 0.198517
C34   C     C_R   0.597260 0.451140 0.001391 0.204979
C35   C     C_R   0.984427 0.421119 0.541608 0.198445
C36   C     C_R   0.000938 0.597424 0.451372 0.204926
C37   C     C_R   0.541335 0.064567 0.675210 -0.093465
C38   C     C_R   0.431189 0.989015 0.316631 -0.101406
C39   C     C_R   0.064370 0.675212 0.541411 -0.093435
C40   C     C_R   0.988671 0.316781 0.431323 -0.101396
C41   C     C_R   0.675199 0.541365 0.064498 -0.093493
C42   C     C_R   0.316723 0.431307 0.988763 -0.101388
C43   C     C_R   0.324780 0.935789 0.458532 -0.093490
C44   C     C_R   0.683153 0.011538 0.568572 -0.101209
C45   C     C_R   0.458596 0.324779 0.935659 -0.093442
C46   C     C_R   0.568668 0.683210 0.011351 -0.101380
C47   C     C_R   0.935549 0.458623 0.324785 -0.093587
C48   C     C_R   0.011332 0.568628 0.683261 -0.101387
H1    H     H_    0.468146 0.083901 0.702985 0.196649
H2    H     H_    0.480580 0.025882 0.274619 0.202254
H3    H     H_    0.083654 0.702975 0.468226 0.196598
H4    H     H_    0.025394 0.274838 0.480843 0.202188
H5    H     H_    0.702945 0.468179 0.083867 0.196704
H6    H     H_    0.274763 0.480826 0.025490 0.202112
H7    H     H_    0.297058 0.916466 0.531719 0.196653
H8    H     H_    0.725046 0.974934 0.518938 0.202114
H9    H     H_    0.531789 0.297027 0.916371 0.196596
H10   H     H_    0.519145 0.725148 0.974630 0.202114
H11   H     H_    0.916181 0.531807 0.297034 0.196707
H12   H     H_    0.974656 0.519063 0.725207 0.202143
C49   C     C_R   0.591686 0.064642 0.723196 -0.101095
C50   C     C_R   0.394575 0.964649 0.272933 -0.090296
C51   C     C_R   0.064568 0.723185 0.591707 -0.101034
C52   C     C_R   0.964519 0.272984 0.394621 -0.090295
C53   C     C_R   0.723181 0.591686 0.064638 -0.101161
C54   C     C_R   0.272970 0.394619 0.964544 -0.090243
C55   C     C_R   0.276828 0.935466 0.408287 -0.101085
C56   C     C_R   0.726994 0.035557 0.605347 -0.090240
C57   C     C_R   0.408308 0.276820 0.935419 -0.101037
C58   C     C_R   0.605377 0.727012 0.035492 -0.090282
C59   C     C_R   0.935395 0.408303 0.276812 -0.101139
C60   C     C_R   0.035484 0.605361 0.727029 -0.090268
C61   C     C_R   0.680356 0.064289 0.681306 -0.229683
C62   C     C_R   0.318734 0.935714 0.319655 -0.229760
C63   C     C_R   0.064271 0.681292 0.680354 -0.229758
C64   C     C_R   0.935714 0.319644 0.318707 -0.229597
C65   C     C_R   0.681290 0.680349 0.064305 -0.229678
C66   C     C_R   0.319660 0.318725 0.935698 -0.229734
H13   H     H_    0.715898 0.074702 0.714307 0.197602
H14   H     H_    0.285814 0.925077 0.284200 0.197544
H15   H     H_    0.074766 0.714272 0.715855 0.197578
H16   H     H_    0.925220 0.284130 0.285740 0.197615
H17   H     H_    0.714265 0.715867 0.074786 0.197579
H18   H     H_    0.284170 0.285772 0.925149 0.197565
N1    N     N_R   0.412643 0.983334 0.694420 0.224494
O25   O     O_R   0.334859 0.037290 0.729605 -0.291948
O26   O     O_R   0.455904 0.912584 0.748174 -0.339813
N2    N     N_R   0.600063 0.951102 0.344075 0.226924
O27   O     O_R   0.637643 0.003979 0.266871 -0.278678
O28   O     O_R   0.613119 0.867590 0.350337 -0.338861
N3    N     N_R   0.982732 0.694650 0.412981 0.224533
O29   O     O_R   0.036527 0.729936 0.335119 -0.291918
O30   O     O_R   0.912097 0.748324 0.456433 -0.340168
N4    N     N_R   0.950075 0.344544 0.600227 0.226985
O31   O     O_R   0.002639 0.267282 0.638112 -0.278874
O32   O     O_R   0.866606 0.351019 0.612899 -0.339141
N5    N     N_R   0.694446 0.412536 0.983434 0.224397
O33   O     O_R   0.729480 0.334768 0.037511 -0.291869
O34   O     O_R   0.748339 0.455661 0.912705 -0.339799
N6    N     N_R   0.344545 0.600210 0.950139 0.227049
O35   O     O_R   0.267266 0.638127 0.002667 -0.278995
O36   O     O_R   0.351054 0.612824 0.866680 -0.339116
N7    N     N_R   0.305336 0.017273 0.587091 0.224500
O37   O     O_R   0.270187 0.963356 0.664931 -0.291897
O38   O     O_R   0.251538 0.087891 0.543767 -0.339922
N8    N     N_R   0.655096 0.050808 0.399621 0.227132
O39   O     O_R   0.732376 0.998495 0.361424 -0.278972
O40   O     O_R   0.648517 0.134195 0.387386 -0.339204
N9    N     N_R   0.587033 0.305333 0.017309 0.224596
O41   O     O_R   0.664899 0.270062 0.963503 -0.291842
O42   O     O_R   0.543582 0.251642 0.087928 -0.339835
N10   N     N_R   0.399743 0.655441 0.049996 0.227018
O43   O     O_R   0.361834 0.732687 0.997431 -0.278991
O44   O     O_R   0.387140 0.649015 0.133426 -0.339160
N11   N     N_R   0.016550 0.587500 0.305564 0.224396
O45   O     O_R   0.962421 0.665261 0.270586 -0.292058
O46   O     O_R   0.087289 0.544429 0.251628 -0.339702
N12   N     N_R   0.050047 0.399730 0.655353 0.227061
O47   O     O_R   0.997568 0.361775 0.732642 -0.279018
O48   O     O_R   0.133531 0.387117 0.648776 -0.339025

loop_
_geom_bond_atom_site_label_1
_geom_bond_atom_site_label_2
_geom_bond_distance
_ccdc_geom_bond_type
C38   H2    1.076347 S    
C62   H14   1.085364 S    
C6    C45   1.413721 A    
C48   C60   1.411172 A    
C47   C59   1.413266 A    
O1    C7    1.248747 A    
C26   N7    1.434537 S    
C23   C29   1.425546 A    
C28   N11   1.434433 S    
C44   C56   1.411191 A    
C24   C30   1.425308 A    
O21   C9    1.282138 A    
C43   C55   1.413362 A    
C57   C66   1.360238 A    
O5    Zn5   2.027721 S    
C47   H11   1.074429 S    
O6    Zn6   2.027721 S    
O10   C16   1.253213 A    
C40   C52   1.411165 A    
N12   O48   1.301159 A    
O12   Zn1   2.027603 S    
C39   C51   1.413286 A    
C23   C34   1.425462 A    
C35   N4    1.436757 S    
C3    C48   1.410227 A    
C41   C53   1.413243 A    
C24   C33   1.425493 A    
O3    C9    1.248654 A    
N1    O25   1.301890 A    
C25   C31   1.414599 A    
O9    C15   1.248636 A    
C60   C63   1.364440 A    
O2    C8    1.253232 A    
C4    C47   1.413773 A    
C33   N6    1.436743 S    
C66   H18   1.085360 S    
N2    O27   1.302200 A    
C65   H17   1.085352 S    
O12   C18   1.253192 A    
N11   O46   1.301345 A    
C16   C59   1.441708 S    
O1    Zn1   2.027651 S    
C29   N10   1.436777 S    
O2    Zn2   2.027651 S    
N1    O26   1.301275 A    
C5    C46   1.410316 A    
O18   C14   1.292173 A    
C21   C27   1.425460 A    
C3    C21   1.530713 S    
C20   C26   1.425415 A    
C46   H10   1.076402 S    
C41   H5    1.074451 S    
C51   C63   1.360257 A    
C11   C50   1.429444 S    
C8    C51   1.441654 S    
C63   H15   1.085351 S    
O22   C10   1.292125 A    
O9    Zn4   2.027747 S    
C53   C65   1.360246 A    
O8    C14   1.253171 A    
C10   C53   1.441666 S    
C3    C39   1.413714 A    
C45   C57   1.413311 A    
O14   Zn2   2.062490 S    
O13   Zn1   2.062490 S    
N11   O45   1.301953 A    
O15   Zn3   2.062669 S    
C6    C42   1.410178 A    
C64   H16   1.085342 S    
O4    C10   1.253231 A    
O22   Zn3   2.062494 S    
O17   Zn5   2.062512 S    
O18   Zn6   2.062514 S    
C2    C43   1.413847 A    
C37   H1    1.074503 S    
N12   O47   1.302025 A    
N8    O40   1.301264 A    
C18   C55   1.441755 S    
C49   C61   1.360242 A    
C6    C24   1.530669 S    
N8    O39   1.302074 A    
O4    Zn4   2.027606 S    
O17   C13   1.282176 A    
O3    Zn3   2.027606 S    
C48   H12   1.076419 S    
C21   C36   1.425328 A    
N6    O36   1.301216 A    
N5    O34   1.301314 A    
O15   C15   1.282185 A    
C34   N5    1.434460 S    
O16   C16   1.292139 A    
O10   Zn3   2.027747 S    
C37   C49   1.413234 A    
O7    C13   1.248683 A    
C36   N3    1.434522 S    
C4    C40   1.410328 A    
O11   Zn2   2.027603 S    
C44   H8    1.076477 S    
O19   Zn6   2.062666 S    
C43   H7    1.074487 S    
N3    O29   1.301901 A    
C42   H6    1.076427 S    
C22   C28   1.425479 A    
O20   Zn5   2.062665 S    
O19   C11   1.282116 A    
C1    C19   1.530691 S    
C12   C49   1.441627 S    
C45   H9    1.074525 S    
O16   Zn4   2.062669 S    
C25   N8    1.436809 S    
C5    C41   1.413749 A    
O23   Zn2   2.062511 S    
N7    O37   1.301921 A    
C26   C32   1.416357 A    
O24   Zn1   2.062512 S    
N5    O33   1.301920 A    
C9    C54   1.429499 S    
C5    C23   1.530829 S    
O21   Zn4   2.062495 S    
C15   C60   1.429568 S    
C28   C36   1.416346 A    
C1    C37   1.413666 A    
O20   C12   1.292107 A    
C59   C64   1.360235 A    
C52   C64   1.364458 A    
C58   C65   1.364440 A    
C19   C32   1.425337 A    
C31   N2    1.436715 S    
C17   C56   1.429661 S    
C4    C22   1.530890 S    
C27   C35   1.414588 A    
C14   C57   1.441692 S    
O14   C18   1.292279 A    
N9    O41   1.301904 A    
C46   C58   1.411163 A    
C7    C52   1.429628 S    
C29   C33   1.414580 A    
C61   H13   1.085356 S    
C30   C34   1.416331 A    
O7    Zn6   2.027629 S    
N4    O32   1.301187 A    
N6    O35   1.302072 A    
O8    Zn5   2.027627 S    
C32   N1    1.434474 S    
O23   C7    1.282212 A    
C19   C25   1.425393 A    
O24   C8    1.292185 A    
N9    O42   1.301326 A    
C2    C20   1.530901 S    
O5    C11   1.248652 A    
C38   C50   1.411127 A    
O6    C12   1.253219 A    
O11   C17   1.248717 A    
N10   O44   1.301210 A    
C54   C66   1.364460 A    
C40   H4    1.076390 S    
N2    O28   1.301322 A    
N3    O30   1.301270 A    
C55   C62   1.360219 A    
C39   H3    1.074520 S    
C50   C62   1.364447 A    
C30   N9    1.434526 S    
C42   C54   1.411131 A    
O13   C17   1.282269 A    
C1    C44   1.410297 A    
C27   N12   1.436740 S    
N7    O38   1.301328 A    
C20   C31   1.425681 A    
C2    C38   1.410175 A    
N10   O43   1.302066 A    
C13   C58   1.429618 S    
C22   C35   1.425569 A    
C56   C61   1.364433 A    
N4    O31   1.302038 A    
