data_mof_unit_17704.cif
_audit_creation_date              2012-10-26T20:04:07-0400
_audit_creation_method            fapswitch 2.2
_symmetry_space_group_name_H-M    P1
_symmetry_Int_Tables_number       1
_space_group_crystal_system       triclinic
_cell_length_a                    15.063204
_cell_length_b                    14.056795
_cell_length_c                    14.326047
_cell_angle_alpha                 90.00128
_cell_angle_beta                  82.624342
_cell_angle_gamma                 89.834875
_cell_volume                      3008.29076857

loop_
_atom_site_label
_atom_site_type_symbol
_atom_type_description
_atom_site_fract_x
_atom_site_fract_y
_atom_site_fract_z
_atom_type_partial_charge
C1    C     C_R   0.328654 0.500368 0.506192 0.550238
C2    C     C_R   0.983642 0.509204 0.326051 0.024014
C3    C     C_R   0.442482 0.794223 0.566107 0.161184
C4    C     C_R   0.558529 0.205572 0.434820 0.155182
C5    C     C_R   0.556692 0.794148 0.433426 0.153587
C6    C     C_R   0.441358 0.205933 0.565150 0.154850
C7    C     C_R   0.551979 0.896847 0.428066 0.003389
C8    C     C_R   0.438158 0.102847 0.564208 0.003272
C9    C     C_R   0.446352 0.896973 0.571038 0.006068
C10   C     C_R   0.561019 0.102474 0.435422 0.003617
C11   C     C_R   0.499249 0.948270 0.499626 -0.062401
C12   C     C_R   0.671294 0.499640 0.493811 0.559781
C13   C     C_R   0.499440 0.051514 0.499732 -0.062092
C14   C     C_R   0.603100 0.950770 0.356424 0.149340
C15   C     C_R   0.378628 0.048110 0.628890 0.149387
C16   C     C_R   0.394892 0.951047 0.642412 0.149674
C17   C     C_R   0.620111 0.047446 0.370455 0.149161
C18   C     C_R   0.498959 0.499972 0.331668 0.524950
C19   C     C_R   0.501538 0.500030 0.668265 0.522319
C20   C     C_1   0.498678 0.499884 0.229231 -0.067033
C21   C     C_1   0.501564 0.500011 0.770731 -0.065196
C22   C     C_1   0.499019 0.499771 0.143675 -0.061686
C23   C     C_R   0.953647 0.497979 0.497478 -0.009042
C24   C     C_1   0.501099 0.499865 0.856303 -0.061663
C25   C     C_1   0.499702 0.499704 0.042802 -0.018175
C26   C     C_1   0.500353 0.499732 0.957184 -0.018577
C27   C     C_R   0.827155 0.514824 0.407270 0.109621
C28   C     C_R   0.172318 0.487259 0.592740 0.107919
C29   C     C_R   0.768652 0.496952 0.490497 0.019932
C30   C     C_R   0.231258 0.503245 0.509309 0.007265
C31   C     C_R   0.802176 0.473744 0.573504 -0.163827
C32   C     C_R   0.197908 0.526992 0.426300 -0.163310
C33   C     C_R   0.894141 0.476913 0.579635 0.002351
C34   C     C_R   0.046165 0.505124 0.502708 -0.013637
C35   C     C_R   0.105845 0.524975 0.420329 0.004814
C36   C     C_3   0.737169 0.498589 0.275754 -0.318230
C37   C     C_3   0.263766 0.497755 0.723596 -0.326401
C38   C     C_3   0.869494 0.420370 0.751609 -0.273710
C39   C     C_3   0.848131 0.316171 0.733613 -0.442741
C40   C     C_3   0.130846 0.577621 0.247104 -0.274158
C41   C     C_3   0.153278 0.682019 0.262579 -0.444731
C42   C     C_3   0.039739 0.531964 0.766921 -0.261608
C43   C     C_3   0.976547 0.612665 0.804912 -0.464305
C44   C     C_3   0.960909 0.463663 0.235309 -0.280556
C45   C     C_R   0.921074 0.506969 0.409239 0.014143
C46   C     C_3   0.024535 0.381909 0.201425 -0.449769
C47   C     C_3   0.368019 0.741842 0.627884 -0.204982
C48   C     C_3   0.275552 0.763472 0.598948 -0.440812
C49   C     C_3   0.616402 0.259226 0.357212 -0.200337
C50   C     C_3   0.582217 0.249249 0.261329 -0.430156
C51   C     C_3   0.630510 0.742065 0.370284 -0.192341
C52   C     C_3   0.724076 0.767492 0.394150 -0.422134
C53   C     C_3   0.384064 0.259773 0.643139 -0.198110
C54   C     C_3   0.418714 0.249132 0.738697 -0.429958
C55   C     C_3   0.578596 0.923960 0.195459 -0.328936
C56   C     C_R   0.078715 0.495959 0.590904 0.029418
C57   C     C_3   0.219938 0.075243 0.631907 -0.333054
C58   C     C_3   0.420264 0.923039 0.802954 -0.328638
C59   C     C_3   0.778928 0.072244 0.368010 -0.333473
C60   C     C_R   0.927262 0.464097 0.667020 0.038980
C61   C     C_R   0.072795 0.536448 0.332761 0.045204
C62   C     C_R   0.016372 0.491311 0.674238 0.048500
Cu1   Cu    Cu3+1 0.500000 0.597420 0.500000 0.881839
Cu2   Cu    Cu3+1 0.500000 0.402580 0.500000 0.873193
H1    H     H_    0.754220 0.459917 0.634804 0.117999
H2    H     H_    0.245053 0.486123 0.800188 0.139953
H3    H     H_    0.809170 0.308458 0.673450 0.157090
H4    H     H_    0.911172 0.274547 0.718687 0.149689
H5    H     H_    0.808024 0.285982 0.797120 0.131867
H6    H     H_    0.903803 0.420338 0.815445 0.141986
H7    H     H_    0.807053 0.462010 0.770351 0.131675
H8    H     H_    0.090668 0.724522 0.276398 0.146843
H9    H     H_    0.192226 0.690797 0.322633 0.155065
H10   H     H_    0.193772 0.710329 0.198403 0.133396
H11   H     H_    0.192876 0.535068 0.229327 0.132355
H12   H     H_    0.245943 0.540068 0.364884 0.119478
H13   H     H_    0.096271 0.576272 0.183431 0.142030
H14   H     H_    0.973360 0.667794 0.749840 0.154011
H15   H     H_    0.908026 0.586794 0.828706 0.146913
H16   H     H_    0.002168 0.646277 0.866303 0.128232
H17   H     H_    0.041901 0.475149 0.820388 0.141183
H18   H     H_    0.105756 0.566467 0.756625 0.175517
H19   H     H_    0.092783 0.407629 0.176031 0.146708
H20   H     H_    0.028296 0.329968 0.259269 0.155306
H21   H     H_    0.998976 0.344560 0.142004 0.128222
H22   H     H_    0.894891 0.429144 0.247392 0.169843
H23   H     H_    0.835366 0.601695 0.287157 0.245681
H24   H     H_    0.958952 0.517601 0.179024 0.125675
H25   H     H_    0.259554 0.840278 0.603953 0.147555
H26   H     H_    0.272903 0.740369 0.525235 0.169483
H27   H     H_    0.223135 0.724768 0.645507 0.120328
H28   H     H_    0.375226 0.665952 0.626946 0.198372
H29   H     H_    0.370399 0.752120 0.703693 0.147893
H30   H     H_    0.582756 0.174480 0.237163 0.148577
H31   H     H_    0.512360 0.275685 0.265245 0.172089
H32   H     H_    0.625049 0.291723 0.207932 0.121424
H33   H     H_    0.621241 0.333659 0.371086 0.196174
H34   H     H_    0.765070 0.496867 0.200123 0.119243
H35   H     H_    0.688225 0.243119 0.354805 0.144759
H36   H     H_    0.730364 0.843700 0.411379 0.141080
H37   H     H_    0.739513 0.725812 0.455900 0.176828
H38   H     H_    0.774918 0.751254 0.333213 0.132659
H39   H     H_    0.625909 0.665902 0.372596 0.212002
H40   H     H_    0.624108 0.751258 0.295033 0.148662
H41   H     H_    0.418205 0.174198 0.762408 0.147906
H42   H     H_    0.488588 0.275149 0.734534 0.169904
H43   H     H_    0.376069 0.291619 0.792467 0.126433
H44   H     H_    0.378423 0.334248 0.629563 0.200038
H45   H     H_    0.670013 0.530728 0.280647 0.151058
H46   H     H_    0.312531 0.243549 0.645830 0.141604
H47   H     H_    0.703027 0.919033 0.245160 0.250389
H48   H     H_    0.605688 0.883583 0.131434 0.136505
H49   H     H_    0.575488 0.000616 0.177258 0.133537
H50   H     H_    0.510054 0.897503 0.219750 0.157953
H51   H     H_    0.288248 0.075908 0.749781 0.250221
H52   H     H_    0.163641 0.116522 0.670054 0.136103
H53   H     H_    0.200778 0.999075 0.631765 0.133570
H54   H     H_    0.232180 0.101921 0.558352 0.156433
H55   H     H_    0.295341 0.920447 0.754264 0.249386
H56   H     H_    0.732712 0.424476 0.302107 0.130221
H57   H     H_    0.393191 0.882843 0.866994 0.135914
H58   H     H_    0.424235 0.999548 0.821358 0.133734
H59   H     H_    0.488441 0.895486 0.778091 0.159037
H60   H     H_    0.710996 0.074590 0.249996 0.249583
H61   H     H_    0.835526 0.113154 0.330411 0.135644
H62   H     H_    0.797690 0.995813 0.367394 0.133849
H63   H     H_    0.766655 0.098274 0.441821 0.155420
H64   H     H_    0.216433 0.372489 0.666350 0.244324
H65   H     H_    0.260238 0.574977 0.709163 0.131724
H66   H     H_    0.332701 0.472466 0.704508 0.140871
N1    N     N_R   0.500000 0.743810 0.500000 -0.238693
N2    N     N_R   0.500000 0.256190 0.500000 -0.237778
N3    N     N_2   0.792914 0.556470 0.328071 -0.544740
N4    N     N_2   0.203859 0.444331 0.672411 -0.542680
N5    N     N_2   0.635887 0.909800 0.267861 -0.543300
N6    N     N_2   0.298977 0.087526 0.678215 -0.544630
N7    N     N_2   0.362296 0.910245 0.731002 -0.544815
N8    N     N_2   0.700112 0.086125 0.321582 -0.544186
O1    O     O_R   0.370260 0.582280 0.500020 -0.511743
O2    O     O_R   0.629740 0.417720 0.499980 -0.518326
O3    O     O_R   0.629740 0.582280 0.499980 -0.497021
O4    O     O_R   0.370260 0.417720 0.500020 -0.504648
O5    O     O_R   0.500000 0.582290 0.376050 -0.499458
O6    O     O_R   0.500000 0.417710 0.623950 -0.499106
O7    O     O_R   0.500000 0.582290 0.623950 -0.496675
O8    O     O_R   0.500000 0.417710 0.376050 -0.494816

loop_
_geom_bond_atom_site_label_1
_geom_bond_atom_site_label_2
_ccdc_geom_bond_type
C53   H46   S    
C38   H6    S    
C34   C56   A    
C19   O6    A    
C23   C45   A    
C55   H48   S    
C27   C29   A    
C47   H28   S    
H23   N3    S    
C16   N7    S    
C42   H18   S    
H47   N5    S    
C36   N3    S    
C28   C56   A    
C4    N2    A    
C53   C54   S    
C12   O3    A    
C59   H62   S    
C7    C11   A    
C52   H38   S    
C58   H59   S    
C8    C13   A    
C54   H43   S    
C28   N4    S    
H60   N8    S    
C18   O5    A    
C19   C21   S    
C9    C16   A    
C24   C26   S    
C38   C39   S    
C12   C29   S    
C50   H31   S    
C14   N5    S    
C10   C17   A    
C43   H15   S    
C15   C16   A    
C37   H66   S    
C22   C25   S    
C60   C62   A    
C34   C35   A    
C39   H4    S    
C1    O4    A    
C41   H10   S    
C7    C14   A    
Cu2   N2    S    
C2    C44   S    
C23   C33   A    
C48   H27   S    
C31   C33   A    
C57   N6    S    
C17   N8    S    
Cu1   N1    S    
C42   C62   S    
C59   H63   S    
C18   C20   S    
C1    O1    A    
C2    C61   A    
C46   H21   S    
C27   C45   A    
C48   H26   S    
C14   C17   A    
C42   H17   S    
Cu1   O1    S    
C44   H22   S    
C44   C46   S    
C57   H52   S    
C2    C45   A    
C39   H5    S    
C52   H37   S    
C58   H58   S    
C54   H42   S    
C51   C52   S    
H55   N7    S    
C32   C35   A    
C6    N2    A    
C5    C7    A    
C50   H30   S    
C6    C8    A    
C15   N6    S    
Cu2   O6    S    
C59   N8    S    
C25   C26   T    
C41   H9    S    
C52   H36   S    
C40   C61   S    
Cu1   Cu2   S    
C43   H14   S    
C27   N3    S    
C3    C9    A    
H64   N4    S    
C49   H35   S    
C47   C48   S    
C23   C34   A    
C37   H2    S    
C12   O2    A    
Cu1   O3    S    
C35   C61   A    
C19   O7    A    
C9    C11   A    
C41   H8    S    
C38   C60   S    
C58   N7    S    
C40   C41   S    
C20   C22   T    
C33   C60   A    
C48   H25   S    
C3    N1    A    
C59   H61   S    
C42   C43   S    
C6    C53   S    
C4    C10   A    
C57   H53   S    
Cu2   O2    S    
C31   H1    S    
C38   H7    S    
C58   H57   S    
C47   H29   S    
C54   H41   S    
Cu2   O8    S    
C37   N4    S    
C39   H3    S    
C18   O8    A    
C10   C13   A    
C32   H12   S    
C55   H50   S    
C8    C15   A    
C55   H49   S    
C40   H11   S    
C4    C49   S    
C28   C30   A    
C51   H40   S    
C29   C31   A    
C30   C32   A    
C11   C13   A    
C53   H44   S    
C50   H32   S    
Cu2   O4    S    
C55   N5    S    
C3    C47   S    
C1    C30   S    
C43   H16   S    
C37   H65   S    
C46   H20   S    
C56   C62   A    
C36   H56   S    
C49   H33   S    
C46   H19   S    
C5    N1    A    
C49   C50   S    
H51   N6    S    
C21   C24   T    
C36   H45   S    
Cu1   O5    S    
C40   H13   S    
C5    C51   S    
C36   H34   S    
C44   H24   S    
C51   H39   S    
Cu1   O7    S    
C57   H54   S    
