data_mof_unit_38261.cif
_audit_creation_date              2013-03-05T16:34:33-0500
_audit_creation_method            fapswitch 2.2
_symmetry_space_group_name_H-M    P1
_symmetry_Int_Tables_number       1
_space_group_crystal_system       triclinic
_cell_length_a                    13.040481
_cell_length_b                    9.097239
_cell_length_c                    7.786457
_cell_angle_alpha                 89.997639
_cell_angle_beta                  96.708308
_cell_angle_gamma                 89.990034
_cell_volume                      917.4017659

loop_
_atom_site_label
_atom_site_type_symbol
_atom_site_description
_atom_site_fract_x
_atom_site_fract_y
_atom_site_fract_z
_atom_type_partial_charge
O1    O     O_R   0.500000 0.288400 0.642760 -0.573741
O2    O     O_R   0.500000 0.711600 0.357240 -0.573740
O3    O     O_R   0.500000 0.288400 0.357240 -0.577914
O4    O     O_R   0.500000 0.711600 0.642760 -0.577912
N1    N     N_1   0.499980 0.500000 0.076820 -0.003846
N2    N     N_1   0.500020 0.500000 0.923180 -0.003846
C1    C     C_R   0.499991 0.220031 0.500000 0.838660
C2    C     C_R   0.500009 0.779969 0.500000 0.838661
O5    O     O_R   0.349000 0.500000 0.619590 -0.582980
O6    O     O_R   0.651000 0.500000 0.380410 -0.582981
O7    O     O_R   0.348990 0.500000 0.334020 -0.532725
O8    O     O_R   0.651010 0.500000 0.665980 -0.532724
C3    C     C_R   0.299732 0.501066 0.466548 0.823891
C4    C     C_R   0.700267 0.498936 0.533452 0.823894
Cu1   Cu    Cu3+1 0.500010 0.500000 0.669080 1.088235
Cu2   Cu    Cu3+1 0.499990 0.500000 0.330920 1.088234
C5    C     C_R   0.813504 0.499005 0.556106 -0.183457
C6    C     C_R   0.186496 0.501003 0.443892 -0.183463
C7    C     C_R   0.020653 0.464140 0.272286 -0.189465
C8    C     C_R   0.979346 0.535876 0.727712 -0.189459
C9    C     C_R   0.127839 0.474414 0.281667 0.339424
C10   C     C_R   0.872161 0.525598 0.718330 0.339425
C11   C     C_R   0.135866 0.522424 0.591008 -0.213247
C12   C     C_R   0.864134 0.477587 0.408990 -0.213252
C13   C     C_R   0.028949 0.515103 0.580059 0.091667
C14   C     C_R   0.971051 0.484911 0.419939 0.091659
H1    H     H_    0.820234 0.455622 0.284793 0.229552
H2    H     H_    0.179766 0.544389 0.715205 0.229551
H3    H     H_    0.976171 0.441810 0.148711 0.202916
H4    H     H_    0.023827 0.558209 0.851286 0.202911
C15   C     C_1   0.499997 0.065368 0.500002 -0.135874
C16   C     C_1   0.500003 0.934632 0.499998 -0.135872
N3    N     N_R   0.825149 0.541374 0.874604 0.113855
O9    O     O_R   0.783170 0.427442 0.939379 -0.369197
O10   O     O_R   0.844864 0.657241 0.970733 -0.365744
N4    N     N_R   0.174850 0.458637 0.125392 0.113858
O11   O     O_R   0.155106 0.342795 0.029235 -0.365763
O12   O     O_R   0.216842 0.572565 0.060632 -0.369189

loop_
_geom_bond_atom_site_label_1
_geom_bond_atom_site_label_2
_geom_bond_distance
_ccdc_geom_bond_type
C12   H1    1.083314 S    
O1    Cu1   1.935862 S    
C5    C10   1.418992 A    
C6    C9    1.418998 A    
O2    Cu2   1.935861 S    
O7    Cu2   1.972078 S    
C15   C16   1.189330 T    
O8    Cu1   1.972078 S    
O4    C2    1.273761 A    
C13   C14   1.407154 A    
O4    Cu1   1.935844 S    
N4    O12   1.301153 A    
N3    O9    1.301154 A    
O5    Cu1   1.961918 S    
C9    N4    1.432257 S    
C8    H4    1.083163 S    
C11   H2    1.083314 S    
O7    C3    1.277662 A    
C4    C5    1.466549 S    
C3    C6    1.466549 S    
N4    O11   1.300989 A    
C7    C9    1.394261 A    
O8    C4    1.277663 A    
O3    C1    1.273761 A    
C11   C13   1.388494 A    
N1    N2    1.196373 T    
C12   C14   1.388491 A    
C5    C12   1.400983 A    
C1    C15   1.407006 S    
C8    C13   1.396292 A    
Cu1   Cu2   2.633039 S    
C7    H3    1.083163 S    
O6    C4    1.286093 A    
C10   N3    1.432251 S    
C7    C14   1.396290 A    
O5    C3    1.286096 A    
N1    Cu2   1.978523 S    
O6    Cu2   1.961918 S    
N3    O10   1.301003 A    
N2    Cu1   1.978523 S    
O1    C1    1.273781 A    
O2    C2    1.273780 A    
O3    Cu2   1.935845 S    
C6    C11   1.400985 A    
C8    C10   1.394260 A    
C2    C16   1.407006 S    
