data_mof_unit_39216.cif
_audit_creation_date              2012-12-10T18:45:03-0500
_audit_creation_method            fapswitch 2.2
_symmetry_space_group_name_H-M    P1
_symmetry_Int_Tables_number       1
_space_group_crystal_system       triclinic
_cell_length_a                    10.653857
_cell_length_b                    9.80259
_cell_length_c                    10.646379
_cell_angle_alpha                 90.44579
_cell_angle_beta                  90.261999
_cell_angle_gamma                 89.755176
_cell_volume                      1111.80350494

loop_
_atom_site_label
_atom_site_type_symbol
_atom_type_description
_atom_site_fract_x
_atom_site_fract_y
_atom_site_fract_z
_atom_type_partial_charge
C1    C     C_R   0.260071 0.500166 0.497481 0.931669
C2    C     C_R   0.740003 0.499501 0.497732 0.949689
C3    C     C_R   0.935746 0.594852 0.566669 -0.276578
C4    C     C_R   0.064115 0.595048 0.566807 -0.255109
C5    C     C_R   0.574399 0.072410 0.581965 -0.116071
C6    C     C_R   0.425736 0.071725 0.417940 -0.094760
C7    C     C_R   0.574496 0.928247 0.581880 -0.050643
C8    C     C_R   0.425832 0.927573 0.417843 -0.043562
C9    C     C_R   0.515631 0.499854 0.260680 0.920406
C10   C     C_R   0.487988 0.501374 0.740425 0.899941
C11   C     C_R   0.598323 0.745292 0.112486 0.574613
C12   C     C_R   0.442771 0.758775 0.898012 0.584660
C13   C     C_R   0.571251 0.871007 0.058186 -0.312668
C14   C     C_R   0.490500 0.879033 0.955501 -0.392254
C15   C     C_R   0.486889 0.630427 0.942939 -0.071255
C16   C     C_R   0.541987 0.625182 0.062136 -0.112487
C17   C     C_R   0.533315 0.500386 0.127164 -0.076345
C18   C     C_R   0.478535 0.505089 0.875226 -0.062855
C19   C     C_R   0.513211 0.377934 0.062883 -0.214055
C20   C     C_R   0.490254 0.380064 0.936606 -0.237063
C21   C     C_R   0.065166 0.407839 0.413261 0.347436
C22   C     C_R   0.935230 0.402079 0.418475 0.348078
C23   C     C_R   0.872329 0.498414 0.493828 -0.182870
C24   C     C_R   0.127866 0.500715 0.492148 -0.192166
H1    H     H_    0.512568 0.280509 0.110309 0.163851
H2    H     H_    0.481521 0.283368 0.887332 0.164654
H3    H     H_    0.610522 0.963500 0.098057 0.180866
H4    H     H_    0.467652 0.979768 0.921472 0.164100
H5    H     H_    0.885859 0.667725 0.625356 0.170971
H6    H     H_    0.113745 0.666927 0.626508 0.191609
H7    H     H_    0.633754 0.127553 0.647374 0.128262
H8    H     H_    0.366405 0.126318 0.352590 0.157492
H9    H     H_    0.633717 0.873617 0.647398 0.122417
H10   H     H_    0.366678 0.872413 0.352246 0.125318
N1    N     N_R   0.500000 0.857200 0.500000 -0.060799
N2    N     N_R   0.500000 0.142810 0.500000 -0.082502
O1    O     O_R   0.316770 0.614620 0.499990 -0.624161
O2    O     O_R   0.683230 0.614620 0.500010 -0.611590
O3    O     O_R   0.316800 0.385290 0.500000 -0.585696
O4    O     O_R   0.683200 0.385290 0.500000 -0.608748
O5    O     O_R   0.500010 0.614690 0.316770 -0.589608
O6    O     O_R   0.499990 0.614690 0.683230 -0.582518
O7    O     O_R   0.500040 0.385360 0.316770 -0.634286
O8    O     O_R   0.499960 0.385360 0.683230 -0.646456
Zn1   Zn    Zn3+2 0.500000 0.653120 0.500000 0.993243
Zn2   Zn    Zn3+2 0.500000 0.346880 0.500000 0.952598
O9    O     O_3   0.679611 0.743107 0.214350 -0.587221
C25   C     C_3   0.794365 0.683357 0.177209 -0.345911
H11   H     H_    0.835113 0.736675 0.094978 0.152817
H12   H     H_    0.783527 0.572708 0.156497 0.176553
H13   H     H_    0.862232 0.693055 0.256092 0.195070
O10   O     O_3   0.349729 0.758683 0.804627 -0.595890
C26   C     C_3   0.287113 0.884730 0.790038 -0.320216
H14   H     H_    0.349208 0.960489 0.744774 0.172376
H15   H     H_    0.249529 0.923505 0.880969 0.155110
H16   H     H_    0.205817 0.869358 0.726232 0.179061
O11   O     O_3   0.130228 0.321203 0.333333 -0.613834
C27   C     C_3   0.147194 0.387519 0.217390 0.141617
H17   H     H_    0.216912 0.471189 0.227765 0.121137
H18   H     H_    0.057285 0.430248 0.180222 0.143974
C28   C     C_3   0.196448 0.284945 0.121564 -0.828351
H19   H     H_    0.126353 0.202892 0.106107 0.249760
H20   H     H_    0.214196 0.336720 0.030990 0.214897
H21   H     H_    0.285327 0.238686 0.155785 0.248300
O12   O     O_3   0.869135 0.315882 0.338565 -0.609321
C29   C     C_3   0.873814 0.181636 0.385944 0.148986
H22   H     H_    0.841982 0.178245 0.485462 0.128836
H23   H     H_    0.970414 0.138746 0.380015 0.172969
C30   C     C_3   0.787302 0.091299 0.307706 -0.795937
H24   H     H_    0.820674 0.086345 0.209091 0.243193
H25   H     H_    0.786304 0.986564 0.346735 0.231160
H26   H     H_    0.690304 0.133163 0.308842 0.266093

loop_
_geom_bond_atom_site_label_1
_geom_bond_atom_site_label_2
_ccdc_geom_bond_type
C5    H7    S    
C15   C18   A    
C6    H8    S    
C22   O12   S    
C21   O11   S    
O1    Zn1   S    
C10   O6    A    
C11   C13   A    
C11   C16   A    
C2    O2    A    
C9    O5    A    
C19   C20   A    
C12   C15   A    
C1    O1    A    
C14   H4    S    
C27   C28   S    
C25   H12   S    
C29   H22   S    
C27   H17   S    
C8    H10   S    
C21   C22   A    
C28   H21   S    
N2    Zn2   S    
C7    H9    S    
O11   C27   S    
C28   H19   S    
C20   H2    S    
C25   H13   S    
C10   C18   S    
O3    Zn2   S    
C4    C24   A    
C6    C8    A    
C7    N1    A    
C25   H11   S    
C12   O10   S    
C6    N2    A    
C27   H18   S    
C18   C20   A    
C26   H15   S    
C30   H24   S    
C19   H1    S    
O7    Zn2   S    
C21   C24   A    
C9    O7    A    
C29   C30   S    
C30   H25   S    
C29   H23   S    
O4    Zn2   S    
C10   O8    A    
C15   C16   A    
N1    Zn1   S    
C5    N2    A    
C2    O4    A    
C30   H26   S    
O10   C26   S    
C1    C24   S    
C3    H5    S    
O12   C29   S    
C26   H16   S    
C9    C17   S    
C2    C23   S    
C5    C7    A    
C1    O3    A    
C22   C23   A    
C13   H3    S    
O2    Zn1   S    
O5    Zn1   S    
O8    Zn2   S    
C17   C19   A    
C3    C23   A    
C13   C14   A    
C11   O9    S    
C8    N1    A    
C28   H20   S    
C4    H6    S    
C3    C4    A    
C26   H14   S    
C12   C14   A    
C16   C17   A    
O9    C25   S    
O6    Zn1   S    
