data_mof_unit_50425.cif
_audit_creation_date              2012-12-10T20:46:35-0500
_audit_creation_method            fapswitch 2.2
_symmetry_space_group_name_H-M    P1
_symmetry_Int_Tables_number       1
_space_group_crystal_system       triclinic
_cell_length_a                    10.418357
_cell_length_b                    8.927234
_cell_length_c                    8.112702
_cell_angle_alpha                 89.934423
_cell_angle_beta                  101.462382
_cell_angle_gamma                 89.917009
_cell_volume                      739.488422973

loop_
_atom_site_label
_atom_site_type_symbol
_atom_type_description
_atom_site_fract_x
_atom_site_fract_y
_atom_site_fract_z
_atom_type_partial_charge
C1    C     C_R   0.499711 0.217990 0.500010 0.933847
C2    C     C_1   0.499867 0.934804 0.499946 -0.192708
C3    C     C_1   0.855031 0.238709 0.443461 0.088606
C4    C     C_1   0.158549 0.262609 0.632866 0.135406
C5    C     C_3   0.923042 0.728291 0.674753 0.092562
C6    C     C_3   0.031756 0.836344 0.749512 -0.752056
C7    C     C_3   0.005773 0.435758 0.136882 0.083067
C8    C     C_3   0.865332 0.459727 0.045625 -0.690366
C9    C     C_R   0.500073 0.782008 0.499972 0.937765
C10   C     C_R   0.256577 0.490543 0.434185 0.833268
C11   C     C_R   0.743747 0.497763 0.566267 0.754380
C12   C     C_2   0.117690 0.453353 0.407026 0.269579
C13   C     C_2   0.886168 0.479113 0.595893 0.293337
C14   C     C_2   0.073469 0.360026 0.515926 -0.065841
C15   C     C_2   0.935119 0.361105 0.523971 -0.043299
C16   C     C_1   0.499686 0.065204 0.500097 -0.167394
H1    H     H_    0.841951 0.741268 0.744489 0.140338
H2    H     H_    0.843907 0.383858 0.935449 0.208701
H3    H     H_    0.887861 0.759067 0.540068 0.157591
H4    H     H_    0.114154 0.826811 0.681708 0.262719
H5    H     H_    0.993943 0.953073 0.737692 0.205008
H6    H     H_    0.068023 0.810277 0.884689 0.258831
H7    H     H_    0.018103 0.313115 0.163902 0.120525
H8    H     H_    0.072892 0.468157 0.052160 0.196528
H9    H     H_    0.850524 0.577829 0.003068 0.255300
H10   H     H_    0.796956 0.433375 0.130508 0.251045
N1    N     N_1   0.500020 0.500000 0.073650 -0.029487
N2    N     N_1   0.499980 0.500000 0.926350 -0.023461
N3    N     N_1   0.791737 0.140730 0.379002 -0.198416
N4    N     N_1   0.226067 0.184659 0.726334 -0.189157
O1    O     O_R   0.499990 0.285340 0.636850 -0.606177
O2    O     O_3   0.030803 0.527144 0.281989 -0.615126
O3    O     O_R   0.500010 0.714660 0.363150 -0.601343
O4    O     O_R   0.500010 0.285340 0.363150 -0.607265
O5    O     O_R   0.499990 0.714660 0.636850 -0.609046
O6    O     O_R   0.317810 0.500000 0.585760 -0.603887
O7    O     O_R   0.682190 0.500000 0.414240 -0.609328
O8    O     O_R   0.317820 0.500000 0.312020 -0.611665
O9    O     O_R   0.682180 0.500000 0.687980 -0.625894
O10   O     O_3   0.972669 0.580445 0.690774 -0.617391
Zn1   Zn    Zn3+2 0.499990 0.500000 0.682780 0.988540
Zn2   Zn    Zn3+2 0.500010 0.500000 0.317220 0.992363

loop_
_geom_bond_atom_site_label_1
_geom_bond_atom_site_label_2
_ccdc_geom_bond_type
C9    O3    A    
C11   O7    A    
C5    H3    S    
C2    C16   T    
C6    H4    S    
O4    Zn2   S    
C10   O8    A    
C7    C8    S    
O9    Zn1   S    
C1    C16   S    
C12   O2    S    
C11   O9    A    
C8    H9    S    
C11   C13   S    
N1    Zn2   S    
O6    Zn1   S    
C10   C12   S    
C7    H7    S    
O3    Zn2   S    
C12   C14   D    
C1    O4    A    
O8    Zn2   S    
C6    H5    S    
C13   C15   D    
C4    C14   S    
C5    C6    S    
O5    Zn1   S    
C4    N4    T    
C5    H1    S    
C8    H10   S    
C7    H8    S    
C6    H6    S    
N2    Zn1   S    
C1    O1    A    
C3    C15   S    
C9    O5    A    
C5    O10   S    
O7    Zn2   S    
C3    N3    T    
C14   C15   S    
C13   O10   S    
C10   O6    A    
C7    O2    S    
O1    Zn1   S    
C2    C9    S    
C8    H2    S    
N1    N2    T    
