data_mof_unit_26249.cif
_audit_creation_date              2013-03-05T15:54:52-0500
_audit_creation_method            fapswitch 2.2
_symmetry_space_group_name_H-M    P1
_symmetry_Int_Tables_number       1
_space_group_crystal_system       triclinic
_cell_length_a                    12.348866
_cell_length_b                    13.286381
_cell_length_c                    14.382089
_cell_angle_alpha                 93.047288
_cell_angle_beta                  107.959585
_cell_angle_gamma                 116.857187
_cell_volume                      1950.41502905

loop_
_atom_site_label
_atom_site_type_symbol
_atom_site_description
_atom_site_fract_x
_atom_site_fract_y
_atom_site_fract_z
_atom_type_partial_charge
O1    O     O_R   0.545970 0.684450 0.528810 -0.597806
O2    O     O_R   0.687130 0.639470 0.490120 -0.572162
C1    C     C_R   0.650740 0.714036 0.508900 0.846697
O3    O     O_R   0.519670 0.535100 0.660030 -0.580467
O4    O     O_R   0.660830 0.490120 0.621340 -0.602365
C2    C     C_R   0.618360 0.516229 0.686257 0.796887
Cu1   Cu    Cu3+1 0.416420 0.526630 0.522910 0.957558
Cu2   Cu    Cu3+1 0.583580 0.473370 0.477090 1.007942
O5    O     O_R   0.312870 0.360530 0.509880 -0.587241
O6    O     O_R   0.454030 0.315550 0.471190 -0.535819
O7    O     O_R   0.339170 0.509880 0.378660 -0.607648
O8    O     O_R   0.480330 0.464900 0.339970 -0.523120
C3    C     C_R   0.345662 0.285042 0.485605 0.829900
C4    C     C_R   0.377720 0.478013 0.313149 0.843041
C5    C     C_R   0.680085 0.518270 0.791752 -0.044876
C6    C     C_R   0.299148 0.451180 0.205393 -0.161904
C7    C     C_R   0.696174 0.543155 0.964107 -0.189272
C8    C     C_R   0.638917 0.545694 0.865104 -0.170765
C9    C     C_R   0.778706 0.488379 0.818356 -0.216664
C10   C     C_R   0.834124 0.480587 0.916863 0.086365
C11   C     C_R   0.793011 0.510631 0.990488 0.168617
C12   C     C_R   0.931726 0.447002 0.944664 0.059019
C13   C     C_R   0.999428 0.459624 0.048039 0.096461
C14   C     C_R   0.951853 0.484701 0.118678 -0.221455
C15   C     C_R   0.848815 0.507858 0.089647 -0.207795
C16   C     C_R   0.961846 0.398758 0.872757 -0.198609
C17   C     C_R   0.060889 0.370719 0.901954 -0.174363
C18   C     C_R   0.137126 0.394623 0.002938 0.071395
C19   C     C_R   0.109736 0.442626 0.076945 0.099385
C20   C     C_R   0.239703 0.369582 0.030505 -0.264693
C21   C     C_R   0.321136 0.396959 0.131409 0.493053
C22   C     C_R   0.195474 0.474775 0.177210 -0.334373
H1    H     H_    0.813262 0.525094 0.145139 0.158281
H2    H     H_    0.184525 0.520710 0.234646 0.177277
H3    H     H_    0.079753 0.332154 0.845030 0.211556
H4    H     H_    0.665273 0.567333 0.020172 0.136128
H5    H     H_    0.563097 0.569634 0.846195 0.162738
H6    H     H_    0.812847 0.473869 0.761267 0.163919
H7    H     H_    0.989317 0.482264 0.196427 0.132264
H8    H     H_    0.907026 0.377057 0.793180 0.162134
H9    H     H_    0.254649 0.326168 0.973650 0.175376
C23   C     C_R   0.155807 0.959820 0.389185 -0.178542
H10   H     H_    0.159825 0.893212 0.345863 0.209857
C24   C     C_R   0.252804 0.161313 0.469340 -0.182499
C25   C     C_R   0.739283 0.917890 0.586680 -0.239350
C26   C     C_R   0.844935 0.028973 0.624149 -0.172086
C27   C     C_R   0.952559 0.061556 0.596231 0.378919
C28   C     C_R   0.944977 0.987521 0.515501 -0.094967
C29   C     C_R   0.833097 0.875280 0.474066 -0.161383
C30   C     C_R   0.045701 0.018746 0.476457 0.002057
C31   C     C_R   0.045015 0.933828 0.412481 -0.107902
C32   C     C_R   0.931516 0.826522 0.368498 0.408850
C33   C     C_R   0.821123 0.802944 0.390652 0.417323
C34   C     C_R   0.142860 0.133276 0.493599 -0.148831
C35   C     C_R   0.263167 0.071704 0.422044 0.329739
C36   C     C_R   0.737814 0.837685 0.518422 -0.076450
H11   H     H_    0.129675 0.202384 0.520790 0.209533
H12   H     H_    0.664634 0.891805 0.618782 0.173078
H13   H     H_    0.849116 0.086016 0.683487 0.170578
C37   C     C_R   0.255028 0.685833 0.660092 -0.239489
H14   H     H_    0.443334 0.706926 0.677032 0.120599
H15   H     H_    0.296826 0.758906 0.721967 0.188217
N1    N     N_R   0.290690 0.566960 0.557640 -0.178526
C38   C     C_R   0.655151 0.343120 0.364111 0.173917
C39   C     C_R   0.733184 0.308675 0.335012 -0.245242
C40   C     C_R   0.868348 0.366926 0.386988 -0.188451
C41   C     C_R   0.927902 0.461257 0.469388 -0.016349
C42   C     C_R   0.843535 0.493325 0.496465 0.206300
C43   C     C_R   0.067467 0.526008 0.524576 -0.094305
C44   C     C_R   0.119338 0.621306 0.605377 0.059604
C45   C     C_R   0.035954 0.652824 0.629976 0.403809
C46   C     C_R   0.901076 0.588240 0.577346 -0.290023
C47   C     C_R   0.159150 0.501541 0.502784 0.087024
C48   C     C_R   0.338997 0.657077 0.634946 0.061528
N2    N     N_R   0.709100 0.433710 0.442970 -0.200880
H16   H     H_    0.128291 0.431011 0.442636 0.111855
H17   H     H_    0.550470 0.297117 0.323372 0.188213
H18   H     H_    0.923712 0.336679 0.360793 0.138152
H19   H     H_    0.688654 0.236500 0.271761 0.167455
H20   H     H_    0.845140 0.616759 0.602560 0.215167
N3    N     N_R   0.378037 0.092598 0.402989 0.116938
O9    O     O_R   0.488735 0.131540 0.478054 -0.347739
O10   O     O_R   0.366816 0.049692 0.314892 -0.373370
O11   O     O_3   0.924203 0.749330 0.295463 -0.564243
C49   C     C_3   0.945624 0.664612 0.339846 -0.307602
H21   H     H_    0.850241 0.590286 0.331913 0.201005
H22   H     H_    0.013767 0.697447 0.420078 0.134193
H23   H     H_    0.992053 0.633721 0.299650 0.178705
N4    N     N_R   0.071961 0.162202 0.659477 0.084719
O12   O     O_R   0.174502 0.153341 0.706943 -0.379715
O13   O     O_R   0.074905 0.260654 0.676881 -0.408268
O14   O     O_3   0.702673 0.708515 0.329789 -0.551253
C50   C     C_3   0.627750 0.749111 0.264932 -0.305805
H24   H     H_    0.604684 0.804337 0.307236 0.168723
H25   H     H_    0.533335 0.673709 0.215241 0.171360
H26   H     H_    0.678089 0.797004 0.216255 0.172879
O15   O     O_3   0.086359 0.743960 0.710486 -0.579179
C51   C     C_3   0.079742 0.838280 0.673872 -0.268560
H27   H     H_    0.977267 0.821247 0.644150 0.155607
H28   H     H_    0.123666 0.859734 0.615650 0.158092
H29   H     H_    0.136431 0.915611 0.737049 0.228095
O16   O     O_3   0.411357 0.358635 0.158960 -0.565353
C52   C     C_3   0.512569 0.418975 0.123841 -0.295390
H30   H     H_    0.591478 0.397985 0.157302 0.180762
H31   H     H_    0.556140 0.514414 0.147335 0.178918
H32   H     H_    0.477991 0.391231 0.041044 0.165384

loop_
_geom_bond_atom_site_label_1
_geom_bond_atom_site_label_2
_geom_bond_distance
_ccdc_geom_bond_type
C5    C8    1.400501 A    
C50   H24   1.112633 S    
C39   H19   1.082498 S    
C26   H13   1.083545 S    
C38   H17   1.081146 S    
C9    C10   1.402818 A    
N3    O9    1.301279 A    
Cu1   Cu2   2.702816 S    
C49   H21   1.108957 S    
C42   N2    1.390958 A    
C5    C9    1.397531 A    
C45   O15   1.385589 S    
C16   C17   1.386570 A    
C30   C34   1.394247 A    
C13   C19   1.420591 A    
C18   C19   1.413783 A    
C8    H5    1.083066 S    
C19   C22   1.402565 A    
C20   C21   1.401061 A    
O7    C4    1.307634 A    
O15   C51   1.410869 S    
C14   H7    1.078789 S    
C37   H15   1.083057 S    
C32   O11   1.380810 S    
O5    C3    1.307188 A    
C2    C5    1.465432 S    
C25   C36   1.399975 A    
C13   C14   1.413255 A    
C20   H9    1.083745 S    
C43   C47   1.423472 A    
C44   C45   1.399757 A    
C7    H4    1.082558 S    
C35   N3    1.434008 S    
Cu2   O8    1.955386 S    
C23   C31   1.404088 A    
C28   C30   1.422587 A    
C40   C41   1.409925 A    
C50   H25   1.108335 S    
C27   N4    1.432378 S    
O16   C52   1.409599 S    
O3    Cu1   1.955386 S    
N3    O10   1.301180 A    
C30   C31   1.412745 A    
C49   H22   1.116192 S    
C40   H18   1.077895 S    
C25   H12   1.083446 S    
C31   C32   1.396098 A    
C21   O16   1.385400 S    
O11   C49   1.409146 S    
O3    C2    1.301173 A    
N1    C47   1.370248 A    
C17   H3    1.080694 S    
C25   C26   1.383074 A    
C6    C21   1.413624 A    
Cu2   N2    2.024998 S    
C7    C11   1.401866 A    
C41   C42   1.432566 A    
O1    C1    1.300503 A    
C22   H2    1.078403 S    
Cu1   O7    1.949922 S    
C9    H6    1.076630 S    
C23   C35   1.396073 A    
C1    C36   1.470744 S    
C27   C28   1.432742 A    
C37   C44   1.406796 A    
C42   C46   1.404633 A    
C33   O14   1.383960 S    
C7    C8    1.390775 A    
C52   H31   1.112408 S    
C14   C15   1.388431 A    
Cu1   N1    2.036849 S    
C28   C29   1.422676 A    
O8    C4    1.299972 A    
C39   C40   1.394850 A    
C50   H26   1.113458 S    
C51   H28   1.114645 S    
C47   H16   1.076820 S    
C4    C6    1.473653 S    
N4    O13   1.300633 A    
C23   H10   1.083502 S    
C29   C36   1.416571 A    
C17   C18   1.390734 A    
C32   C33   1.396667 A    
C49   H23   1.105981 S    
Cu1   O5    1.949104 S    
C11   C15   1.390145 A    
C26   C27   1.393798 A    
O1    Cu1   1.956980 S    
O2    Cu2   1.949105 S    
C10   C12   1.421045 A    
O6    C3    1.299242 A    
O4    Cu2   1.949922 S    
N1    C48   1.352660 A    
H14   C48   1.081902 S    
C6    C22   1.399200 A    
C51   H29   1.109005 S    
C38   C39   1.392817 A    
C18   C20   1.399123 A    
O2    C1    1.305785 A    
C45   C46   1.394831 A    
C46   H20   1.062332 S    
C24   C35   1.414858 A    
C16   H8    1.077965 S    
O4    C2    1.303456 A    
C29   C33   1.422799 A    
C37   C48   1.387996 A    
O14   C50   1.410391 S    
C38   N2    1.357653 A    
C52   H32   1.110739 S    
C43   C44   1.419722 A    
C24   C34   1.397408 A    
C10   C11   1.417039 A    
Cu2   O6    1.956979 S    
C51   H27   1.110252 S    
C12   C16   1.414533 A    
C52   H30   1.108831 S    
C12   C13   1.420489 A    
C41   C43   1.443808 A    
N4    O12   1.301334 A    
C3    C24   1.470548 S    
C15   H1    1.081506 S    
C34   H11   1.076429 S    
