data_mof_unit_8215.cif
_audit_creation_date              2012-12-11T14:29:43-0500
_audit_creation_method            fapswitch 2.2
_symmetry_space_group_name_H-M    P1
_symmetry_Int_Tables_number       1
_space_group_crystal_system       triclinic
_cell_length_a                    6.936312
_cell_length_b                    14.767581
_cell_length_c                    16.264611
_cell_angle_alpha                 90.579442
_cell_angle_beta                  90.077386
_cell_angle_gamma                 89.775094
_cell_volume                      1665.92610507

loop_
_atom_site_label
_atom_site_type_symbol
_atom_type_description
_atom_site_fract_x
_atom_site_fract_y
_atom_site_fract_z
_atom_type_partial_charge
O1    O     O_R   0.494400 0.416610 0.413880 -0.538171
O2    O     O_R   0.823920 0.406790 0.585520 -0.559582
O3    O     O_R   0.994250 0.583390 0.586120 -0.537090
C1    C     C_R   0.654325 0.383733 0.612428 0.705224
O4    O     O_R   0.824110 0.405730 0.414490 -0.541440
O5    O     O_R   0.994440 0.582310 0.413870 -0.538985
C2    C     C_R   0.655001 0.382569 0.387480 0.730994
O6    O     O_R   0.494210 0.417690 0.586130 -0.530255
O7    O     O_3   0.660810 0.557940 0.500000 -0.369389
V1    V     V_3+5 0.935650 0.489250 0.500000 1.399273
O8    O     O_R   0.324160 0.593210 0.414480 -0.541732
C3    C     C_R   0.154597 0.615670 0.387501 0.720025
O9    O     O_R   0.323970 0.594270 0.585510 -0.540933
C4    C     C_R   0.154997 0.616140 0.613853 0.691705
V2    V     V_3+5 0.435660 0.510750 0.500000 1.422722
O10   O     O_3   0.160630 0.442060 0.500000 -0.372442
C5    C     C_R   0.294399 0.575496 0.777252 -0.150176
C6    C     C_R   0.359339 0.552905 0.855486 -0.122226
C7    C     C_R   0.344584 0.615154 0.919780 -0.124047
C8    C     C_R   0.265669 0.700671 0.906227 -0.138369
C9    C     C_R   0.200931 0.726159 0.827252 0.069058
C10   C     C_R   0.214517 0.661983 0.761415 0.068151
C11   C     C_R   0.119355 0.813084 0.813829 -0.155148
C12   C     C_R   0.048822 0.835070 0.734381 0.036675
C13   C     C_R   0.061386 0.770721 0.668753 0.033014
C14   C     C_R   0.144576 0.684138 0.682109 -0.152564
C15   C     C_R   0.967175 0.921061 0.718575 -0.289237
C16   C     C_R   0.899590 0.943844 0.640237 0.308681
C17   C     C_R   0.913432 0.880815 0.575615 0.314604
C18   C     C_R   0.992388 0.795087 0.590152 -0.274529
H1    H     H_    0.419839 0.486395 0.866405 0.110415
H2    H     H_    0.253595 0.746087 0.958456 0.100717
H3    H     H_    0.955784 0.972084 0.766546 0.129975
H4    H     H_    0.999258 0.748130 0.538784 0.131839
C19   C     C_2   0.994221 0.700513 0.275407 -0.115418
C20   C     C_2   0.145801 0.688270 0.326336 -0.290807
H5    H     H_    0.267779 0.733545 0.326114 0.173293
C21   C     C_2   0.982179 0.772272 0.211326 -0.176801
C22   C     C_2   0.135084 0.810063 0.173181 0.140442
H6    H     H_    0.837793 0.791857 0.192472 0.107540
C23   C     C_2   0.774953 0.213039 0.784968 -0.139704
C24   C     C_2   0.614201 0.187432 0.824570 -0.336524
C25   C     C_2   0.777741 0.288814 0.725145 -0.223269
C26   C     C_2   0.636718 0.306734 0.669853 0.151256
H7    H     H_    0.904768 0.331460 0.726322 0.110974
C27   C     C_2   0.771629 0.206308 0.216726 -0.158524
C28   C     C_2   0.613822 0.191379 0.169216 0.140374
C29   C     C_2   0.789022 0.279509 0.280067 -0.129490
C30   C     C_2   0.639093 0.310011 0.325044 -0.271050
H8    H     H_    0.932421 0.305766 0.292187 0.133703
O11   O     O_R   0.770210 0.079270 0.910680 -0.538541
O12   O     O_R   0.440150 0.091160 0.082270 -0.543755
O13   O     O_R   0.269970 0.914530 0.082860 -0.537817
C31   C     C_R   0.608613 0.114978 0.109127 0.663476
O14   O     O_R   0.440480 0.090100 0.911240 -0.544516
O15   O     O_R   0.270310 0.913460 0.910610 -0.535518
C32   C     C_R   0.609222 0.113638 0.884993 0.741536
O16   O     O_R   0.769870 0.080340 0.082930 -0.547459
O17   O     O_3   0.603660 0.938980 0.996790 -0.365803
V3    V     V_3+5 0.328750 0.007610 0.996740 1.402187
O18   O     O_R   0.940600 0.902510 0.911180 -0.537513
C33   C     C_R   0.109439 0.881040 0.882402 0.699800
O19   O     O_R   0.940270 0.903570 0.082200 -0.550255
C34   C     C_R   0.110927 0.881136 0.109720 0.659954
V4    V     V_3+5 0.828770 0.986010 0.996670 1.404968
O20   O     O_3   0.103730 0.054750 0.996710 -0.371785
N1    N     N_2   0.837932 0.902131 0.496792 -0.489264
H9    H     H_    0.727453 0.859479 0.479352 0.251441
C35   C     C_3   0.981242 0.910409 0.432733 -0.547761
H10   H     H_    0.911302 0.935037 0.375682 0.198758
H11   H     H_    0.049327 0.843777 0.419479 0.185459
H12   H     H_    0.094816 0.959308 0.451194 0.198816
N2    N     N_2   0.326705 0.781265 0.192128 -0.514323
H13   H     H_    0.425599 0.832982 0.197455 0.255232
C36   C     C_3   0.397668 0.705991 0.143290 -0.548371
H14   H     H_    0.531576 0.679109 0.171633 0.187232
H15   H     H_    0.432103 0.728955 0.080320 0.187370
H16   H     H_    0.289843 0.650557 0.140571 0.207010
H17   H     H_    0.911925 0.181346 0.799897 0.140532
H18   H     H_    0.480516 0.223700 0.814486 0.164522
N3    N     N_2   0.477858 0.246519 0.657845 -0.518074
H19   H     H_    0.500317 0.178468 0.667712 0.272713
C37   C     C_3   0.286769 0.280363 0.677353 -0.516387
H20   H     H_    0.216643 0.235205 0.722390 0.158357
H21   H     H_    0.198048 0.281321 0.620540 0.213652
H22   H     H_    0.290956 0.349681 0.704588 0.185087
H23   H     H_    0.898336 0.163843 0.208050 0.099354
N4    N     N_2   0.453014 0.251992 0.172225 -0.518374
H24   H     H_    0.320929 0.221217 0.164543 0.257784
C38   C     C_3   0.473545 0.331030 0.121216 -0.544677
H25   H     H_    0.347539 0.376607 0.130441 0.189170
H26   H     H_    0.480549 0.310642 0.055295 0.179785
H27   H     H_    0.605967 0.369010 0.138161 0.212079
H28   H     H_    0.306193 0.524024 0.729760 0.100634
H29   H     H_    0.497624 0.280180 0.317394 0.171795
H30   H     H_    0.393314 0.596740 0.980612 0.106564
N5    N     N_2   0.811275 0.029563 0.627308 -0.496704
H31   H     H_    0.730952 0.051836 0.676895 0.244995
C39   C     C_3   0.942147 0.098380 0.598820 -0.506091
H32   H     H_    0.861047 0.161851 0.587062 0.198734
H33   H     H_    0.011973 0.076953 0.540540 0.213921
H34   H     H_    0.054584 0.111898 0.645988 0.178102
H35   H     H_    0.868992 0.657188 0.281561 0.129212

loop_
_geom_bond_atom_site_label_1
_geom_bond_atom_site_label_2
_ccdc_geom_bond_type
C16   N5    S    
O19   V4    S    
C36   H14   S    
C24   H18   S    
N2    C36   S    
C23   C24   D    
C7    C8    A    
C12   C15   A    
C1    O6    A    
N5    H31   S    
C15   H3    S    
C22   C34   S    
C9    C10   A    
C20   H5    S    
C19   H35   S    
O5    C3    A    
C21   C22   D    
O13   C34   A    
V2    O10   S    
C6    C7    A    
N2    H13   S    
C35   H11   S    
O12   V3    S    
N3    C37   S    
C17   N1    S    
O8    V2    S    
C11   C33   S    
C39   H32   S    
C11   C12   A    
O11   C32   A    
C3    C20   S    
O7    V1    S    
C29   H8    S    
V3    O20   S    
O17   V3    S    
O14   V3    S    
C23   C25   S    
O18   C33   A    
C24   C32   S    
N5    C39   S    
O13   V3    S    
O12   C31   A    
N3    H19   S    
O11   V4    S    
C27   C29   S    
C18   H4    S    
N1    H9    S    
C19   C21   S    
C12   C13   A    
C2    C30   S    
C26   N3    S    
O4    C2    A    
C1    C26   S    
C13   C14   A    
C30   H29   S    
O15   V3    S    
N1    C35   S    
C19   C20   D    
C35   H12   S    
O2    C1    A    
C25   C26   D    
C23   H17   S    
C17   C18   A    
C36   H15   S    
O16   V4    S    
C38   H26   S    
C37   H20   S    
O9    V2    S    
C37   H22   S    
C31   O16   A    
C5    C6    A    
C4    C14   S    
C25   H7    S    
O3    C4    A    
C28   C31   S    
O1    V2    S    
C29   C30   D    
C37   H21   S    
N4    C38   S    
O6    V2    S    
O14   C32   A    
O15   C33   A    
O2    V1    S    
C38   H27   S    
C27   H23   S    
C8    H2    S    
C13   C18   A    
C27   C28   D    
C16   C17   A    
C39   H33   S    
C8    C9    A    
O1    C2    A    
O5    V1    S    
O8    C3    A    
C5    H28   S    
C5    C10   A    
C28   N4    S    
C9    C11   A    
O7    V2    S    
O4    V1    S    
O3    V1    S    
V1    O10   S    
O17   V4    S    
C21   H6    S    
C38   H25   S    
C22   N2    S    
C35   H10   S    
C36   H16   S    
O19   C34   A    
O18   V4    S    
C39   H34   S    
N4    H24   S    
V4    O20   S    
C10   C14   A    
C15   C16   A    
C6    H1    S    
O9    C4    A    
C7    H30   S    
