data_mof_unit_31542.cif
_audit_creation_date              2013-03-05T16:25:43-0500
_audit_creation_method            fapswitch 2.2
_symmetry_space_group_name_H-M    P1
_symmetry_Int_Tables_number       1
_space_group_crystal_system       triclinic
_cell_length_a                    10.931896
_cell_length_b                    15.115274
_cell_length_c                    13.878911
_cell_angle_alpha                 89.587587
_cell_angle_beta                  91.371834
_cell_angle_gamma                 89.850886
_cell_volume                      2292.6063302

loop_
_atom_site_label
_atom_site_type_symbol
_atom_site_description
_atom_site_fract_x
_atom_site_fract_y
_atom_site_fract_z
_atom_type_partial_charge
O1    O     O_R   0.500010 0.371450 0.581430 -0.548197
O2    O     O_R   0.499990 0.628550 0.418570 -0.561378
O3    O     O_R   0.500010 0.371460 0.418560 -0.595186
O4    O     O_R   0.499990 0.628540 0.581440 -0.575343
C1    C     C_R   0.499739 0.329981 0.500369 0.959639
C2    C     C_R   0.499111 0.669919 0.499708 0.961574
O5    O     O_R   0.319640 0.500000 0.581430 -0.589429
O6    O     O_R   0.680360 0.500000 0.418570 -0.567210
O7    O     O_R   0.319640 0.500010 0.418560 -0.579019
O8    O     O_R   0.680360 0.499990 0.581440 -0.583553
C3    C     C_R   0.262090 0.499205 0.498428 0.850189
C4    C     C_R   0.737961 0.498149 0.501262 0.884481
Cu1   Cu    Cu3+1 0.500000 0.499990 0.596430 1.032837
Cu2   Cu    Cu3+1 0.500000 0.500010 0.403570 1.031210
C5    C     C_R   0.142582 0.628139 0.184322 0.280817
C6    C     C_R   0.841952 0.396604 0.826614 0.170916
C7    C     C_R   0.103642 0.608341 0.277338 -0.158905
C8    C     C_R   0.853077 0.405958 0.726624 -0.226638
H1    H     H_    0.070584 0.661004 0.322549 0.235269
H2    H     H_    0.838227 0.349385 0.680295 0.207945
C9    C     C_R   0.108013 0.522163 0.313540 0.000484
C10   C     C_R   0.895165 0.484740 0.686849 0.028889
C11   C     C_R   0.149287 0.453737 0.255484 -0.261578
C12   C     C_R   0.920590 0.556641 0.746417 -0.341416
H3    H     H_    0.153856 0.387324 0.285031 0.161877
H4    H     H_    0.956658 0.615277 0.712377 0.181741
C13   C     C_R   0.182260 0.470660 0.159283 0.376207
C14   C     C_R   0.908698 0.550622 0.847542 0.440619
C15   C     C_R   0.179256 0.558624 0.122852 0.249162
C16   C     C_R   0.871438 0.468788 0.888084 0.237701
C17   C     C_R   0.930341 0.501797 0.414164 -0.159128
C18   C     C_R   0.070048 0.484813 0.583082 -0.175610
H5    H     H_    0.877223 0.509139 0.347549 0.195584
H6    H     H_    0.123519 0.477719 0.649603 0.185445
C19   C     C_R   0.871834 0.494659 0.502693 -0.055153
C20   C     C_R   0.128361 0.495451 0.495430 -0.067852
C21   C     C_R   0.943379 0.486311 0.588455 0.067797
C22   C     C_R   0.057170 0.503649 0.409293 0.050239
C23   C     C_R   0.416272 0.094681 0.561940 0.423797
C24   C     C_R   0.402938 0.906293 0.456534 0.367705
C25   C     C_R   0.419623 0.187537 0.563233 0.199296
C26   C     C_R   0.402548 0.813698 0.455572 0.184584
C27   C     C_R   0.499044 0.233209 0.501459 -0.359956
C28   C     C_R   0.500518 0.766501 0.499317 -0.354879
C29   C     C_R   0.579080 0.186221 0.441821 0.187822
C30   C     C_R   0.595410 0.811668 0.548876 0.223243
C31   C     C_R   0.579012 0.093362 0.443511 0.211014
C32   C     C_R   0.593017 0.904561 0.553180 0.265098
C33   C     C_R   0.496930 0.048262 0.503229 -0.085270
C34   C     C_R   0.496590 0.951234 0.506499 -0.062614
C35   C     C_R   0.484583 0.576597 0.106051 -0.189129
C36   C     C_R   0.424021 0.443544 0.890775 -0.142693
H7    H     H_    0.471897 0.639007 0.068401 0.228536
H8    H     H_    0.363241 0.398280 0.926594 0.204167
C37   C     C_R   0.487060 0.576670 0.207139 0.060065
C38   C     C_R   0.426017 0.443646 0.789707 0.111172
H9    H     H_    0.478347 0.638972 0.243558 0.203727
H10   H     H_    0.367475 0.398709 0.749833 0.190052
N1    N     N_R   0.500000 0.500020 0.258690 -0.225030
N2    N     N_R   0.500000 0.499980 0.741310 -0.220555
C39   C     C_R   0.509151 0.421756 0.210755 0.043838
C40   C     C_R   0.570449 0.559289 0.790738 -0.003938
H11   H     H_    0.518520 0.360955 0.251098 0.198962
H12   H     H_    0.626771 0.604652 0.750734 0.193385
C41   C     C_R   0.508325 0.417518 0.108951 0.306771
C42   C     C_R   0.571790 0.562355 0.892567 0.231402
C43   C     C_R   0.498706 0.497563 0.054199 0.055320
C44   C     C_R   0.499949 0.500791 0.944957 0.062148
N3    N     N_R   0.201348 0.574415 0.021812 0.154133
O9    O     O_R   0.242642 0.649773 0.991057 -0.336170
O10   O     O_R   0.174266 0.514162 0.958375 -0.335455
N4    N     N_R   0.862415 0.459800 0.991252 0.177059
O11   O     O_R   0.774996 0.413858 0.028497 -0.283385
O12   O     O_R   0.934283 0.503922 0.049130 -0.300378
N5    N     N_R   0.666774 0.045209 0.388562 0.181608
O13   O     O_R   0.782274 0.065591 0.394544 -0.238072
O14   O     O_R   0.632336 0.980054 0.333652 -0.344794
N6    N     N_R   0.690513 0.951463 0.601757 0.174532
O15   O     O_R   0.804056 0.932107 0.585032 -0.278729
O16   O     O_R   0.666342 0.014509 0.661811 -0.281163
N7    N     N_R   0.516158 0.331508 0.064981 0.136570
O17   O     O_R   0.475733 0.262107 0.110122 -0.330492
O18   O     O_R   0.574383 0.319862 0.985483 -0.250854
N8    N     N_R   0.643975 0.629479 0.939567 0.100345
O19   O     O_R   0.650256 0.708167 0.901437 -0.325696
O20   O     O_R   0.708151 0.612030 0.017511 -0.293262
N9    N     N_R   0.141039 0.718969 0.153878 0.158399
O21   O     O_R   0.045960 0.767647 0.171690 -0.324740
O22   O     O_R   0.243777 0.758160 0.135451 -0.311259
N10   N     N_R   0.810619 0.311151 0.864527 0.196697
O23   O     O_R   0.874324 0.276788 0.935858 -0.290555
O24   O     O_R   0.733388 0.261247 0.817372 -0.257316
O25   O     O_3   0.225788 0.403875 0.100801 -0.583102
C45   C     C_3   0.150156 0.328178 0.102820 0.099519
H13   H     H_    0.051308 0.345359 0.108781 0.207230
H14   H     H_    0.178865 0.284392 0.164006 0.152427
C46   C     C_3   0.164926 0.277121 0.009751 -0.595972
H15   H     H_    0.261963 0.257427 0.001473 0.265875
H16   H     H_    0.107716 0.216559 0.011072 0.232714
H17   H     H_    0.135688 0.318918 0.947136 0.258179
O26   O     O_3   0.937951 0.619764 0.910609 -0.487154
C47   C     C_3   0.948636 0.703327 0.865257 0.102213
H18   H     H_    0.867790 0.717490 0.817589 0.209920
H19   H     H_    0.034383 0.706511 0.823794 0.155674
C48   C     C_3   0.955218 0.775157 0.941119 -0.496856
H20   H     H_    0.043074 0.769848 0.982163 0.276218
H21   H     H_    0.950658 0.841243 0.905710 0.198644
H22   H     H_    0.877904 0.768752 0.991143 0.293716
O27   O     O_3   0.342023 0.047567 0.623665 -0.530403
C49   C     C_3   0.217447 0.057181 0.595033 0.113707
H23   H     H_    0.203487 0.067986 0.515922 0.171237
H24   H     H_    0.176134 0.113746 0.633199 0.208898
C50   C     C_3   0.148471 0.974065 0.623383 -0.600417
H25   H     H_    0.187931 0.915475 0.587615 0.271350
H26   H     H_    0.154779 0.964135 0.702719 0.245651
H27   H     H_    0.050692 0.980611 0.601010 0.253387
O28   O     O_3   0.309192 0.954253 0.411832 -0.587608
C51   C     C_3   0.318489 0.950534 0.310412 0.161442
H28   H     H_    0.249543 0.903208 0.281441 0.244737
H29   H     H_    0.410287 0.929577 0.285275 0.182188
C52   C     C_3   0.290691 0.041695 0.268016 -0.717740
H30   H     H_    0.359147 0.090195 0.295303 0.244453
H31   H     H_    0.294458 0.039426 0.188187 0.243333
H32   H     H_    0.197903 0.063531 0.288695 0.257614
N11   N     N_R   0.342459 0.234935 0.627442 0.120411
O29   O     O_R   0.344639 0.215912 0.719060 -0.301693
O30   O     O_R   0.262902 0.291986 0.593454 -0.421103
N12   N     N_R   0.299579 0.768246 0.414021 0.116352
O31   O     O_R   0.313514 0.720524 0.337689 -0.384387
O32   O     O_R   0.189645 0.786422 0.441976 -0.333509
N13   N     N_R   0.662758 0.232510 0.381170 0.162964
O33   O     O_R   0.739256 0.289481 0.418100 -0.361506
O34   O     O_R   0.668331 0.213473 0.290091 -0.257847
N14   N     N_R   0.692276 0.763250 0.597233 0.157497
O35   O     O_R   0.718389 0.778204 0.687543 -0.322093
O36   O     O_R   0.755888 0.705245 0.550893 -0.376246

loop_
_geom_bond_atom_site_label_1
_geom_bond_atom_site_label_2
_geom_bond_distance
_ccdc_geom_bond_type
C42   C44   1.425777 A    
N9    O21   1.301442 A    
C6    N10   1.436543 S    
O26   C47   1.413529 S    
C37   N1    1.362582 A    
C13   C15   1.419111 A    
N5    O13   1.301312 A    
N12   O31   1.297692 A    
C51   H29   1.116162 S    
N7    O17   1.301709 A    
C23   C25   1.404350 A    
Cu1   N2    2.010776 S    
O5    C3    1.299434 A    
Cu2   N1    2.010774 S    
C48   H21   1.110533 S    
O25   C45   1.413888 S    
O1    C1    1.291742 A    
C18   C20   1.395344 A    
C3    C20   1.462766 S    
C19   C21   1.413209 A    
N8    O20   1.300226 A    
N6    O16   1.301270 A    
C6    C16   1.422776 A    
C46   H15   1.109860 S    
C47   C48   1.518485 S    
N2    C40   1.361809 A    
C32   N6    1.438586 S    
O4    Cu1   1.952684 S    
N3    O10   1.301047 A    
C49   H23   1.115701 S    
C52   H32   1.110748 S    
C40   H12   1.081951 S    
C46   H16   1.110288 S    
C51   H28   1.110821 S    
N10   O24   1.301575 A    
C14   O26   1.400772 S    
C9    C22   1.477887 S    
C28   C30   1.411234 A    
C41   C43   1.426413 A    
C17   H5    1.084782 S    
C11   C13   1.413015 A    
C8    H2    1.083824 S    
C36   C44   1.409408 A    
C26   N12   1.431884 S    
C50   H27   1.109904 S    
C24   C26   1.399771 A    
C24   O28   1.385619 S    
C1    C27   1.462749 S    
C2    C28   1.459948 S    
Cu1   Cu2   2.676686 S    
C25   C27   1.412683 A    
O2    C2    1.292222 A    
C26   C28   1.408280 A    
C43   C44   1.516981 S    
N7    O18   1.299746 A    
C36   H8    1.081666 S    
C5    C15   1.421156 A    
C15   N3    1.446902 S    
C29   C31   1.403625 A    
C9    C11   1.396256 A    
C48   H22   1.110546 S    
C30   C32   1.406006 A    
N1    C39   1.365995 A    
C40   C42   1.414085 A    
C47   H18   1.110668 S    
C25   N11   1.435634 S    
N8    O19   1.300969 A    
N4    O12   1.299047 A    
N6    O15   1.301171 A    
N14   O36   1.300883 A    
C45   C46   1.521121 S    
N13   O34   1.301243 A    
C10   C21   1.475568 S    
C7    C9    1.393062 A    
C38   N2    1.360782 A    
C35   H7    1.082101 S    
C51   C52   1.521449 S    
C18   H6    1.085338 S    
C47   H19   1.112565 S    
O7    Cu2   1.987571 S    
C30   N14   1.436045 S    
O7    C3    1.287609 A    
C41   N7    1.443340 S    
O5    Cu1   1.977674 S    
O6    C4    1.295874 A    
C39   H11   1.076094 S    
C45   H13   1.115844 S    
C35   C43   1.409099 A    
C18   C21   1.388661 A    
C4    C19   1.463956 S    
C45   H14   1.111642 S    
N5    O14   1.300541 A    
C49   C50   1.521096 S    
C52   H30   1.110933 S    
O3    Cu2   1.952684 S    
O8    C4    1.292080 A    
O4    C2    1.291235 A    
C23   C33   1.404695 A    
C29   N13   1.437579 S    
C37   H9    1.077066 S    
N11   O29   1.301286 A    
C10   C12   1.394765 A    
C13   O25   1.389997 S    
O1    Cu1   1.955530 S    
N13   O33   1.301227 A    
C46   H17   1.110968 S    
C5    N9    1.433501 S    
C50   H25   1.109697 S    
C5    C7    1.399559 A    
O6    Cu2   1.977674 S    
C8    C10   1.392844 A    
C12   C14   1.414915 A    
C12   H4    1.081158 S    
N4    O11   1.297945 A    
O3    C1    1.293136 A    
O8    Cu1   1.987568 S    
N12   O32   1.300933 A    
C16   N4    1.443057 S    
N14   O35   1.300337 A    
C31   C33   1.409781 A    
C48   H20   1.107298 S    
C17   C22   1.390092 A    
C20   C22   1.415283 A    
C31   N5    1.439169 S    
C14   C16   1.419890 A    
C27   C29   1.412434 A    
O27   C49   1.416301 S    
N10   O23   1.300988 A    
C24   C34   1.402458 A    
C17   C19   1.402315 A    
C32   C34   1.409068 A    
C7    H1    1.083747 S    
C38   H10   1.080706 S    
C35   C37   1.402605 A    
C11   H3    1.082233 S    
N3    O9    1.299352 A    
O2    Cu2   1.955530 S    
C49   H24   1.109738 S    
C52   H31   1.110467 S    
C42   N8    1.437591 S    
C39   C41   1.414659 A    
C23   O27   1.388299 S    
C6    C8    1.402138 A    
C33   C34   1.466996 S    
N11   O30   1.301211 A    
N9    O22   1.301060 A    
O28   C51   1.415198 S    
C36   C38   1.403391 A    
C50   H26   1.110682 S    
