data_mof_unit_35852.cif
_audit_creation_date              2012-12-11T14:14:04-0500
_audit_creation_method            fapswitch 2.2
_symmetry_space_group_name_H-M    P1
_symmetry_Int_Tables_number       1
_space_group_crystal_system       triclinic
_cell_length_a                    17.077413
_cell_length_b                    7.245912
_cell_length_c                    16.975043
_cell_angle_alpha                 90.0
_cell_angle_beta                  98.999557
_cell_angle_gamma                 89.999984
_cell_volume                      2074.65782689

loop_
_atom_site_label
_atom_site_type_symbol
_atom_type_description
_atom_site_fract_x
_atom_site_fract_y
_atom_site_fract_z
_atom_type_partial_charge
O1    O     O_R   0.414560 0.494370 0.416770 -0.541822
O2    O     O_R   0.585440 0.994370 0.583230 -0.541822
O3    O     O_R   0.578370 0.819590 0.429320 -0.531523
O4    O     O_R   0.421630 0.319590 0.570680 -0.531523
C1    C     C_R   0.605165 0.655040 0.414618 0.697038
C2    C     C_R   0.394835 0.155040 0.585382 0.697039
O5    O     O_R   0.414740 0.823790 0.407360 -0.535475
O6    O     O_R   0.585260 0.323790 0.592640 -0.535475
O7    O     O_R   0.420650 0.998510 0.561120 -0.543281
O8    O     O_R   0.579350 0.498510 0.438880 -0.543281
C3    C     C_R   0.386864 0.655730 0.387124 0.676629
C4    C     C_R   0.613136 0.155730 0.612876 0.676628
O9    O     O_3   0.502130 0.662240 0.550470 -0.374362
O10   O     O_3   0.497870 0.162240 0.449530 -0.374361
V1    V     V_3+5 0.499600 0.935390 0.490640 1.514854
V2    V     V_3+5 0.500400 0.435390 0.509360 1.514854
C5    C     C_2   0.786847 0.256196 0.781350 -0.072216
C6    C     C_2   0.213153 0.756196 0.218649 -0.072216
C7    C     C_2   0.809438 0.111974 0.832086 -0.204051
C8    C     C_2   0.190562 0.611974 0.167913 -0.204051
C9    C     C_2   0.706079 0.262332 0.733098 0.022778
C10   C     C_2   0.293921 0.762332 0.266901 0.022777
C11   C     C_2   0.688649 0.146478 0.669759 0.233355
C12   C     C_2   0.311351 0.646478 0.330241 0.233354
C13   C     C_R   0.329232 0.141605 0.633056 -0.164846
C14   C     C_R   0.670768 0.641604 0.366944 -0.164846
C15   C     C_R   0.166375 0.126149 0.861905 -0.261406
C16   C     C_R   0.833624 0.626150 0.138095 -0.261406
C17   C     C_R   0.295951 0.249375 0.840855 0.363994
C18   C     C_R   0.704049 0.749376 0.159145 0.363994
C19   C     C_R   0.238967 0.216611 0.891672 0.238531
C20   C     C_R   0.761033 0.716612 0.108328 0.238532
C21   C     C_R   0.153125 0.061584 0.781698 0.281997
C22   C     C_R   0.846874 0.561583 0.218302 0.281996
C23   C     C_R   0.212174 0.087494 0.732698 0.003517
C24   C     C_R   0.787825 0.587494 0.267302 0.003517
C25   C     C_R   0.282835 0.183687 0.761760 -0.027211
C26   C     C_R   0.717165 0.683688 0.238239 -0.027212
C27   C     C_R   0.340244 0.211180 0.711172 -0.088375
C28   C     C_R   0.659756 0.711181 0.288828 -0.088374
C29   C     C_R   0.258140 0.047008 0.603565 -0.078976
C30   C     C_R   0.741859 0.547006 0.396435 -0.078977
C31   C     C_R   0.200658 0.021547 0.653633 -0.028477
C32   C     C_R   0.799342 0.521546 0.346367 -0.028476
H1    H     H_    0.395262 0.282021 0.733001 0.200940
H2    H     H_    0.604738 0.782023 0.267000 0.200941
H3    H     H_    0.146355 0.949650 0.630333 0.212104
H4    H     H_    0.853645 0.449648 0.369667 0.212104
O11   O     O_R   0.920750 0.773600 0.061260 -0.526086
O12   O     O_R   0.079250 0.273600 0.938740 -0.526086
O13   O     O_R   0.085340 0.439850 0.092570 -0.541925
O14   O     O_R   0.914660 0.939850 0.907430 -0.541925
C33   C     C_R   0.113487 0.607941 0.112974 0.627783
C34   C     C_R   0.886513 0.107941 0.887026 0.627782
O15   O     O_R   0.921720 0.444130 0.070790 -0.531045
O16   O     O_R   0.078280 0.944130 0.929210 -0.531045
O17   O     O_R   0.914480 0.269530 0.916840 -0.547019
O18   O     O_R   0.085520 0.769530 0.083160 -0.547019
C35   C     C_R   0.896672 0.612951 0.086795 0.686286
C36   C     C_R   0.103328 0.112951 0.913205 0.686287
O19   O     O_3   0.997840 0.601520 0.949550 -0.375168
O20   O     O_3   0.002160 0.101520 0.050450 -0.375168
V3    V     V_3+5 0.000400 0.328340 0.009360 1.468599
V4    V     V_3+5 0.999600 0.828340 0.990640 1.468598
C37   C     C_2   0.842856 0.404370 0.765611 0.413259
H5    H     H_    0.906294 0.388995 0.783241 0.079344
O21   O     O_2   0.818394 0.544625 0.730107 -0.525948
C38   C     C_2   0.157145 0.904372 0.234388 0.413258
H6    H     H_    0.093707 0.888996 0.216759 0.079344
O22   O     O_2   0.181607 0.044628 0.269890 -0.525949
O23   O     O_3   0.083044 0.976508 0.748363 -0.627006
H7    H     H_    0.041529 0.995979 0.782012 0.299092
O24   O     O_3   0.916956 0.476507 0.251637 -0.627005
H8    H     H_    0.958471 0.495978 0.217987 0.299092
C39   C     C_2   0.754985 0.953941 0.841085 0.525195
H9    H     H_    0.779439 0.819647 0.859283 0.052222
O25   O     O_2   0.683065 0.972484 0.831684 -0.511880
C40   C     C_2   0.245014 0.453940 0.158915 0.525195
H10   H     H_    0.220560 0.319646 0.140718 0.052225
O26   O     O_2   0.316935 0.472481 0.168317 -0.511880
C41   C     C_2   0.648593 0.391696 0.761060 0.429504
H11   H     H_    0.670651 0.508308 0.798168 0.082050
O27   O     O_2   0.577205 0.364427 0.747457 -0.514382
C42   C     C_2   0.351408 0.891694 0.238939 0.429505
H12   H     H_    0.329350 0.008305 0.201831 0.082051
O28   O     O_2   0.422796 0.864425 0.252543 -0.514383
O29   O     O_3   0.746417 0.021551 0.655646 -0.617716
H13   H     H_    0.728898 0.958020 0.604208 0.302148
O30   O     O_3   0.253583 0.521553 0.344354 -0.617716
H14   H     H_    0.271101 0.458022 0.395792 0.302148
C43   C     C_2   0.242065 0.978437 0.519914 0.429387
H15   H     H_    0.280872 0.014736 0.477504 0.044758
O31   O     O_2   0.184653 0.881056 0.496929 -0.501016
C44   C     C_2   0.757935 0.478435 0.480086 0.429388
H16   H     H_    0.719127 0.514735 0.522496 0.044758
O32   O     O_2   0.815346 0.381053 0.503071 -0.501016
O33   O     O_3   0.366049 0.342274 0.867283 -0.619393
H17   H     H_    0.366986 0.386424 0.922563 0.360114
O34   O     O_3   0.633951 0.842276 0.132717 -0.619393
H18   H     H_    0.633015 0.886427 0.077438 0.360113
O35   O     O_3   0.256401 0.274559 0.970142 -0.636014
H19   H     H_    0.224777 0.203003 0.003567 0.281140
O36   O     O_3   0.743599 0.774560 0.029858 -0.636014
H20   H     H_    0.775223 0.703005 0.996433 0.281140

loop_
_geom_bond_atom_site_label_1
_geom_bond_atom_site_label_2
_ccdc_geom_bond_type
C18   C20   A    
O29   H13   S    
O35   H19   S    
O15   C35   A    
O24   H8    S    
O1    C3    A    
O2    C4    A    
C12   O30   S    
C2    O7    A    
O33   H17   S    
C15   C21   A    
O5    C3    A    
C4    C11   S    
C19   O35   S    
C23   C25   A    
C42   O28   D    
C15   C36   S    
C40   O26   D    
C2    C13   S    
C6    C38   S    
C3    C12   S    
C18   C26   A    
C5    C7    D    
C38   H6    S    
C37   O21   D    
O15   V3    S    
O16   V4    S    
C23   C31   A    
C22   C24   A    
C27   H1    S    
O5    V1    S    
C16   C22   A    
O6    V2    S    
O11   V4    S    
C11   O29   S    
O12   V3    S    
C29   C31   A    
C30   C44   S    
C30   C32   A    
C41   O27   D    
O14   C34   A    
O17   V3    S    
O18   V4    S    
C25   C27   A    
C15   C19   A    
C16   C20   A    
O13   V3    S    
C42   H12   S    
O4    C2    A    
O14   V4    S    
C13   C29   A    
C43   H15   S    
C40   H10   S    
C18   O34   S    
C41   H11   S    
O16   C36   A    
O13   C33   A    
C10   C42   S    
O4    V2    S    
O19   V4    S    
C28   H2    S    
C39   H9    S    
O20   V3    S    
C43   O31   D    
O34   H18   S    
O6    C4    A    
C20   O36   S    
O1    V2    S    
C44   O32   D    
O2    V1    S    
C39   O25   D    
C7    C34   S    
C29   C43   S    
C9    C41   S    
C9    C11   D    
C10   C12   D    
C24   C32   A    
O3    V1    S    
C14   C30   A    
C16   C35   S    
C6    C10   S    
C8    C33   S    
O3    C1    A    
C33   O18   A    
C8    C40   S    
C5    C37   S    
O11   C35   A    
C17   O33   S    
O12   C36   A    
C24   C26   A    
O7    V1    S    
C1    O8    A    
C17   C19   A    
O8    V2    S    
C13   C27   A    
C26   C28   A    
C14   C28   A    
C7    C39   S    
C21   C23   A    
C6    C8    D    
C44   H16   S    
C5    C9    S    
C21   O23   S    
C22   O24   S    
C1    C14   S    
O23   H7    S    
C38   O22   D    
C37   H5    S    
O9    V2    S    
C17   C25   A    
O36   H20   S    
O10   V1    S    
O30   H14   S    
C31   H3    S    
C32   H4    S    
C34   O17   A    
