data_mof_unit_5764.cif
_audit_creation_date              2012-12-11T15:48:09-0500
_audit_creation_method            fapswitch 2.2
_symmetry_space_group_name_H-M    P1
_symmetry_Int_Tables_number       1
_space_group_crystal_system       triclinic
_cell_length_a                    6.935943
_cell_length_b                    17.594598
_cell_length_c                    19.438688
_cell_angle_alpha                 108.579321
_cell_angle_beta                  89.411104
_cell_angle_gamma                 90.788836
_cell_volume                      2248.31526261

loop_
_atom_site_label
_atom_site_type_symbol
_atom_type_description
_atom_site_fract_x
_atom_site_fract_y
_atom_site_fract_z
_atom_type_partial_charge
O1    O     O_R   0.494330 0.415710 0.413720 -0.543508
O2    O     O_R   0.819360 0.430070 0.560210 -0.542863
O3    O     O_R   0.994320 0.584290 0.586280 -0.547190
C1    C     C_R   0.649642 0.414449 0.581391 0.747208
O4    O     O_R   0.823740 0.406290 0.412670 -0.544991
O5    O     O_R   0.998730 0.560340 0.437690 -0.542047
C2    C     C_R   0.654740 0.383123 0.384812 0.690066
O6    O     O_R   0.489920 0.439660 0.562310 -0.511267
O7    O     O_3   0.662330 0.550570 0.508380 -0.368675
V1    V     V_3+5 0.935370 0.490620 0.498440 1.432022
O8    O     O_R   0.328720 0.569930 0.439790 -0.546066
C3    C     C_R   0.161209 0.585181 0.418469 0.690863
O9    O     O_R   0.324340 0.593710 0.587330 -0.509390
C4    C     C_R   0.155694 0.617175 0.615183 0.716837
V2    V     V_3+5 0.435940 0.509380 0.501560 1.469275
O10   O     O_3   0.159110 0.449430 0.491620 -0.360651
C5    C     C_R   0.311694 0.733273 0.712890 0.469887
C6    C     C_R   0.298332 0.795750 0.779081 -0.237304
H1    H     H_    0.427902 0.829373 0.801187 0.134237
C7    C     C_R   0.121270 0.815238 0.815866 -0.116726
C8    C     C_R   0.956876 0.769758 0.785936 -0.154043
H2    H     H_    0.818154 0.782909 0.812932 0.145353
C9    C     C_R   0.969837 0.705774 0.721206 -0.217790
C10   C     C_R   0.146494 0.686237 0.683771 -0.158472
C11   C     C_R   0.289425 0.624106 0.313347 -0.222757
C12   C     C_R   0.155144 0.635335 0.370232 -0.080691
C13   C     C_R   0.014355 0.694530 0.380723 -0.197485
C14   C     C_R   0.006471 0.742114 0.334876 0.042109
C15   C     C_R   0.135899 0.728667 0.276082 0.090219
C16   C     C_R   0.278796 0.669453 0.265606 0.120264
C17   C     C_R   0.873148 0.803862 0.348149 -0.300905
C18   C     C_R   0.859268 0.851260 0.301882 0.503968
C19   C     C_R   0.982869 0.835346 0.239886 -0.093627
C20   C     C_R   0.123386 0.774465 0.228043 -0.138614
C21   C     C_R   0.252537 0.759013 0.168371 0.025806
C22   C     C_R   0.394822 0.700178 0.159204 -0.164942
C23   C     C_R   0.408338 0.656328 0.207437 -0.208616
C24   C     C_R   0.970555 0.878809 0.189421 0.356948
C25   C     C_R   0.105314 0.865336 0.131444 -0.286228
C26   C     C_R   0.239247 0.802778 0.119118 0.319592
H3    H     H_    0.398853 0.578570 0.305143 0.119620
H4    H     H_    0.782832 0.816448 0.396137 0.130042
H5    H     H_    0.497493 0.688033 0.114769 0.159545
H6    H     H_    0.519698 0.611594 0.198863 0.130831
C27   C     C_R   0.784654 0.180545 0.864781 -0.222442
C28   C     C_R   0.623107 0.132279 0.867274 -0.079793
C29   C     C_R   0.466118 0.129828 0.821222 -0.222226
C30   C     C_R   0.469599 0.174492 0.772975 0.096167
C31   C     C_R   0.630324 0.223866 0.771551 0.080846
C32   C     C_R   0.788030 0.227210 0.817956 0.089397
C33   C     C_R   0.314659 0.170734 0.726239 -0.209219
C34   C     C_R   0.317456 0.216178 0.678911 -0.161476
C35   C     C_R   0.475771 0.266416 0.677069 -0.002111
C36   C     C_R   0.633188 0.270076 0.723802 -0.010077
C37   C     C_R   0.793446 0.319963 0.723140 0.086665
C38   C     C_R   0.948260 0.323662 0.770126 -0.157583
C39   C     C_R   0.945727 0.277615 0.817005 -0.190862
C40   C     C_R   0.480247 0.312583 0.629230 0.399747
C41   C     C_R   0.640265 0.363726 0.629629 -0.181074
C42   C     C_R   0.796166 0.365868 0.676036 -0.262773
H7    H     H_    0.905781 0.183038 0.900286 0.131110
H8    H     H_    0.341593 0.092257 0.822312 0.122396
H9    H     H_    0.194247 0.212114 0.644099 0.170142
H10   H     H_    0.919463 0.404557 0.676328 0.160242
H11   H     H_    0.067636 0.281259 0.852382 0.137836
C43   C     C_R   0.774313 0.251681 0.300516 -0.170380
C44   C     C_R   0.761138 0.187480 0.235665 -0.231147
C45   C     C_R   0.619188 0.185747 0.184008 -0.137823
C46   C     C_R   0.485944 0.249134 0.199380 0.456489
C47   C     C_R   0.499517 0.313192 0.265014 -0.227866
C48   C     C_R   0.642954 0.314983 0.316053 -0.097153
O11   O     O_R   0.774940 0.060470 0.937800 -0.544301
O12   O     O_R   0.440880 0.093730 0.087350 -0.525410
O13   O     O_R   0.266130 0.939630 0.062280 -0.528759
C49   C     C_R   0.609598 0.117163 0.115202 0.740047
O14   O     O_R   0.445480 0.069960 0.939820 -0.539954
O15   O     O_R   0.270770 0.915690 0.913690 -0.540963
C50   C     C_R   0.614900 0.084616 0.917886 0.712837
O16   O     O_R   0.770300 0.084410 0.086380 -0.545657
O17   O     O_3   0.602600 0.949510 0.991670 -0.370012
V3    V     V_3+5 0.329470 0.009370 0.001550 1.447148
O18   O     O_R   0.940760 0.906160 0.912560 -0.549187
C51   C     C_R   0.109850 0.883116 0.884727 0.700168
O19   O     O_R   0.936150 0.929930 0.060100 -0.540086
C52   C     C_R   0.102875 0.915503 0.082381 0.795884
V4    V     V_3+5 0.828930 0.990450 0.998310 1.416281
O20   O     O_3   0.105670 0.050490 0.008320 -0.372378
O21   O     O_3   0.489615 0.715460 0.679358 -0.557208
C53   C     C_3   0.531782 0.771024 0.642521 -0.252417
H12   H     H_    0.552340 0.832577 0.681199 0.124817
H13   H     H_    0.417904 0.770489 0.602364 0.120055
H14   H     H_    0.669010 0.753568 0.612080 0.160980
O22   O     O_3   0.362016 0.785878 0.059638 -0.563298
C54   C     C_3   0.268115 0.731442 0.999603 -0.242928
H15   H     H_    0.232181 0.674107 0.009834 0.136626
H16   H     H_    0.367160 0.717424 0.952142 0.160180
H17   H     H_    0.135794 0.757746 0.984966 0.118340
H18   H     H_    0.190164 0.132956 0.726609 0.133081
O23   O     O_3   0.325347 0.309721 0.584077 -0.551385
C55   C     C_3   0.362264 0.251453 0.516333 -0.215122
H19   H     H_    0.379042 0.190831 0.521836 0.123849
H20   H     H_    0.491828 0.267437 0.489375 0.114026
H21   H     H_    0.237286 0.248677 0.480420 0.158748
H22   H     H_    0.072215 0.361913 0.770335 0.134242
H23   H     H_    0.885776 0.251293 0.339018 0.129207
H24   H     H_    0.861746 0.138596 0.225978 0.156389
O24   O     O_3   0.356384 0.252634 0.146845 -0.559067
C56   C     C_3   0.168523 0.239900 0.169501 -0.184839
H25   H     H_    0.158344 0.183142 0.183163 0.125239
H26   H     H_    0.067933 0.234229 0.124082 0.164826
H27   H     H_    0.120489 0.291470 0.216212 0.125300
H28   H     H_    0.401094 0.362896 0.275116 0.122864
H29   H     H_    0.840952 0.670899 0.700790 0.192275
H30   H     H_    0.912743 0.704335 0.425418 0.117445
O25   O     O_3   0.741258 0.918294 0.320336 -0.525240
C57   C     C_3   0.555257 0.901311 0.342613 -0.243601
H31   H     H_    0.502928 0.839763 0.311962 0.129157
H32   H     H_    0.452234 0.943993 0.332165 0.166462
H33   H     H_    0.552722 0.910792 0.401880 0.137918
O26   O     O_3   0.833770 0.937819 0.198316 -0.539050
C58   C     C_3   0.659466 0.901319 0.166547 -0.054046
H34   H     H_    0.602183 0.858404 0.193037 0.125039
H35   H     H_    0.676403 0.868948 0.107688 0.156054
H36   H     H_    0.550414 0.948667 0.173064 0.132557

loop_
_geom_bond_atom_site_label_1
_geom_bond_atom_site_label_2
_ccdc_geom_bond_type
C37   C38   A    
O22   C54   S    
C17   H4    S    
C5    O21   S    
C21   C22   A    
C26   O22   S    
C1    O6    A    
C29   H8    S    
C46   O24   S    
C17   C18   A    
C35   C36   A    
C57   H31   S    
C45   C49   S    
C12   C13   A    
C14   C15   A    
O19   V4    S    
C6    H1    S    
C2    C48   S    
C24   C25   A    
O15   C51   A    
V2    O10   S    
C56   H25   S    
C20   C21   A    
C4    C10   S    
C58   H36   S    
O17   V4    S    
C28   C29   A    
O8    V2    S    
C30   C33   A    
C29   C30   A    
C56   H26   S    
C45   C46   A    
O11   C50   A    
O24   C56   S    
C47   C48   A    
O1    V2    S    
O9    C4    A    
C53   H13   S    
O7    V1    S    
C24   O26   S    
C33   H18   S    
C43   C44   A    
C41   C42   A    
O13   C52   A    
C37   C42   A    
O12   C49   A    
C54   H15   S    
O12   V3    S    
C5    C6    A    
C5    C10   A    
C44   C45   A    
O19   C52   A    
C38   H22   S    
C11   H3    S    
C25   C26   A    
C28   C50   S    
V4    O20   S    
C54   H17   S    
C11   C12   A    
O18   V4    S    
C15   C20   A    
C55   H21   S    
C33   C34   A    
C16   C23   A    
C3    C12   S    
O2    C1    A    
C43   C48   A    
C15   C16   A    
C9    H29   S    
O23   C55   S    
O15   V3    S    
C9    C10   A    
C39   H11   S    
C55   H20   S    
C19   C20   A    
C7    C8    A    
C53   H14   S    
C54   H16   S    
C58   H34   S    
V3    O20   S    
O3    C4    A    
C47   H28   S    
C30   C31   A    
O18   C51   A    
O6    V2    S    
C8    C9    A    
C38   C39   A    
C25   C52   S    
C43   H23   S    
O2    V1    S    
C34   C35   A    
O4    C2    A    
C11   C16   A    
C36   C37   A    
C22   C23   A    
O1    C2    A    
C32   C39   A    
C14   C17   A    
C40   O23   S    
O14   C50   A    
O17   V3    S    
C34   H9    S    
O14   V3    S    
O5    V1    S    
O11   V4    S    
C35   C40   A    
C56   H27   S    
C44   H24   S    
C19   C24   A    
C57   H33   S    
C42   H10   S    
C18   C19   A    
C23   H6    S    
O9    V2    S    
C21   C26   A    
C40   C41   A    
O4    V1    S    
O3    V1    S    
V1    O10   S    
O5    C3    A    
O25   C57   S    
C27   C32   A    
C1    C41   S    
C27   H7    S    
C55   H19   S    
C57   H32   S    
C6    C7    A    
C18   O25   S    
O7    V2    S    
C46   C47   A    
C58   H35   S    
C13   H30   S    
C27   C28   A    
O21   C53   S    
C31   C32   A    
C7    C51   S    
C13   C14   A    
O26   C58   S    
C22   H5    S    
O13   V3    S    
C53   H12   S    
C8    H2    S    
C49   O16   A    
O16   V4    S    
C31   C36   A    
O8    C3    A    
