data_mof_unit_44500.cif
_audit_creation_date              2012-12-10T20:30:08-0500
_audit_creation_method            fapswitch 2.2
_symmetry_space_group_name_H-M    P1
_symmetry_Int_Tables_number       1
_space_group_crystal_system       triclinic
_cell_length_a                    9.87451
_cell_length_b                    10.677435
_cell_length_c                    13.12842
_cell_angle_alpha                 90.020577
_cell_angle_beta                  69.558388
_cell_angle_gamma                 89.971408
_cell_volume                      1297.02297203

loop_
_atom_site_label
_atom_site_type_symbol
_atom_type_description
_atom_site_fract_x
_atom_site_fract_y
_atom_site_fract_z
_atom_type_partial_charge
C1    C     C_R   0.501363 0.740043 0.496924 0.890976
C2    C     C_R   0.431664 0.484200 0.985549 0.097183
C3    C     C_R   0.456238 0.445431 0.878008 0.012335
C4    C     C_R   0.541058 0.462459 0.029865 0.105866
C5    C     C_R   0.661527 0.385549 0.974314 0.169991
C6    C     C_R   0.672894 0.332842 0.874593 -0.260169
C7    C     C_R   0.571371 0.362038 0.826995 -0.187388
C8    C     C_R   0.534622 0.516924 0.127690 -0.250885
C9    C     C_R   0.749488 0.405840 0.124394 -0.196922
C10   C     C_R   0.366857 0.493691 0.823481 -0.263863
C11   C     C_R   0.385464 0.936260 0.481685 0.135264
C12   C     C_R   0.419431 0.496110 0.704598 0.911352
C13   C     C_R   0.508569 0.871469 0.479980 -0.106764
C14   C     C_R   0.639995 0.935177 0.457588 -0.225650
C15   C     C_R   0.640132 0.064700 0.457343 -0.228846
C16   C     C_R   0.508830 0.128623 0.479536 -0.098024
C17   C     C_R   0.385619 0.064006 0.481367 0.132506
C18   C     C_3   0.234134 0.071553 0.560349 -0.480958
C19   C     C_3   0.234093 0.929599 0.560906 -0.484283
C20   C     C_R   0.905764 0.594606 0.549379 0.211419
C21   C     C_R   0.954678 0.413104 0.442858 -0.142129
C22   C     C_R   0.098611 0.413116 0.442817 -0.127670
C23   C     C_R   0.501576 0.259995 0.496673 0.864040
C24   C     C_R   0.048027 0.594099 0.549942 0.166807
C25   C     C_3   0.997433 0.625612 0.667857 -0.411275
C26   C     C_3   0.844638 0.628861 0.666615 -0.521644
C27   C     C_R   0.580592 0.499097 0.295615 0.863770
C28   C     C_R   0.767004 0.360382 0.020868 -0.177163
C29   C     C_R   0.629889 0.480989 0.178816 -0.060574
C30   C     C_R   0.238800 0.557509 0.882455 0.615884
C31   C     C_R   0.202436 0.576711 0.993308 -0.216227
C32   C     C_R   0.298701 0.543169 0.044447 -0.309837
H1    H     H_    0.824014 0.376880 0.163927 0.150847
H2    H     H_    0.740023 0.113665 0.447359 0.165224
H3    H     H_    0.227425 0.113394 0.639574 0.205350
H4    H     H_    0.158838 0.112314 0.523056 0.201412
H5    H     H_    0.227841 0.888904 0.640396 0.216561
H6    H     H_    0.158510 0.888251 0.524180 0.200708
H7    H     H_    0.921111 0.341508 0.398397 0.139112
H8    H     H_    0.173511 0.341532 0.398289 0.148831
H9    H     H_    0.014940 0.547028 0.717295 0.263821
H10   H     H_    0.036592 0.718543 0.683595 0.222288
H11   H     H_    0.774742 0.554674 0.717756 0.241419
H12   H     H_    0.761612 0.270694 0.832438 0.150534
H13   H     H_    0.796509 0.724263 0.679058 0.204050
H14   H     H_    0.858814 0.300961 0.979568 0.139893
H15   H     H_    0.451294 0.583450 0.169217 0.148401
H16   H     H_    0.265145 0.562506 0.130366 0.163850
H17   H     H_    0.102402 0.623755 0.038906 0.173386
H18   H     H_    0.583731 0.318221 0.749934 0.170556
H19   H     H_    0.739824 0.886080 0.447747 0.170056
N1    N     N_R   0.856940 0.500860 0.500710 -0.099546
N2    N     N_R   0.142580 0.500820 0.500710 -0.101838
O1    O     O_R   0.385310 0.683210 0.499990 -0.608577
O2    O     O_R   0.614650 0.683240 0.500000 -0.619718
O3    O     O_R   0.328390 0.499940 0.653610 -0.558841
O4    O     O_R   0.557730 0.499980 0.653620 -0.621500
O5    O     O_R   0.385350 0.316760 0.500000 -0.620315
O6    O     O_R   0.614690 0.316790 0.500010 -0.632348
O7    O     O_R   0.442270 0.500020 0.346380 -0.615541
O8    O     O_R   0.671610 0.500060 0.346390 -0.616423
Zn1   Zn    Zn3+2 0.346870 0.499980 0.499990 0.958424
Zn2   Zn    Zn3+2 0.653130 0.500020 0.500010 0.933883
F1    F     F_    0.152680 0.607732 0.832409 -0.701079

loop_
_geom_bond_atom_site_label_1
_geom_bond_atom_site_label_2
_ccdc_geom_bond_type
C25   H10   S    
O5    Zn1   S    
C23   O5    A    
C2    C4    A    
C1    O1    A    
C18   H4    S    
C6    C7    A    
C19   H6    S    
C30   F1    S    
C27   C29   S    
C5    C28   A    
C27   O8    A    
C18   H3    S    
C10   C30   A    
C15   H2    S    
O6    Zn2   S    
C31   C32   A    
C21   H7    S    
C9    C29   A    
C30   C31   A    
C4    C8    A    
C22   H8    S    
C16   C23   S    
C17   C18   S    
C1    O2    A    
C8    H15   S    
C3    C7    A    
C20   N1    A    
C3    C10   A    
C6    H12   S    
C21   C22   A    
C9    H1    S    
C11   C13   A    
C28   H14   S    
C12   O3    A    
C10   C12   S    
C31   H17   S    
C8    C29   A    
C7    H18   S    
O7    Zn1   S    
C26   H11   S    
O4    Zn2   S    
C22   N2    A    
C2    C3    A    
C27   O7    A    
C5    C6    A    
O3    Zn1   S    
C1    C13   S    
C12   O4    A    
C15   C16   A    
C16   C17   A    
C20   C24   A    
C24   C25   S    
C24   N2    A    
C2    C32   A    
C18   C19   S    
N2    Zn1   S    
C25   H9    S    
C32   H16   S    
O8    Zn2   S    
C14   C15   A    
C11   C19   S    
C19   H5    S    
C23   O6    A    
C25   C26   S    
C13   C14   A    
O1    Zn1   S    
C21   N1    A    
C11   C17   A    
C14   H19   S    
C9    C28   A    
C20   C26   S    
C4    C5    A    
C26   H13   S    
N1    Zn2   S    
O2    Zn2   S    
