data_mof_unit_36037.cif
_audit_creation_date              2012-12-11T14:13:26-0500
_audit_creation_method            fapswitch 2.2
_symmetry_space_group_name_H-M    P1
_symmetry_Int_Tables_number       1
_space_group_crystal_system       triclinic
_cell_length_a                    17.291374
_cell_length_b                    17.291422
_cell_length_c                    17.55343
_cell_angle_alpha                 89.930766
_cell_angle_beta                  89.930736
_cell_angle_gamma                 89.78291
_cell_volume                      5248.29763995

loop_
_atom_site_label
_atom_site_type_symbol
_atom_type_description
_atom_site_fract_x
_atom_site_fract_y
_atom_site_fract_z
_atom_type_partial_charge
C1    C     C_R   0.588407 0.320664 0.134125 -0.027363
C2    C     C_R   0.174966 0.082068 0.638076 -0.039972
C3    C     C_R   0.889863 0.195682 0.599772 0.082217
C4    C     C_R   0.804512 0.891888 0.601722 0.003398
C5    C     C_R   0.108112 0.195488 0.398278 0.003379
C6    C     C_R   0.195872 0.891602 0.399059 -0.022166
C7    C     C_R   0.917933 0.825034 0.361924 -0.039953
C8    C     C_R   0.804318 0.110136 0.400228 0.082212
C9    C     C_R   0.603402 0.697526 0.096436 0.749356
C10   C     C_R   0.318219 0.592940 0.130180 0.787040
C11   C     C_R   0.403493 0.312839 0.122523 0.751650
C12   C     C_R   0.695649 0.608951 0.100480 0.052878
C13   C     C_R   0.677176 0.413910 0.135406 0.787788
C14   C     C_R   0.586090 0.322824 0.864594 0.787787
C15   C     C_R   0.302474 0.396598 0.903564 0.749352
C16   C     C_R   0.407062 0.681779 0.869818 0.787037
C17   C     C_R   0.687162 0.596508 0.877478 0.751651
C18   C     C_R   0.083150 0.173407 0.638564 0.839557
C19   C     C_R   0.801932 0.103563 0.595455 0.761336
C20   C     C_R   0.895914 0.802314 0.595331 0.793795
C21   C     C_R   0.197917 0.894913 0.594714 0.730026
C22   C     C_R   0.105087 0.802083 0.405287 0.730041
C23   C     C_R   0.412078 0.681438 0.132164 -0.050867
C24   C     C_R   0.826593 0.916850 0.361436 0.839556
C25   C     C_R   0.896437 0.198067 0.404545 0.761353
C26   C     C_R   0.197686 0.104085 0.404669 0.794058
C27   C     C_R   0.650405 0.349738 0.173916 -0.229067
C28   C     C_R   0.678934 0.686241 0.114811 -0.250370
C29   C     C_R   0.345718 0.657220 0.168014 -0.222266
C30   C     C_R   0.335787 0.335866 0.156524 -0.212156
C31   C     C_R   0.664136 0.664214 0.843478 -0.212155
C32   C     C_R   0.650262 0.349596 0.826083 -0.229064
C33   C     C_R   0.313758 0.321066 0.885189 -0.250368
C34   C     C_R   0.313088 0.404659 0.124426 -0.019967
C35   C     C_R   0.342782 0.654280 0.831983 -0.222292
C36   C     C_R   0.186821 0.818540 0.612262 -0.264181
C37   C     C_R   0.145078 0.143189 0.679168 -0.303939
C38   C     C_R   0.811975 0.179613 0.612752 -0.304683
C39   C     C_R   0.820195 0.813820 0.614354 -0.262311
C40   C     C_R   0.186181 0.179804 0.385646 -0.262401
C41   C     C_R   0.181461 0.813179 0.387739 -0.264272
C42   C     C_R   0.856811 0.854922 0.320832 -0.303944
C43   C     C_R   0.820387 0.188024 0.387248 -0.304663
C44   C     C_2   0.716330 0.660110 0.716098 0.246670
C45   C     C_R   0.595342 0.686913 0.875575 -0.019972
C46   C     C_2   0.343113 0.706134 0.704115 0.175990
C47   C     C_2   0.190409 0.284211 0.827102 0.248532
C48   C     C_2   0.650198 0.286926 0.702404 0.174873
C49   C     C_2   0.713075 0.349801 0.297596 0.174859
C50   C     C_2   0.339891 0.283669 0.283903 0.246685
C51   C     C_2   0.293869 0.656888 0.295885 0.176017
C52   C     C_2   0.715789 0.809590 0.172899 0.248532
C53   C     C_2   0.311366 0.221114 0.330491 0.218625
C54   C     C_2   0.778399 0.315802 0.337227 0.153276
C55   C     C_2   0.780571 0.851311 0.204551 0.182375
C56   C     C_R   0.679336 0.411594 0.865875 -0.027362
C57   C     C_2   0.229633 0.685174 0.341349 0.140298
C58   C     C_2   0.314826 0.770370 0.658653 0.140231
C59   C     C_2   0.778885 0.688635 0.669508 0.218595
C60   C     C_2   0.684196 0.221602 0.662772 0.153260
C61   C     C_2   0.148688 0.219428 0.795449 0.182369
C62   C     C_2   0.702452 0.700044 0.780600 0.683418
C63   C     C_2   0.305013 0.692362 0.769572 0.672777
C64   C     C_2   0.251795 0.266680 0.871735 0.691923
C65   C     C_2   0.688631 0.310707 0.764585 0.690166
C66   C     C_2   0.689293 0.311369 0.235414 0.690169
C67   C     C_R   0.391049 0.304351 0.899520 0.052875
C68   C     C_2   0.299956 0.297550 0.219402 0.683401
C69   C     C_2   0.307636 0.694988 0.230427 0.672730
C70   C     C_2   0.733321 0.748204 0.128265 0.691929
C71   C     C_2   0.245971 0.236796 0.370248 0.701974
C72   C     C_2   0.763683 0.249727 0.376354 0.691815
C73   C     C_2   0.818753 0.814475 0.260381 0.678701
C74   C     C_2   0.241079 0.753809 0.376862 0.660249
C75   C     C_2   0.246191 0.758923 0.623139 0.660230
C76   C     C_2   0.763203 0.754029 0.629753 0.701974
C77   C     C_2   0.750271 0.236317 0.623645 0.691822
C78   C     C_R   0.318563 0.587921 0.867835 -0.050850
C79   C     C_2   0.185525 0.181247 0.739619 0.678703
C80   C     C_R   0.108397 0.804128 0.600942 -0.022325
F1    F     F_    0.573724 0.764920 0.069861 -0.644982
F2    F     F_    0.736202 0.073316 0.566796 -0.651240
F3    F     F_    0.924794 0.736386 0.565223 -0.623647
F4    F     F_    0.263461 0.924339 0.564832 -0.613310
F5    F     F_    0.075662 0.736539 0.435169 -0.613301
F6    F     F_    0.760822 0.956597 0.347260 -0.631356
F7    F     F_    0.926684 0.263797 0.433204 -0.651240
F8    F     F_    0.263615 0.075205 0.434774 -0.623585
F9    F     F_    0.734708 0.770760 0.792750 -0.619349
F10   F     F_    0.235361 0.726405 0.784229 -0.662060
F11   F     F_    0.262126 0.192831 0.897216 -0.623505
F12   F     F_    0.245475 0.564973 0.134774 -0.640269
F13   F     F_    0.762609 0.286730 0.778010 -0.637865
F14   F     F_    0.713270 0.237390 0.221988 -0.637863
F15   F     F_    0.229240 0.265296 0.207253 -0.619363
F16   F     F_    0.273590 0.764639 0.215770 -0.662080
F17   F     F_    0.807169 0.737874 0.102785 -0.623494
F18   F     F_    0.225779 0.312204 0.382113 -0.602012
F19   F     F_    0.688938 0.232227 0.394157 -0.636407
F20   F     F_    0.808441 0.737085 0.271734 -0.603302
F21   F     F_    0.315369 0.777471 0.388250 -0.647261
F22   F     F_    0.222531 0.684633 0.611749 -0.647256
F23   F     F_    0.432330 0.240014 0.121915 -0.637740
F24   F     F_    0.687794 0.774222 0.617890 -0.602016
F25   F     F_    0.767772 0.311061 0.605841 -0.636404
F26   F     F_    0.262915 0.191560 0.728266 -0.603302
F27   F     F_    0.743895 0.452319 0.147613 -0.639942
F28   F     F_    0.547681 0.256106 0.852386 -0.639943
F29   F     F_    0.235080 0.426276 0.930139 -0.644976
F30   F     F_    0.435027 0.754523 0.865225 -0.640271
F31   F     F_    0.759987 0.567670 0.878086 -0.637730
F32   F     F_    0.043402 0.239177 0.652740 -0.631357
H1    H     H_    0.559735 0.266704 0.144887 0.256230
H2    H     H_    0.225830 0.047994 0.650870 0.247560
H3    H     H_    0.913789 0.253036 0.593704 0.259956
H4    H     H_    0.747666 0.918055 0.598809 0.248626
H5    H     H_    0.081946 0.252333 0.401192 0.248636
H6    H     H_    0.252455 0.917805 0.402739 0.254814
H7    H     H_    0.952006 0.774170 0.349130 0.247557
H8    H     H_    0.746964 0.086211 0.406295 0.259956
H9    H     H_    0.635773 0.517815 0.586069 0.402413
H10   H     H_    0.396547 0.646278 0.560692 0.352507
H11   H     H_    0.116090 0.409642 0.674907 0.417830
H12   H     H_    0.753073 0.584763 0.094552 0.244836
H13   H     H_    0.596219 0.359587 0.563182 0.348011
H14   H     H_    0.640416 0.403776 0.436818 0.348006
H15   H     H_    0.482192 0.364214 0.413933 0.402410
H16   H     H_    0.353797 0.603435 0.439302 0.352554
H17   H     H_    0.590358 0.883898 0.325100 0.417827
H18   H     H_    0.303254 0.017354 0.270246 0.400420
H19   H     H_    0.892044 0.248872 0.229703 0.372488
H20   H     H_    0.922903 0.946610 0.185587 0.352624
H21   H     H_    0.103473 0.726902 0.237516 0.363496
H22   H     H_    0.273091 0.896527 0.762487 0.363495
H23   H     H_    0.446079 0.732238 0.144438 0.228887
H24   H     H_    0.982687 0.696812 0.729522 0.400339
H25   H     H_    0.751138 0.107964 0.770283 0.372477
H26   H     H_    0.053392 0.077098 0.814410 0.352623
H27   H     H_    0.258441 0.433337 0.132750 0.256006
H28   H     H_    0.566664 0.741560 0.867252 0.256006
H29   H     H_    0.733295 0.440265 0.855112 0.256229
H30   H     H_    0.415237 0.246927 0.905448 0.244833
H31   H     H_    0.267763 0.553919 0.855560 0.228892
H32   H     H_    0.082195 0.747545 0.597261 0.254759
N1    N     N_R   0.574080 0.369570 0.076720 -0.112036
N2    N     N_R   0.130430 0.074080 0.576720 -0.101131
N3    N     N_R   0.925920 0.130430 0.576720 -0.122997
N4    N     N_R   0.869570 0.925920 0.576720 -0.113003
N5    N     N_R   0.074080 0.130430 0.423280 -0.113014
N6    N     N_R   0.130430 0.925920 0.423280 -0.110724
N7    N     N_R   0.925920 0.869570 0.423280 -0.101119
N8    N     N_R   0.869570 0.074080 0.423280 -0.122998
N9    N     N_R   0.574050 0.630410 0.076720 -0.124643
N10   N     N_R   0.369590 0.574050 0.076720 -0.124034
N11   N     N_R   0.425950 0.369590 0.076720 -0.135951
N12   N     N_R   0.630430 0.574080 0.076720 -0.116969
N13   N     N_R   0.630410 0.425950 0.076720 -0.126992
N14   N     N_R   0.574050 0.369590 0.923280 -0.126992
N15   N     N_R   0.369590 0.425950 0.923280 -0.124645
N16   N     N_R   0.425950 0.630410 0.923280 -0.124034
N17   N     N_R   0.630410 0.574050 0.923280 -0.135952
N18   N     N_R   0.074050 0.130410 0.576720 -0.138270
N19   N     N_R   0.869590 0.074050 0.576720 -0.130452
N20   N     N_R   0.925950 0.869590 0.576720 -0.123281
N21   N     N_R   0.130410 0.925950 0.576720 -0.132280
N22   N     N_R   0.074050 0.869590 0.423280 -0.132283
N23   N     N_R   0.425920 0.630430 0.076720 -0.102245
N24   N     N_R   0.869590 0.925950 0.423280 -0.138268
N25   N     N_R   0.925950 0.130410 0.423280 -0.130453
N26   N     N_R   0.130410 0.074050 0.423280 -0.123314
N27   N     N_R   0.369570 0.425920 0.076720 -0.112018
N28   N     N_R   0.574080 0.630430 0.923280 -0.112018
N29   N     N_R   0.630430 0.425920 0.923280 -0.112036
N30   N     N_R   0.425920 0.369570 0.923280 -0.116969
N31   N     N_R   0.369570 0.574080 0.923280 -0.102247
N32   N     N_R   0.074080 0.869570 0.576720 -0.110706
Ni1   Ni    Ni4+2 0.500000 0.370760 0.000000 0.310420
Ni2   Ni    Ni4+2 0.629240 0.500000 0.000000 0.310424
Ni3   Ni    Ni4+2 0.500000 0.629240 0.000000 0.333980
Ni4   Ni    Ni4+2 0.370760 0.500000 0.000000 0.333984
Ni5   Ni    Ni4+2 1.000000 0.870760 0.500000 0.326353
Ni6   Ni    Ni4+2 0.129240 0.000000 0.500000 0.326364
Ni7   Ni    Ni4+2 1.000000 0.129240 0.500000 0.299255
Ni8   Ni    Ni4+2 0.870760 0.000000 0.500000 0.299260
O1    O     O_2   0.727061 0.505508 0.711706 -0.226225
O2    O     O_2   0.496311 0.267234 0.701960 -0.095495
O3    O     O_2   0.542373 0.400924 0.704813 -0.237191
O4    O     O_3   0.554170 0.323974 0.578263 -0.427526
O5    O     O_2   0.732768 0.503688 0.298040 -0.095493
O6    O     O_2   0.599077 0.457627 0.295187 -0.237187
O7    O     O_3   0.676027 0.445829 0.421736 -0.427517
O8    O     O_2   0.494494 0.272936 0.288291 -0.226220
O9    O     O_2   0.440246 0.402620 0.268361 -0.249214
O10   O     O_3   0.430673 0.341758 0.403419 -0.392664
O11   O     O_2   0.301742 0.502636 0.282437 -0.183979
O12   O     O_2   0.597378 0.559756 0.731642 -0.249224
O13   O     O_2   0.424041 0.571313 0.300219 -0.219228
O14   O     O_3   0.332136 0.555822 0.416657 -0.388154
O15   O     O_2   0.571239 0.869081 0.174029 -0.145647
O16   O     O_2   0.590761 0.748506 0.246190 -0.267127
O17   O     O_3   0.642286 0.875413 0.302659 -0.415789
O18   O     O_2   0.405434 0.138141 0.238874 -0.140761
O19   O     O_2   0.391676 0.093231 0.369275 -0.120314
O20   O     O_3   0.278611 0.069081 0.273234 -0.513767
O21   O     O_2   0.858178 0.403480 0.236814 -0.136831
O22   O     O_2   0.912533 0.390116 0.363219 -0.068473
O23   O     O_3   0.658236 0.569331 0.596582 -0.392657
O24   O     O_3   0.924410 0.274247 0.268849 -0.476289
O25   O     O_2   0.800837 0.948742 0.088283 -0.182316
O26   O     O_2   0.733757 0.999122 0.199937 -0.083034
O27   O     O_3   0.882834 0.980879 0.207893 -0.512572
O28   O     O_2   0.152538 0.577244 0.260863 -0.130146
O29   O     O_2   0.106684 0.603132 0.388837 -0.062060
O30   O     O_3   0.076253 0.703508 0.281505 -0.488358
O31   O     O_2   0.422751 0.847465 0.739144 -0.130142
O32   O     O_2   0.396867 0.893322 0.611171 -0.062063
O33   O     O_3   0.296486 0.923748 0.718500 -0.488364
O34   O     O_2   0.497365 0.698259 0.717566 -0.183989
O35   O     O_2   0.861861 0.594561 0.761120 -0.140591
O36   O     O_2   0.906763 0.608324 0.630717 -0.120426
O37   O     O_3   0.930920 0.721385 0.726766 -0.513668
O38   O     O_2   0.596518 0.141823 0.763185 -0.136820
O39   O     O_2   0.609882 0.087467 0.636781 -0.068476
O40   O     O_3   0.725752 0.075591 0.731151 -0.476278
O41   O     O_2   0.051257 0.199163 0.911717 -0.182318
O42   O     O_2   0.000876 0.266242 0.800063 -0.083036
O43   O     O_3   0.019121 0.117165 0.792107 -0.512569
O44   O     O_2   0.428689 0.575962 0.699768 -0.219183
O45   O     O_3   0.444184 0.667880 0.583340 -0.388139
O46   O     O_2   0.130917 0.428760 0.825973 -0.145632
O47   O     O_2   0.251493 0.409239 0.753811 -0.267118
O48   O     O_3   0.124586 0.357714 0.697342 -0.415788
S1    S     S_3+6 0.673170 0.570595 0.691197 0.067462
S2    S     S_3+6 0.869916 0.347852 0.301543 0.124077
S3    S     S_3+6 0.798498 0.947317 0.173860 0.095424
S4    S     S_3+6 0.139872 0.640102 0.318590 0.135436
S5    S     S_3+6 0.359895 0.860132 0.681416 0.135430
S6    S     S_3+6 0.871370 0.651036 0.696718 0.099466
S7    S     S_3+6 0.652147 0.130085 0.698457 0.124082
S8    S     S_3+6 0.052682 0.201502 0.826140 0.095423
S9    S     S_3+6 0.430863 0.659992 0.677854 0.091440
S10   S     S_3+6 0.175913 0.373412 0.776908 0.076810
S11   S     S_3+6 0.557864 0.321352 0.673898 0.096245
S12   S     S_3+6 0.678648 0.442135 0.326102 0.096246
S13   S     S_3+6 0.429407 0.326827 0.308804 0.067462
S14   S     S_3+6 0.340014 0.569139 0.322143 0.091422
S15   S     S_3+6 0.626588 0.824086 0.223093 0.076802
S16   S     S_3+6 0.348962 0.128629 0.303278 0.099406

loop_
_geom_bond_atom_site_label_1
_geom_bond_atom_site_label_2
_ccdc_geom_bond_type
C76   F24   S    
C73   F20   S    
O1    S1    D    
N9    Ni3   S    
C53   C71   D    
O6    S12   D    
C43   C72   S    
O17   S15   S    
C40   C71   S    
N10   Ni4   S    
C16   N16   A    
C24   C42   A    
C15   F29   S    
C1    N1    A    
C2    C37   A    
C8    C43   A    
N15   Ni4   S    
C13   F27   S    
C69   F16   S    
C10   N10   A    
C16   F30   S    
N6    Ni6   S    
C21   C36   A    
N27   Ni4   S    
N21   N32   A    
C3    N3    A    
C37   C79   S    
H25   O40   S    
C8    H8    S    
C12   C28   A    
H13   O4    S    
O48   S10   S    
O7    S12   S    
C23   C29   A    
O35   S6    D    
O21   S2    D    
C24   N24   A    
C18   C37   A    
C18   F32   S    
C16   C35   A    
O2    S11   D    
C22   F5    S    
C22   C41   A    
O12   S1    D    
C67   H30   S    
C67   N30   A    
N3    Ni7   S    
C49   C54   S    
C20   N20   A    
C62   F9    S    
O13   S14   D    
C25   F7    S    
C21   N21   A    
C6    H6    S    
C7    C42   A    
C44   C59   S    
N25   Ni7   S    
N20   Ni5   S    
C41   C74   S    
N17   N28   A    
N12   Ni2   S    
C18   N18   A    
O19   S16   D    
C3    C38   A    
C80   H32   S    
C6    C41   A    
C75   F22   S    
C4    C39   A    
N7    Ni5   S    
O31   S5    D    
C48   C65   D    
N8    Ni8   S    
C58   S5    S    
C70   F17   S    
O15   S15   D    
C66   F14   S    
H17   O17   S    
C65   F13   S    
C10   F12   S    
N26   Ni6   S    
C32   C56   A    
C31   C62   S    
O36   S6    D    
H26   O43   S    
H20   O27   S    
C1    H1    S    
C12   N12   A    
C48   S11   S    
H21   O30   S    
H19   O24   S    
C17   F31   S    
O16   S15   D    
C13   N13   A    
O28   S4    D    
C58   C75   D    
C48   C60   S    
C29   C69   S    
N32   Ni5   S    
O11   S14   D    
C28   C70   S    
C60   C77   D    
C50   C53   S    
O42   S8    D    
C49   C66   D    
C30   C34   A    
N5    N26   A    
C68   F15   S    
C34   H27   S    
C7    H7    S    
O47   S10   D    
N8    N25   A    
C80   N32   A    
O3    S11   D    
C36   C80   A    
H15   O10   S    
C55   S3    S    
C47   C64   D    
C20   C39   A    
N2    Ni6   S    
C11   F23   S    
H9    O23   S    
N24   Ni8   S    
C39   C76   S    
N15   N30   A    
C45   H28   S    
O8    S13   D    
O44   S9    D    
C79   F26   S    
C5    H5    S    
N4    N20   A    
C57   C74   D    
O25   S3    D    
N16   Ni3   S    
C15   N15   A    
O46   S10   D    
C36   C75   S    
N2    N18   A    
N14   N29   A    
C12   H12   S    
C21   F4    S    
N22   Ni5   S    
N4    Ni8   S    
C55   C73   D    
C59   S6    S    
O5    S12   D    
C7    N7    A    
C60   S7    S    
C19   N19   A    
O26   S3    D    
N9    N12   A    
N30   Ni1   S    
O20   S16   S    
C49   S12   S    
C17   N17   A    
C74   F21   S    
C51   C57   S    
C56   H29   S    
N28   Ni3   S    
N14   Ni1   S    
C25   C43   A    
C59   C76   D    
C14   N14   A    
N23   Ni3   S    
C51   S14   S    
C17   C31   A    
N16   N31   A    
C23   N23   A    
N10   N23   A    
C20   F3    S    
N7    N24   A    
N21   Ni6   S    
C50   S13   S    
C45   N28   A    
O33   S5    S    
C57   S4    S    
H18   O20   S    
C33   C67   A    
O29   S4    D    
N5    Ni7   S    
C25   N25   A    
H10   O45   S    
C71   F18   S    
H11   O48   S    
C42   C73   S    
O9    S13   D    
C19   F2    S    
C8    N8    A    
N19   Ni8   S    
C61   S8    S    
C4    H4    S    
O30   S4    S    
C14   C32   A    
C47   C61   S    
C47   S10   S    
C35   C63   S    
C52   S15   S    
O34   S9    D    
N31   Ni4   S    
C30   C68   S    
C38   C77   S    
C11   N11   A    
C2    N2    A    
H22   O33   S    
O18   S16   D    
N1    N13   A    
C56   N29   A    
C35   C78   A    
C6    N6    A    
C46   S9    S    
C23   H23   S    
O37   S6    S    
O22   S2    D    
C44   C62   D    
C77   F25   S    
C53   S16   S    
N18   Ni7   S    
O39   S7    D    
C27   C66   S    
C3    H3    S    
C44   S1    S    
C11   C30   A    
C52   C55   S    
C2    H2    S    
C10   C29   A    
C26   C40   A    
O45   S9    S    
C78   N31   A    
C46   C63   D    
C24   F6    S    
N29   Ni2   S    
C61   C79   D    
C33   C64   S    
O43   S8    S    
C5    N5    A    
C63   F10   S    
C14   F28   S    
O10   S13   S    
O27   S3    S    
N13   Ni2   S    
O23   S1    S    
H14   O7    S    
H24   O37   S    
O40   S7    S    
H16   O14   S    
C52   C70   D    
C9    N9    A    
N6    N22   A    
C22   N22   A    
N11   N27   A    
O14   S14   S    
C19   C38   A    
C54   C72   D    
C26   N26   A    
C26   F8    S    
C31   C45   A    
C5    C40   A    
N1    Ni1   S    
C1    C27   A    
O41   S8    D    
C54   S2    S    
O38   S7    D    
C13   C27   A    
O4    S11   S    
N3    N19   A    
C51   C69   D    
C64   F11   S    
N17   Ni2   S    
C78   H31   S    
O24   S2    S    
C50   C68   D    
O32   S5    D    
C15   C33   A    
C46   C58   S    
C34   N27   A    
N11   Ni1   S    
C9    C28   A    
C9    F1    S    
C32   C65   S    
C72   F19   S    
C4    N4    A    
