data_mof_unit_52425.cif
_audit_creation_date              2012-12-10T17:11:55-0500
_audit_creation_method            fapswitch 2.2
_symmetry_space_group_name_H-M    P1
_symmetry_Int_Tables_number       1
_space_group_crystal_system       triclinic
_cell_length_a                    19.05687
_cell_length_b                    10.668894
_cell_length_c                    10.096997
_cell_angle_alpha                 90.007578
_cell_angle_beta                  89.624018
_cell_angle_gamma                 90.459929
_cell_volume                      2052.76793014

loop_
_atom_site_label
_atom_site_type_symbol
_atom_type_description
_atom_site_fract_x
_atom_site_fract_y
_atom_site_fract_z
_atom_type_partial_charge
C1    C     C_R   0.498464 0.262838 0.499740 0.941951
C2    C     C_R   0.852683 0.431074 0.524477 0.041887
C3    C     C_2   0.458834 0.937553 0.397942 0.212254
C4    C     C_R   0.365706 0.502231 0.500393 0.856121
C5    C     C_2   0.475430 0.867349 0.503901 -0.414945
C6    C     C_2   0.447490 0.070342 0.421425 0.210098
C7    C     C_2   0.495171 0.130198 0.496360 -0.374391
C8    C     C_2   0.530237 0.584237 0.929860 0.290705
C9    C     C_2   0.512850 0.596842 0.073989 -0.163600
C10   C     C_R   0.495047 0.737474 0.500031 0.937107
C11   C     C_R   0.634213 0.495040 0.499564 0.876444
C12   C     C_R   0.289577 0.502826 0.502637 -0.094818
C13   C     C_R   0.256739 0.414819 0.584834 -0.242720
C14   C     C_R   0.184652 0.407074 0.590691 -0.208731
C15   C     C_R   0.144020 0.488890 0.516543 0.052476
C16   C     C_R   0.175580 0.584945 0.438860 0.194320
C17   C     C_R   0.249841 0.589685 0.428209 0.145921
C18   C     C_3   0.385939 0.135197 0.357527 -0.858155
C19   C     C_3   0.583426 0.677093 0.876078 -0.403788
C20   C     C_3   0.654960 0.659689 0.940626 -0.905215
C21   C     C_3   0.443079 0.422230 0.899119 -0.647189
C22   C     C_3   0.131269 0.685555 0.374600 -0.898157
C23   C     C_R   0.928944 0.431549 0.523653 0.284583
C24   C     C_3   0.286336 0.688196 0.341976 -0.400324
C25   C     C_3   0.292044 0.644869 0.197962 -0.815888
C26   C     C_3   0.695266 0.297714 0.332151 -0.873795
C27   C     C_3   0.846959 0.242158 0.370263 -0.901463
C28   C     C_3   0.461890 0.893458 0.256110 -0.858442
C29   C     C_R   0.068759 0.467897 0.519231 0.284098
C30   C     C_R   0.820068 0.522766 0.601396 -0.205579
C31   C     C_R   0.749042 0.542869 0.590445 -0.252177
C32   C     C_R   0.709418 0.473341 0.500612 -0.075235
C33   C     C_R   0.740439 0.376219 0.424470 0.170355
C34   C     C_R   0.813057 0.352572 0.439528 0.216376
H1    H     H_    0.287261 0.349076 0.642128 0.154329
H2    H     H_    0.357674 0.192841 0.432027 0.224116
H3    H     H_    0.404120 0.195637 0.274510 0.252924
H4    H     H_    0.651861 0.678060 0.048780 0.266555
H5    H     H_    0.673939 0.562740 0.923741 0.272512
H6    H     H_    0.693429 0.726466 0.896238 0.251202
H7    H     H_    0.591142 0.666921 0.768753 0.263813
H8    H     H_    0.564720 0.773936 0.894730 0.183693
H9    H     H_    0.411630 0.389524 0.814401 0.247804
H10   H     H_    0.463243 0.334953 0.943999 0.172754
H11   H     H_    0.406558 0.473504 0.965708 0.191094
H12   H     H_    0.471347 0.907669 0.602719 0.137413
H13   H     H_    0.147490 0.779354 0.411220 0.228360
H14   H     H_    0.136898 0.681923 0.265380 0.251627
H15   H     H_    0.074705 0.677986 0.398856 0.250091
H16   H     H_    0.318921 0.718273 0.137969 0.235039
H17   H     H_    0.322607 0.557100 0.190291 0.275157
H18   H     H_    0.239332 0.627846 0.155452 0.252949
H19   H     H_    0.258824 0.779171 0.345641 0.206249
H20   H     H_    0.339442 0.710576 0.379794 0.202311
H21   H     H_    0.650734 0.255539 0.388391 0.229680
H22   H     H_    0.674845 0.357533 0.251456 0.257415
H23   H     H_    0.537477 0.081273 0.545612 0.114651
H24   H     H_    0.723139 0.219872 0.283059 0.238789
H25   H     H_    0.901774 0.225872 0.401199 0.247530
H26   H     H_    0.818076 0.154557 0.395742 0.238097
H27   H     H_    0.846528 0.256830 0.261412 0.251978
H28   H     H_    0.446569 0.968573 0.186201 0.230078
H29   H     H_    0.516788 0.868500 0.231358 0.237089
H30   H     H_    0.425749 0.813052 0.240538 0.247658
H31   H     H_    0.516592 0.688039 0.119208 0.163718
H32   H     H_    0.514502 0.415820 0.109582 0.186418
H33   H     H_    0.160342 0.334708 0.651264 0.161436
H34   H     H_    0.850244 0.582682 0.666851 0.166228
H35   H     H_    0.724998 0.615218 0.650509 0.162921
H36   H     H_    0.348097 0.065336 0.317514 0.231526
N1    N     N_R   0.033150 0.453780 0.404541 -0.163508
N2    N     N_R   0.964117 0.437087 0.406726 -0.162873
N3    N     N_R   0.964803 0.443666 0.638492 -0.173958
N4    N     N_R   0.033897 0.460478 0.636342 -0.171866
N5    N     N_2   0.500750 0.501330 0.852150 -0.070550
N6    N     N_2   0.500770 0.501360 0.147810 -0.211903
O1    O     O_R   0.499990 0.319060 0.613040 -0.609627
O2    O     O_R   0.500010 0.319100 0.386900 -0.607473
O3    O     O_R   0.398130 0.499970 0.613110 -0.621136
O4    O     O_R   0.398150 0.500010 0.386970 -0.603579
O5    O     O_R   0.499990 0.680900 0.613100 -0.639180
O6    O     O_R   0.500010 0.680940 0.386960 -0.599131
O7    O     O_R   0.601850 0.499990 0.613030 -0.620914
O8    O     O_R   0.601870 0.500030 0.386890 -0.604320
Zn1   Zn    Zn3+2 0.499990 0.499970 0.650990 0.931674
Zn2   Zn    Zn3+2 0.500010 0.500030 0.349010 0.923054

loop_
_geom_bond_atom_site_label_1
_geom_bond_atom_site_label_2
_ccdc_geom_bond_type
C18   H36   S    
C22   H14   S    
C1    O1    A    
N3    N4    A    
C19   C20   S    
C3    C6    S    
C26   H21   S    
C3    C28   S    
C18   H3    S    
O8    Zn2   S    
C13   H1    S    
C27   H26   S    
C30   C31   A    
C20   H6    S    
C24   H20   S    
C15   C16   A    
C25   H16   S    
O4    Zn2   S    
C27   H27   S    
C21   H9    S    
N5    Zn1   S    
C8    C9    S    
C12   C17   A    
C14   H33   S    
C9    N6    D    
C4    C12   S    
C19   H8    S    
O2    Zn2   S    
C22   H13   S    
O1    Zn1   S    
C13   C14   A    
C1    O2    A    
C23   N3    A    
C15   C29   S    
C21   H11   S    
C27   C34   S    
C6    C18   S    
C17   C24   S    
C8    C19   S    
C24   C25   S    
C4    O3    A    
C20   H5    S    
C16   C17   A    
C29   N4    A    
C11   O7    A    
C24   H19   S    
O6    Zn2   S    
C10   O6    A    
C8    N5    D    
C25   H17   S    
C21   H10   S    
C20   H4    S    
C26   C33   S    
C31   C32   A    
H32   N6    S    
C33   C34   A    
C26   H24   S    
C22   H15   S    
C28   H30   S    
O7    Zn1   S    
C11   C32   S    
N6    Zn2   S    
O3    Zn1   S    
C16   C22   S    
C1    C7    S    
C23   N2    A    
C3    C5    D    
C26   H22   S    
C4    O4    A    
C6    C7    D    
C30   H34   S    
C11   O8    A    
C5    H12   S    
C21   N5    S    
C10   O5    A    
C2    C30   A    
C32   C33   A    
C25   H18   S    
C5    C10   S    
C27   H25   S    
C2    C34   A    
C9    H31   S    
C28   H29   S    
C31   H35   S    
N1    N2    A    
C12   C13   A    
C2    C23   S    
C14   C15   A    
C18   H2    S    
C7    H23   S    
O5    Zn1   S    
C19   H7    S    
C29   N1    A    
C28   H28   S    
