data_mof_unit_48468.cif
_audit_creation_date              2012-12-11T17:39:37-0500
_audit_creation_method            fapswitch 2.2
_symmetry_space_group_name_H-M    P1
_symmetry_Int_Tables_number       1
_space_group_crystal_system       triclinic
_cell_length_a                    15.084689
_cell_length_b                    15.110209
_cell_length_c                    14.947129
_cell_angle_alpha                 108.953409
_cell_angle_beta                  109.529617
_cell_angle_gamma                 110.432386
_cell_volume                      2605.96704061

loop_
_atom_site_label
_atom_site_type_symbol
_atom_type_description
_atom_site_fract_x
_atom_site_fract_y
_atom_site_fract_z
_atom_type_partial_charge
C1    C     C_R   0.908703 0.904933 0.709337 0.451687
C2    C     C_R   0.907772 0.684849 0.444989 -0.102948
C3    C     C_R   0.697879 0.792106 0.200911 0.456620
C4    C     C_R   0.092540 0.298236 0.495848 -0.151202
C5    C     C_R   0.301218 0.002972 0.594625 -0.162978
C6    C     C_R   0.636454 0.695359 0.195233 0.060000
C7    C     C_R   0.362472 0.060377 0.561783 0.063232
C8    C     C_R   0.000661 0.676858 0.466007 0.025485
C9    C     C_R   0.005223 0.946495 0.180339 0.039699
C10   C     C_R   0.473304 0.674662 0.352457 -0.212176
C11   C     C_R   0.495888 0.782063 0.391328 0.503715
C12   C     C_R   0.002650 0.301023 0.437682 0.058244
C13   C     C_R   0.526399 0.846546 0.501164 -0.085512
C14   C     C_R   0.531077 0.800452 0.570124 0.014495
C15   C     C_R   0.506170 0.691692 0.528594 -0.021465
C16   C     C_R   0.246319 0.219968 0.812688 -0.153737
C17   C     C_R   0.478481 0.629730 0.420758 -0.169277
C18   C     C_R   0.463626 0.971485 0.554782 -0.204430
C19   C     C_R   0.463750 0.068251 0.575113 0.050916
C20   C     C_R   0.550838 0.159471 0.591229 0.032452
C21   C     C_R   0.636681 0.148940 0.584241 -0.248685
C22   C     C_R   0.632922 0.049573 0.558650 0.115238
C23   C     C_R   0.271118 0.321408 0.823575 0.138148
C24   C     C_R   0.544728 0.959062 0.542201 0.102221
C25   C     C_R   0.574776 0.310312 0.547370 -0.164362
C26   C     C_R   0.563778 0.400349 0.555561 -0.091791
C27   C     C_R   0.527158 0.442137 0.623927 -0.084127
C28   C     C_R   0.744372 0.057970 0.467350 0.000773
C29   C     C_R   0.503935 0.395543 0.686033 -0.109087
C30   C     C_R   0.519351 0.308708 0.681838 -0.141375
C31   C     C_R   0.550989 0.262405 0.609258 0.112705
C32   C     C_R   0.821647 0.128256 0.082345 0.538899
C33   C     C_R   0.894832 0.225285 0.183155 -0.251982
C34   C     C_R   0.716444 0.037997 0.540853 -0.000954
C35   C     C_R   0.856351 0.286882 0.233332 0.059012
C36   C     C_R   0.743707 0.249934 0.180737 -0.167901
C37   C     C_R   0.670796 0.152528 0.080481 -0.161091
C38   C     C_R   0.709660 0.091790 0.031334 -0.134886
C39   C     C_R   0.932903 0.484592 0.353161 -0.251907
C40   C     C_R   0.246995 0.312330 0.721792 -0.133031
C41   C     C_R   0.006130 0.581479 0.453919 0.073708
C42   C     C_R   0.083116 0.586194 0.543812 0.023631
C43   C     C_R   0.083839 0.492852 0.530746 -0.250990
C44   C     C_R   0.008733 0.395199 0.432115 0.059459
C45   C     C_R   0.699712 0.697506 0.288204 -0.224951
C46   C     C_R   0.933551 0.389520 0.340670 0.060589
C47   C     C_R   0.271717 0.740861 0.701935 0.011709
C48   C     C_R   0.338055 0.831591 0.807917 -0.102114
C49   C     C_R   0.291488 0.864103 0.869118 -0.116564
C50   C     C_R   0.178168 0.806276 0.824843 -0.116100
C51   C     C_R   0.110756 0.716342 0.718786 -0.127036
C52   C     C_R   0.753085 0.973178 0.565748 -0.115374
C53   C     C_R   0.156449 0.682882 0.656149 0.066666
C54   C     C_2   0.357183 0.518313 0.938078 -0.169152
C55   C     C_2   0.319011 0.418962 0.926900 -0.197737
C56   C     C_R   0.302662 0.092038 0.501641 -0.122932
C57   C     C_2   0.449037 0.613989 0.043422 -0.006992
C58   C     C_2   0.526656 0.604525 0.109738 -0.230754
C59   C     C_R   0.382822 0.245423 0.126522 0.128740
C60   C     C_R   0.299759 0.137167 0.078322 -0.233944
C61   C     C_R   0.189314 0.108538 0.034176 0.089973
C62   C     C_R   0.162431 0.189209 0.038093 -0.085037
C63   C     C_R   0.245065 0.297453 0.087678 -0.165607
C64   C     C_R   0.910095 0.209880 0.407787 -0.114190
C65   C     C_R   0.354939 0.325863 0.132713 -0.175930
C66   C     C_R   0.109292 0.985334 0.090657 -0.202289
C67   C     C_R   0.091647 0.779665 0.529248 -0.107674
C68   C     C_R   0.014569 0.912487 0.081840 0.098322
C69   C     C_R   0.925144 0.828365 0.977440 0.038457
C70   C     C_R   0.927002 0.831510 0.885586 -0.173012
C71   C     C_R   0.010767 0.922645 0.898270 0.104130
C72   C     C_R   0.104510 0.999687 0.003389 0.027303
C73   C     C_R   0.841748 0.682874 0.018723 -0.165402
C74   C     C_R   0.751059 0.605988 0.011937 -0.110338
C75   C     C_R   0.646763 0.587146 0.950719 -0.088217
C76   C     C_R   0.090363 0.996269 0.798329 -0.226444
C77   C     C_R   0.632742 0.644802 0.895830 -0.075372
C78   C     C_R   0.912217 0.934171 0.187915 -0.030174
C79   C     C_R   0.722813 0.720248 0.900623 -0.091216
C80   C     C_R   0.828321 0.740791 0.963275 0.079183
C81   C     C_R   0.001406 0.940392 0.805604 -0.042671
C82   C     C_R   0.094198 0.022594 0.283426 -0.128829
Cl1   Cl    Cl    0.776272 0.794230 0.649114 -0.780191
Cl2   Cl    Cl    0.649315 0.851462 0.127689 -0.714222
Cl3   Cl    Cl    0.480508 0.831451 0.298786 -0.671064
Cl4   Cl    Cl    0.870213 0.052853 0.019054 -0.739905
H1    H     H_    0.331132 0.146980 0.472773 0.111500
H2    H     H_    0.509211 0.655146 0.580156 0.105884
H3    H     H_    0.394053 0.900394 0.538029 0.131891
H4    H     H_    0.705292 0.216967 0.596038 0.127148
H5    H     H_    0.598504 0.276053 0.490198 0.120777
H6    H     H_    0.581150 0.436085 0.506938 0.124099
H7    H     H_    0.516086 0.510111 0.628283 0.097908
H8    H     H_    0.472485 0.425662 0.736477 0.104383
H9    H     H_    0.501658 0.274450 0.731401 0.114331
H10   H     H_    0.652797 0.016672 0.953511 0.137847
H11   H     H_    0.255117 0.199082 0.876444 0.125915
H12   H     H_    0.176351 0.802328 0.560047 0.104128
H13   H     H_    0.981487 0.252979 0.221931 0.153591
H14   H     H_    0.712267 0.295753 0.218170 0.121327
H15   H     H_    0.584036 0.123957 0.040752 0.124545
H16   H     H_    0.875815 0.483552 0.284850 0.128755
H17   H     H_    0.138310 0.495148 0.601925 0.132479
H18   H     H_    0.426067 0.877041 0.843017 0.123344
H19   H     H_    0.343415 0.934046 0.951101 0.118236
H20   H     H_    0.142588 0.831077 0.872917 0.123349
H21   H     H_    0.724107 0.102410 0.428098 0.105003
H22   H     H_    0.022918 0.672585 0.685376 0.127725
H23   H     H_    0.828863 0.883401 0.121846 0.176216
H24   H     H_    0.333963 0.529287 0.867278 0.132983
H25   H     H_    0.337698 0.410203 0.998705 0.142591
H26   H     H_    0.459522 0.692563 0.057341 0.219366
H27   H     H_    0.514940 0.525085 0.095274 0.123081
H28   H     H_    0.418083 0.410395 0.172064 0.101097
H29   H     H_    0.321301 0.075799 0.077924 0.125388
H30   H     H_    0.077961 0.168971 0.006838 0.166720
H31   H     H_    0.224062 0.359773 0.092528 0.135989
H32   H     H_    0.255803 0.375740 0.701025 0.090242
H33   H     H_    0.181726 0.047359 0.169242 0.130094
H34   H     H_    0.178998 0.050937 0.309117 0.102285
H35   H     H_    0.860999 0.764470 0.805876 0.185585
H36   H     H_    0.922494 0.698108 0.067961 0.121903
H37   H     H_    0.761723 0.561640 0.054832 0.112028
H38   H     H_    0.576637 0.527365 0.945300 0.112360
H39   H     H_    0.551920 0.630734 0.849238 0.106199
H40   H     H_    0.710870 0.765227 0.858700 0.156840
H41   H     H_    0.744881 0.944909 0.621364 0.162669
H42   H     H_    0.825773 0.182885 0.354406 0.124625
H43   H     H_    0.173477 0.016706 0.846496 0.135618
H44   H     H_    0.671520 0.641304 0.316023 0.139073
H45   H     H_    0.823509 0.619344 0.401223 0.104133
H46   H     H_    0.642941 0.927062 0.723493 0.151276
H47   H     H_    0.557997 0.817906 0.720490 0.121180
H48   H     H_    0.306990 0.632678 0.623614 0.101968
H49   H     H_    0.287722 0.710295 0.567564 0.108344
H50   H     H_    0.547019 0.356646 0.207973 0.084740
H51   H     H_    0.504578 0.235305 0.106000 0.088182
H52   H     H_    0.328523 0.977386 0.653055 0.103399
H53   H     H_    0.460208 0.546309 0.389780 0.132172
H54   H     H_    0.449915 0.625100 0.268417 0.157232
H55   H     H_    0.176930 0.352160 0.522195 0.095729
N1    N     N_R   0.941940 0.944580 0.650780 -0.080104
N2    N     N_R   0.204460 0.150250 0.707090 -0.041791
N3    N     N_R   0.794270 0.003240 0.446420 -0.040482
N4    N     N_R   0.204920 0.207570 0.650770 -0.044809
N5    N     N_R   0.793810 0.945920 0.502740 -0.032707
N6    N     N_R   0.943620 0.152590 0.446420 -0.047469
N7    N     N_R   0.055110 0.000900 0.707100 -0.060235
N8    N     N_R   0.795080 0.792430 0.349230 -0.061140
N9    N     N_3   0.561131 0.864598 0.681833 -0.215274
N10   N     N_3   0.322688 0.711193 0.641412 -0.223869
N11   N     N_3   0.494938 0.272628 0.171528 -0.217025
N12   N     N_R   0.206190 0.054080 0.497260 -0.045314
N13   N     N_R   0.056380 0.847410 0.553580 -0.044054
N14   N     N_R   0.944890 0.999100 0.292900 -0.043613
N15   N     N_R   0.058060 0.055420 0.349220 -0.046870
N16   N     N_R   0.943200 0.791100 0.497260 -0.033828
N17   N     N_R   0.795540 0.849750 0.292910 -0.095557
N18   N     N_R   0.205730 0.996760 0.553580 -0.038629
N19   N     N_R   0.056800 0.208900 0.502740 -0.042842
Ni1   Ni    Ni4+2 0.869690 0.869690 0.500000 0.267127
Ni2   Ni    Ni4+2 0.130310 0.130310 0.500000 0.206658
Ni3   Ni    Ni4+2 0.129250 0.998840 0.629170 0.205490
Ni4   Ni    Ni4+2 0.870750 0.001160 0.370830 0.282779

loop_
_geom_bond_atom_site_label_1
_geom_bond_atom_site_label_2
_ccdc_geom_bond_type
C25   C31   A    
C66   C68   A    
C63   C65   A    
C6    C45   A    
C27   C29   A    
H46   N9    S    
C65   H28   S    
C6    C58   S    
C40   H32   S    
C35   C36   A    
C82   H34   S    
C3    C6    A    
N1    Ni1   S    
C5    H52   S    
C39   C41   A    
C4    N19   A    
C59   N11   S    
C26   C27   A    
C37   C38   A    
C40   N4    A    
C67   N13   A    
C18   C24   A    
C22   C24   A    
C36   C37   A    
N6    Ni4   S    
C42   C53   S    
C30   C31   A    
C12   C64   A    
H49   N10   S    
C16   H11   S    
C57   H26   S    
N4    Ni2   S    
C10   C17   A    
C1    C81   A    
C23   C40   A    
C48   H18   S    
C54   H24   S    
C30   H9    S    
C15   C17   A    
C18   C19   A    
C41   C42   A    
C1    N1    A    
C67   H12   S    
C66   C72   A    
C19   C20   A    
C68   C69   A    
C64   H42   S    
C3    N17   A    
H51   N11   S    
C70   C71   A    
C28   N3    A    
C32   C38   A    
C4    C12   A    
C29   C30   A    
N8    N17   A    
N17   Ni4   S    
C9    C82   A    
C47   C53   A    
C82   N15   A    
C74   H37   S    
N15   Ni2   S    
C59   C60   A    
C13   C14   A    
N3    Ni4   S    
N7    Ni3   S    
C61   C62   A    
C10   H54   S    
C7    C56   A    
N6    N19   A    
N2    Ni3   S    
H50   N11   S    
C52   H41   S    
C44   C46   A    
C50   C51   A    
C21   H4    S    
C77   C79   A    
C73   C74   A    
C22   C34   S    
N5    Ni1   S    
C25   H5    S    
C74   C75   A    
C75   H38   S    
N1    N7    A    
N13   Ni3   S    
C16   N2    A    
C8    C41   S    
N13   N16   A    
C36   H14   S    
C4    H55   S    
C5    C7    A    
C51   H22   S    
C56   H1    S    
C49   H19   S    
C5    N18   A    
C25   C26   A    
C13   C24   S    
C60   C61   A    
C33   H13   S    
N19   Ni2   S    
N12   N18   A    
C43   C44   A    
C62   H30   S    
C62   C63   A    
C58   H27   S    
C76   H43   S    
C47   C48   A    
C32   Cl4   S    
C14   N9    S    
C2    H45   S    
C17   H53   S    
C75   C77   A    
C39   C46   A    
C61   C72   S    
N3    N5    A    
C48   C49   A    
C79   H40   S    
C47   N10   S    
C73   H36   S    
C16   C23   A    
C7    C19   S    
C66   H33   S    
C64   N6    A    
N18   Ni3   S    
C27   H7    S    
N8    Ni1   S    
C42   C43   A    
N16   Ni1   S    
N14   N15   A    
C77   H39   S    
C39   H16   S    
N2    N4    A    
C54   C55   D    
C52   N5    A    
C55   H25   S    
C18   H3    S    
C2    C8    A    
H47   N9    S    
C56   N12   A    
C69   C80   S    
C76   C81   A    
C23   C55   S    
N14   Ni4   S    
C1    Cl1   S    
C34   C52   A    
N12   Ni2   S    
C32   C33   A    
C9    C68   S    
C71   C72   A    
C12   C44   S    
C59   C65   A    
C37   H15   S    
C11   C13   A    
C70   H35   S    
C57   C58   D    
C29   H8    S    
C11   Cl3   S    
C2    N16   A    
C63   H31   S    
H48   N10   S    
C33   C35   A    
C73   C80   A    
C78   H23   S    
C45   N8    A    
C9    C78   A    
C69   C70   A    
C78   N14   A    
C43   H17   S    
C10   C11   A    
C28   C34   A    
C79   C80   A    
C45   H44   S    
C20   C21   A    
C76   N7    A    
C8    C67   A    
C49   C50   A    
C38   H10   S    
C3    Cl2   S    
C50   H20   S    
C14   C15   A    
C60   H29   S    
C28   H21   S    
C51   C53   A    
C21   C22   A    
C35   C46   S    
C26   H6    S    
C54   C57   S    
C15   H2    S    
C71   C81   S    
C20   C31   S    
