data_mof_unit_33632.cif
_audit_creation_date              2012-10-26T17:11:07-0400
_audit_creation_method            fapswitch 2.2
_symmetry_space_group_name_H-M    P1
_symmetry_Int_Tables_number       1
_space_group_crystal_system       triclinic
_cell_length_a                    28.03462
_cell_length_b                    18.732502
_cell_length_c                    16.853243
_cell_angle_alpha                 90.074916
_cell_angle_beta                  62.563216
_cell_angle_gamma                 90.130912
_cell_volume                      7855.08375944

loop_
_atom_site_label
_atom_site_type_symbol
_atom_type_description
_atom_site_fract_x
_atom_site_fract_y
_atom_site_fract_z
_atom_type_partial_charge
Br1   Br    Br    0.313912 0.848123 0.816163 -0.513525
Br2   Br    Br    0.686554 0.150490 0.182900 -0.507938
Br3   Br    Br    0.797980 0.615995 0.070783 -0.499598
Br4   Br    Br    0.312532 0.149810 0.818245 -0.487347
Br5   Br    Br    0.813039 0.349077 0.817619 -0.499657
Br6   Br    Br    0.186333 0.651702 0.183326 -0.488308
Br7   Br    Br    0.187415 0.351106 0.181443 -0.531411
Br8   Br    Br    0.701841 0.884250 0.929407 -0.497878
C1    C     C_R   0.294938 0.728194 0.329724 0.565841
C2    C     C_R   0.459615 0.128786 0.470743 -0.119074
C3    C     C_R   0.926350 0.096687 0.066711 0.553742
C4    C     C_R   0.426386 0.403237 0.066645 0.555812
C5    C     C_R   0.573513 0.596900 0.933424 0.555465
C6    C     C_R   0.573622 0.403274 0.933311 0.553472
C7    C     C_R   0.426348 0.596679 0.066715 0.557950
C8    C     C_R   0.057674 0.500441 0.476632 0.047715
C9    C     C_R   0.964615 0.500239 0.451030 0.043336
C10   C     C_R   0.544079 0.002049 0.519336 0.044805
C11   C     C_R   0.448296 0.002693 0.503880 0.047131
C12   C     C_R   0.028085 0.563825 0.488233 0.026763
C13   C     C_R   0.436673 0.877235 0.540663 -0.118921
C14   C     C_R   0.993578 0.436178 0.440065 0.022975
C15   C     C_R   0.985288 0.564887 0.465795 0.022064
C16   C     C_R   0.042621 0.437577 0.446543 0.023226
C17   C     C_R   0.518609 0.067219 0.520911 0.025130
C18   C     C_R   0.468995 0.938265 0.517762 0.017575
C19   C     C_R   0.475093 0.067383 0.500161 0.026611
C20   C     C_R   0.520761 0.937605 0.511371 0.017996
C21   C     C_R   0.133674 0.437640 0.480011 0.012597
C22   C     C_R   0.889333 0.565759 0.448126 0.011337
C23   C     C_R   0.890857 0.435077 0.441573 0.015552
C24   C     C_R   0.536439 0.129130 0.545715 -0.119674
C25   C     C_R   0.118126 0.563214 0.523578 0.019902
C26   C     C_R   0.622577 0.936834 0.508929 0.013970
C27   C     C_R   0.383452 0.065442 0.469574 0.017987
C28   C     C_R   0.371375 0.938045 0.506864 0.014823
C29   C     C_R   0.613614 0.065276 0.541533 0.016320
C30   C     C_R   0.175009 0.435989 0.507145 -0.019710
C31   C     C_R   0.835970 0.565500 0.457040 -0.020320
C32   C     C_R   0.836542 0.434732 0.454679 -0.020690
C33   C     C_R   0.167282 0.564387 0.529996 -0.022512
C34   C     C_R   0.670565 0.935868 0.519003 -0.021201
C35   C     C_R   0.077712 0.378922 0.422926 -0.102214
C36   C     C_R   0.333274 0.065294 0.466817 -0.020821
C37   C     C_R   0.326923 0.936319 0.487483 -0.019255
C38   C     C_R   0.665669 0.065278 0.537328 -0.019771
C39   C     C_R   0.192498 0.499864 0.527846 -0.158806
C40   C     C_R   0.810811 0.500023 0.460832 -0.154610
C41   C     C_R   0.691594 0.000304 0.531038 -0.156661
C42   C     C_R   0.307824 0.000307 0.470454 -0.159333
C43   C     C_R   0.103020 0.500324 0.493874 0.045905
C44   C     C_R   0.914708 0.500263 0.447200 0.041153
C45   C     C_R   0.593336 0.001268 0.524163 0.041711
C46   C     C_R   0.964255 0.628915 0.452740 -0.130945
C47   C     C_R   0.401022 0.002050 0.493052 0.043942
C48   C     C_R   0.602792 0.876609 0.482162 -0.105393
C49   C     C_R   0.416758 0.126539 0.450582 -0.098461
C50   C     C_R   0.387133 0.878766 0.541183 -0.080826
C51   C     C_R   0.580984 0.126944 0.561437 -0.099308
C52   C     C_R   0.122856 0.379827 0.436966 -0.078790
C53   C     C_R   0.919415 0.628786 0.438282 -0.109072
C54   C     C_R   0.922960 0.373172 0.421493 -0.103418
C55   C     C_R   0.083429 0.622367 0.545800 -0.099191
C56   C     C_R   0.972532 0.373395 0.422077 -0.121122
C57   C     C_R   0.040357 0.623420 0.526326 -0.121961
C58   C     C_R   0.222142 0.769646 0.951838 0.000122
C59   C     C_R   0.777819 0.230218 0.048157 0.000553
C60   C     C_R   0.779828 0.766164 0.046040 -0.002994
C61   C     C_R   0.705043 0.271773 0.670291 0.557477
C62   C     C_R   0.221969 0.231006 0.951884 -0.001295
C63   C     C_R   0.721828 0.269172 0.952170 0.000282
C64   C     C_R   0.278005 0.730517 0.047968 -0.001299
C65   C     C_R   0.277818 0.269482 0.048232 0.001056
C66   C     C_R   0.720012 0.734084 0.954120 -0.002460
C67   C     C_R   0.276345 0.789937 0.920729 0.171864
C68   C     C_R   0.723762 0.209356 0.078940 0.173108
C69   C     C_R   0.769671 0.694577 0.032722 0.169644
C70   C     C_R   0.275727 0.209353 0.921684 0.171343
C71   C     C_R   0.775870 0.290065 0.921431 0.173214
C72   C     C_R   0.705015 0.728280 0.670369 0.564051
C73   C     C_R   0.223824 0.710156 0.079008 0.171269
C74   C     C_R   0.224087 0.291215 0.078355 0.171934
C75   C     C_R   0.730161 0.805672 0.967451 0.169768
C76   C     C_R   0.303797 0.769999 0.968608 -0.111979
C77   C     C_R   0.696231 0.229218 0.031158 -0.105495
C78   C     C_R   0.739858 0.679151 0.987308 -0.110141
C79   C     C_R   0.303207 0.228976 0.969681 -0.113865
C80   C     C_R   0.803405 0.270183 0.969186 -0.105104
C81   C     C_R   0.196361 0.730139 0.031173 -0.113247
C82   C     C_R   0.196585 0.271532 0.030418 -0.112852
C83   C     C_R   0.294938 0.271806 0.329696 0.547336
C84   C     C_R   0.759977 0.821098 0.012863 -0.110968
C85   C     C_R   0.145623 0.831167 0.943262 -0.101815
C86   C     C_R   0.854396 0.168847 0.056699 -0.104848
C87   C     C_R   0.855586 0.829015 0.055752 -0.105674
C88   C     C_R   0.145408 0.169474 0.943426 -0.103055
C89   C     C_R   0.645357 0.330738 0.943511 -0.105341
C90   C     C_R   0.354476 0.668962 0.056640 -0.101824
C91   C     C_R   0.354447 0.330805 0.056683 -0.101785
C92   C     C_R   0.644309 0.671151 0.944336 -0.105462
C93   C     C_R   0.118354 0.852549 0.894947 -0.009100
C94   C     C_R   0.794934 0.228185 0.329726 0.556255
C95   C     C_R   0.881675 0.147498 0.105014 -0.011300
C96   C     C_R   0.882166 0.851666 0.104665 -0.010695
C97   C     C_R   0.118203 0.147790 0.895086 -0.009613
C98   C     C_R   0.618218 0.352339 0.895066 -0.011264
C99   C     C_R   0.381686 0.647500 0.105016 -0.008710
C100  C     C_R   0.381728 0.352321 0.104960 -0.009894
C101  C     C_R   0.617792 0.648395 0.895367 -0.010321
C102  C     C_R   0.136772 0.829870 0.806899 -0.133290
C103  C     C_R   0.863268 0.170212 0.193049 -0.136568
C104  C     C_R   0.863540 0.829369 0.192869 -0.134055
C105  C     C_R   0.205060 0.771801 0.670274 0.550146
C106  C     C_R   0.136640 0.170321 0.807002 -0.132597
C107  C     C_R   0.636691 0.329741 0.806969 -0.136035
C108  C     C_R   0.363237 0.670136 0.193087 -0.132093
C109  C     C_R   0.363315 0.329729 0.193012 -0.133974
C110  C     C_R   0.636448 0.670642 0.807138 -0.132466
C111  C     C_R   0.182770 0.787899 0.765740 -0.009625
C112  C     C_R   0.817238 0.212123 0.234232 -0.009815
C113  C     C_R   0.817567 0.787155 0.233912 -0.010676
C114  C     C_R   0.182702 0.212346 0.765790 -0.009841
C115  C     C_R   0.682660 0.287706 0.765843 -0.009810
C116  C     C_R   0.205035 0.228246 0.670311 0.567334
C117  C     C_R   0.317258 0.712145 0.234221 -0.009766
C118  C     C_R   0.317181 0.287848 0.234276 -0.009868
C119  C     C_R   0.682388 0.712921 0.766126 -0.010929
C120  C     C_R   0.209767 0.766418 0.814276 -0.073786
C121  C     C_R   0.790212 0.233539 0.185704 -0.066825
C122  C     C_R   0.791005 0.764696 0.184862 -0.070094
C123  C     C_R   0.209722 0.234054 0.814310 -0.071203
C124  C     C_R   0.709539 0.266031 0.814508 -0.066733
C125  C     C_R   0.290317 0.733709 0.185616 -0.070903
C126  C     C_R   0.290028 0.266397 0.185863 -0.075373
C127  C     C_R   0.794979 0.771733 0.329634 0.550728
C128  C     C_R   0.708878 0.735507 0.815245 -0.067737
C129  C     C_R   0.191840 0.788851 0.902656 0.020392
C130  C     C_R   0.808160 0.211120 0.097310 0.018699
C131  C     C_R   0.810076 0.785178 0.095480 0.022435
C132  C     C_R   0.191652 0.211851 0.902760 0.018894
C133  C     C_R   0.691523 0.288333 0.902972 0.018464
C134  C     C_R   0.308282 0.711315 0.097201 0.019130
C135  C     C_R   0.308124 0.288585 0.097396 0.021214
C136  C     C_R   0.689785 0.715050 0.904645 0.022556
C137  C     C_R   0.197048 0.631471 0.525493 0.554123
C138  C     C_R   0.551440 0.875449 0.490023 -0.137123
C139  C     C_R   0.803616 0.368230 0.471722 0.552412
C140  C     C_R   0.803258 0.631665 0.472988 0.554935
C141  C     C_R   0.200856 0.368971 0.513323 0.554214
C142  C     C_R   0.696799 0.131805 0.527019 0.553715
C143  C     C_R   0.299857 0.869065 0.484676 0.555202
C144  C     C_R   0.303004 0.131735 0.473746 0.556306
C145  C     C_R   0.699399 0.869044 0.517379 0.556782
C146  C     C_R   0.926478 0.903113 0.066584 0.554852
C147  C     C_R   0.073602 0.096782 0.933365 0.556448
C148  C     C_R   0.073663 0.903333 0.933275 0.557405
Cu1   Cu    Cu3+1 0.209920 0.785290 0.495070 0.952233
Cu2   Cu    Cu3+1 0.504760 0.500000 0.075850 0.949988
Cu3   Cu    Cu3+1 0.995240 0.000000 0.924150 0.951684
Cu4   Cu    Cu3+1 0.004760 0.000000 0.075850 0.945519
Cu5   Cu    Cu3+1 0.790080 0.214710 0.504930 0.957885
Cu6   Cu    Cu3+1 0.790080 0.785290 0.504930 0.945607
Cu7   Cu    Cu3+1 0.209920 0.214710 0.495070 0.940588
Cu8   Cu    Cu3+1 0.709920 0.285290 0.495070 0.956034
Cu9   Cu    Cu3+1 0.290080 0.714710 0.504930 0.939838
Cu10  Cu    Cu3+1 0.290080 0.285290 0.504930 0.950025
Cu11  Cu    Cu3+1 0.709920 0.714710 0.495070 0.944307
Cu12  Cu    Cu3+1 0.495240 0.500000 0.924150 0.948727
H1    H     H_    0.227266 0.499671 0.539913 0.159378
H2    H     H_    0.910575 0.679025 0.417253 0.156937
H3    H     H_    0.911777 0.323754 0.401756 0.149463
H4    H     H_    0.087480 0.667785 0.581691 0.146050
H5    H     H_    0.537777 0.826907 0.471869 0.110743
H6    H     H_    0.482597 0.177743 0.457421 0.116707
H7    H     H_    0.448075 0.829187 0.563313 0.124406
H8    H     H_    0.514424 0.178723 0.557993 0.117500
H9    H     H_    0.072294 0.332202 0.390478 0.128769
H10   H     H_    0.983891 0.679541 0.448695 0.116303
H11   H     H_    0.992867 0.322754 0.410310 0.108658
H12   H     H_    0.769583 0.499867 0.471786 0.163349
H13   H     H_    0.015354 0.670574 0.545397 0.110214
H14   H     H_    0.154898 0.713769 0.055196 0.149596
H15   H     H_    0.844760 0.286971 0.945390 0.153439
H16   H     H_    0.766969 0.876346 0.023687 0.157579
H17   H     H_    0.155440 0.288862 0.053721 0.149069
H18   H     H_    0.654870 0.212456 0.054964 0.152174
H19   H     H_    0.345266 0.786342 0.944568 0.151129
H20   H     H_    0.344358 0.211667 0.946364 0.148866
H21   H     H_    0.732868 0.623903 0.976486 0.157936
H22   H     H_    0.132253 0.849313 0.011295 0.139668
H23   H     H_    0.729835 0.000143 0.532466 0.163626
H24   H     H_    0.867762 0.150690 0.988671 0.141260
H25   H     H_    0.869389 0.846531 0.987390 0.138972
H26   H     H_    0.132006 0.151455 0.011495 0.138869
H27   H     H_    0.631951 0.348826 0.011577 0.140370
H28   H     H_    0.367868 0.650839 0.988591 0.139898
H29   H     H_    0.367859 0.348833 0.988615 0.139714
H30   H     H_    0.630488 0.653659 0.012712 0.139035
H31   H     H_    0.116390 0.847197 0.769126 0.155114
H32   H     H_    0.883671 0.152930 0.230807 0.154135
H33   H     H_    0.883571 0.847477 0.230974 0.155295
H34   H     H_    0.271535 0.999844 0.462738 0.159971
H35   H     H_    0.116264 0.152780 0.769212 0.156846
H36   H     H_    0.616399 0.347225 0.769115 0.154600
H37   H     H_    0.383577 0.652737 0.230899 0.156419
H38   H     H_    0.383779 0.347096 0.230731 0.155001
H39   H     H_    0.616470 0.652437 0.768989 0.156792
H40   H     H_    0.245586 0.733779 0.782967 0.158241
H41   H     H_    0.754349 0.266095 0.217029 0.164537
H42   H     H_    0.754473 0.733307 0.216669 0.160628
H43   H     H_    0.245670 0.266621 0.782955 0.159935
H44   H     H_    0.745363 0.233398 0.783223 0.164764
H45   H     H_    0.626223 0.830118 0.450585 0.158265
H46   H     H_    0.254509 0.766369 0.216897 0.160620
H47   H     H_    0.253998 0.233989 0.217284 0.156146
H48   H     H_    0.745382 0.766953 0.783472 0.162742
H49   H     H_    0.411714 0.172984 0.417512 0.148448
H50   H     H_    0.361699 0.833263 0.571404 0.175257
H51   H     H_    0.588284 0.174180 0.590829 0.148963
H52   H     H_    0.149874 0.335224 0.410088 0.172619
O1    O     O_R   0.255040 0.869590 0.478480 -0.508160
O2    O     O_R   0.817950 0.203450 0.375560 -0.520141
O3    O     O_R   0.817950 0.796550 0.375560 -0.518860
O4    O     O_R   0.182050 0.203450 0.624440 -0.506779
O5    O     O_R   0.682050 0.296550 0.624440 -0.518968
O6    O     O_R   0.317950 0.703450 0.375560 -0.508082
O7    O     O_R   0.317950 0.296550 0.375560 -0.518825
O8    O     O_R   0.682050 0.703450 0.624440 -0.508511
O9    O     O_R   0.250530 0.763330 0.367210 -0.499936
O10   O     O_R   0.749470 0.236670 0.632790 -0.499327
O11   O     O_R   0.749470 0.763330 0.632790 -0.502198
O12   O     O_R   0.744960 0.130410 0.521520 -0.507233
O13   O     O_R   0.250530 0.236670 0.367210 -0.519875
O14   O     O_R   0.750530 0.263330 0.367210 -0.500324
O15   O     O_R   0.249470 0.736670 0.632790 -0.515615
O16   O     O_R   0.249470 0.263330 0.632790 -0.499989
O17   O     O_R   0.750530 0.736670 0.367210 -0.513614
O18   O     O_R   0.177260 0.690030 0.513710 -0.511173
O19   O     O_R   0.822740 0.309970 0.486290 -0.511690
O20   O     O_R   0.822740 0.690030 0.486290 -0.523296
O21   O     O_R   0.177260 0.309970 0.513710 -0.521409
O22   O     O_R   0.677260 0.190030 0.513710 -0.513703
O23   O     O_R   0.744960 0.869590 0.521520 -0.502360
O24   O     O_R   0.322740 0.809970 0.486290 -0.524070
O25   O     O_R   0.322740 0.190030 0.486290 -0.513083
O26   O     O_R   0.677260 0.809970 0.513710 -0.524613
O27   O     O_R   0.051640 0.926880 0.885090 -0.511384
O28   O     O_R   0.948360 0.073120 0.114910 -0.513401
O29   O     O_R   0.948360 0.926880 0.114910 -0.512673
O30   O     O_R   0.051640 0.073120 0.885090 -0.510981
O31   O     O_R   0.551640 0.426880 0.885090 -0.513019
O32   O     O_R   0.448360 0.573120 0.114910 -0.510826
O33   O     O_R   0.448360 0.426880 0.114910 -0.512329
O34   O     O_R   0.255040 0.130410 0.478480 -0.507405
O35   O     O_R   0.551640 0.573120 0.885090 -0.511933
O36   O     O_R   0.940620 0.926560 0.986760 -0.511050
O37   O     O_R   0.059380 0.073440 0.013240 -0.511355
O38   O     O_R   0.059380 0.926560 0.013240 -0.510366
O39   O     O_R   0.940620 0.073440 0.986760 -0.510640
O40   O     O_R   0.440620 0.426560 0.986760 -0.510920
O41   O     O_R   0.559380 0.573440 0.013240 -0.510787
O42   O     O_R   0.559380 0.426560 0.013240 -0.511567
O43   O     O_R   0.440620 0.573440 0.986760 -0.510058
O44   O     O_R   0.755040 0.369590 0.478480 -0.506645
O45   O     O_R   0.244960 0.630410 0.521520 -0.506691
O46   O     O_R   0.244960 0.369590 0.521520 -0.508360
O47   O     O_R   0.755040 0.630410 0.478480 -0.502433
O48   O     O_R   0.182050 0.796550 0.624440 -0.517955

loop_
_geom_bond_atom_site_label_1
_geom_bond_atom_site_label_2
_ccdc_geom_bond_type
C2    C19   A    
C2    H6    S    
C88   C97   A    
C55   C57   A    
C62   C132  S    
C83   C118  S    
C115  C124  A    
C62   C70   A    
Br8   C75   S    
C65   C74   A    
C124  H44   S    
C8    C43   A    
C113  C122  A    
C13   C18   A    
C108  H37   S    
Cu8   O22   S    
C63   C71   A    
Cu11  O8    S    
Cu2   Cu12  S    
C72   C119  S    
C146  O36   A    
Cu7   O4    S    
C26   C48   A    
C54   H3    S    
C24   H8    S    
C38   C41   A    
C59   C80   A    
C36   C144  S    
C83   O7    A    
C3    C95   S    
C125  H46   S    
C104  H33   S    
C140  O47   A    
C1    O9    A    
Cu2   O32   S    
C28   C50   A    
C52   H52   S    
C85   C129  A    
C65   C135  S    
C128  H48   S    
C147  O37   A    
C67   C76   A    
C7    O32   A    
C61   C115  S    
C117  C125  A    
C5    O35   A    
C138  H5    S    
C124  C133  A    
C142  O12   A    
C23   C32   A    
C104  C113  A    
C95   C103  A    
C7    C99   S    
C59   C130  S    
C11   C18   A    
C32   C40   A    
C65   C79   A    
C54   C56   A    
C123  C132  A    
C6    O42   A    
C10   C45   A    
C143  O24   A    
C91   C135  A    
C68   C77   A    
C121  C130  A    
C116  O4    A    
Cu10  O7    S    
C13   H7    S    
C26   C34   A    
C31   C140  S    
C5    C101  S    
C21   C52   A    
C1    O6    A    
Cu5   O10   S    
Br5   C71   S    
C11   C19   A    
C109  C118  A    
C23   C44   A    
C30   C141  S    
C64   C73   A    
C29   C38   A    
C53   H2    S    
C8    C12   A    
C63   C133  S    
C29   C45   A    
C111  C120  A    
C29   C51   A    
C17   C24   A    
C88   H26   S    
C34   C41   A    
C126  C135  A    
Cu6   O3    S    
C92   C101  A    
C8    C16   A    
Br6   C73   S    
C105  C111  S    
C90   C134  A    
Cu1   O1    S    
C23   C54   A    
C120  H40   S    
C62   C82   A    
C10   C17   A    
Cu3   O36   S    
Cu4   O28   S    
C122  C131  A    
C100  C109  A    
C9    C44   A    
C71   C80   A    
C39   H1    S    
C147  O30   A    
C101  C110  A    
C46   C53   A    
C58   C81   A    
C148  O38   A    
C42   H34   S    
Cu10  O16   S    
C64   C76   A    
C107  C115  A    
C22   C53   A    
Cu1   O9    S    
C112  C121  A    
Br1   C67   S    
C66   C75   A    
C97   C106  A    
C34   C145  S    
C10   C20   A    
C119  C128  A    
C92   C136  A    
C82   H17   S    
C109  H38   S    
C84   H16   S    
Cu1   Cu9   S    
C4    C100  S    
C56   H11   S    
C80   H15   S    
C57   H13   S    
C6    O31   A    
Cu10  O46   S    
C93   C148  S    
Cu2   O42   S    
C93   C102  A    
C85   H22   S    
Cu12  O35   S    
Cu8   O14   S    
C27   C47   A    
C1    C117  S    
C126  H47   S    
C46   H10   S    
C103  C112  A    
C37   C143  S    
C3    O39   A    
C21   C30   A    
Cu7   O34   S    
C64   C134  S    
C120  C129  A    
Br4   C70   S    
C2    C49   A    
Cu7   O13   S    
C121  H41   S    
Cu9   O6    S    
C103  H32   S    
Cu5   O12   S    
Cu6   O20   S    
C12   C57   A    
Cu3   Cu4   S    
C12   C15   A    
Cu11  O17   S    
C25   C55   A    
Cu2   O41   S    
C89   C133  A    
C137  O18   A    
C91   H29   S    
Cu4   O38   S    
C125  C134  A    
C90   H28   S    
C28   C37   A    
Cu9   O24   S    
C9    C15   A    
C72   O8    A    
C27   C36   A    
Cu3   O27   S    
C144  O25   A    
Cu8   O5    S    
C35   C52   A    
C26   C45   A    
C107  H36   S    
Cu5   O19   S    
C89   C98   A    
C141  O46   A    
C38   C142  S    
C91   C100  A    
C69   C78   A    
C94   O14   A    
C108  C117  A    
C145  O23   A    
C75   C84   A    
C123  H43   S    
C86   C130  A    
C14   C16   A    
C122  H42   S    
C17   C19   A    
C110  C119  A    
C3    O28   A    
C72   O11   A    
C85   C93   A    
Cu7   Cu10  S    
Br3   C69   S    
C70   C79   A    
C66   C78   A    
C114  C123  A    
C40   H12   S    
Cu5   Cu8   S    
Br2   C68   S    
C87   C96   A    
C94   O2    A    
C15   C46   A    
C96   C104  A    
C21   C43   A    
C20   C138  A    
C11   C47   A    
C60   C69   A    
C105  O15   A    
Cu12  O31   S    
C22   C44   A    
C35   H9    S    
C78   H21   S    
Cu3   O39   S    
C4    O33   A    
C32   C139  S    
C97   C147  S    
C102  H31   S    
C140  O20   A    
Cu10  O25   S    
C87   C131  A    
Cu4   O29   S    
Cu6   O11   S    
Cu3   O30   S    
C76   H19   S    
C148  O27   A    
C61   O5    A    
C102  C111  A    
C88   C132  A    
C137  O45   A    
C118  C126  A    
Cu5   O2    S    
Cu9   O15   S    
C79   H20   S    
C41   H23   S    
C146  O29   A    
C139  O19   A    
C25   C43   A    
Cu11  O26   S    
C127  O3    A    
C86   C95   A    
C83   O13   A    
C18   C20   A    
C9    C14   A    
C74   C82   A    
C87   H25   S    
C30   C39   A    
C98   C107  A    
C27   C49   A    
C94   C112  S    
C25   C33   A    
C81   H14   S    
C89   H27   S    
C110  H39   S    
C139  O44   A    
Cu2   O33   S    
C73   C81   A    
C13   C50   A    
C128  C136  A    
C28   C47   A    
C51   H51   S    
C61   O10   A    
C144  O34   A    
C50   H50   S    
Cu11  O47   S    
C55   H4    S    
C58   C129  S    
C49   H49   S    
C37   C42   A    
C63   C77   A    
C58   C67   A    
Cu8   O44   S    
C106  C114  A    
Cu4   O37   S    
C60   C84   A    
C22   C31   A    
Cu7   O21   S    
C48   H45   S    
C48   C138  A    
Cu12  O43   S    
C86   H24   S    
C99   C108  A    
C105  O48   A    
C7    O43   A    
Cu12  O40   S    
Cu1   O48   S    
C14   C56   A    
Cu6   Cu11  S    
C116  O16   A    
C145  O26   A    
C127  O17   A    
Cu1   O18   S    
C142  O22   A    
Br7   C74   S    
C33   C137  S    
C33   C39   A    
C113  C127  S    
C36   C42   A    
C141  O21   A    
C6    C98   S    
C16   C35   A    
C106  H35   S    
C5    O41   A    
C60   C131  S    
Cu9   O45   S    
C59   C68   A    
C4    O40   A    
C24   C51   A    
C96   C146  S    
Cu6   O23   S    
C114  C116  S    
C143  O1    A    
C66   C136  S    
C77   H18   S    
C31   C40   A    
C90   C99   A    
C92   H30   S    
