data_mof_unit_44021.cif
_audit_creation_date              2012-12-11T14:15:18-0500
_audit_creation_method            fapswitch 2.2
_symmetry_space_group_name_H-M    P1
_symmetry_Int_Tables_number       1
_space_group_crystal_system       triclinic
_cell_length_a                    11.125269
_cell_length_b                    12.713201
_cell_length_c                    23.659648
_cell_angle_alpha                 90.67353
_cell_angle_beta                  96.501084
_cell_angle_gamma                 68.803479
_cell_volume                      3098.37122392

loop_
_atom_site_label
_atom_site_type_symbol
_atom_type_description
_atom_site_fract_x
_atom_site_fract_y
_atom_site_fract_z
_atom_type_partial_charge
C1    C     C_R   0.149798 0.616408 0.429211 0.520678
C2    C     C_R   0.649802 0.561300 0.310068 0.258795
C3    C     C_R   0.691467 0.737757 0.318632 0.237688
C4    C     C_R   0.669716 0.751849 0.258835 -0.046626
C5    C     C_R   0.664374 0.659935 0.226006 -0.058882
C6    C     C_R   0.682395 0.659126 0.168592 0.173070
C7    C     C_R   0.659396 0.856473 0.171835 0.235787
C8    C     C_R   0.657555 0.853473 0.230731 0.280196
C9    C     C_1   0.235471 0.169720 0.120544 0.028411
C10   C     C_2   0.200642 0.254063 0.222598 0.193052
C11   C     C_2   0.115352 0.233320 0.252290 -0.080284
C12   C     C_R   0.749479 0.603773 0.403581 0.572026
C13   C     C_1   0.104021 0.265086 0.310649 0.006016
C14   C     C_1   0.216810 0.211402 0.166239 0.015883
C15   C     C_1   0.095805 0.292661 0.359366 0.019752
C16   C     C_1   0.181333 0.761893 0.126980 0.036836
C17   C     C_2   0.211927 0.722434 0.237646 0.182178
C18   C     C_2   0.163301 0.654713 0.262156 0.196956
C19   C     C_1   0.180745 0.637797 0.322839 0.063470
C20   C     C_1   0.190291 0.742979 0.177176 0.057712
C21   C     C_1   0.179714 0.626609 0.373070 0.032439
C22   C     C_1   0.629913 0.757759 0.866335 0.044195
C23   C     C_R   0.086656 0.329233 0.416750 0.544468
C24   C     C_2   0.684930 0.739081 0.759772 0.278677
C25   C     C_2   0.726609 0.637218 0.736532 0.179420
C26   C     C_1   0.726171 0.628548 0.675833 0.035166
C27   C     C_1   0.661415 0.746467 0.819057 0.016712
C28   C     C_1   0.730176 0.618820 0.625403 0.008406
C29   C     C_R   0.206031 0.173440 0.850212 -0.049136
C30   C     C_R   0.102659 0.217589 0.637646 -0.028108
C31   C     C_R   0.982460 0.201209 0.714776 0.288702
C32   C     C_R   0.986363 0.224236 0.657595 -0.161922
C33   C     C_R   0.217115 0.177556 0.673796 0.170400
C34   C     C_R   0.148639 0.616868 0.591255 0.557528
C35   C     C_R   0.210461 0.182984 0.732727 -0.078272
C36   C     C_R   0.093417 0.187871 0.754384 -0.005942
C37   C     C_R   0.093527 0.179001 0.814325 0.146933
C38   C     C_R   0.301341 0.204558 0.827734 0.246141
C39   C     C_R   0.309457 0.200083 0.769620 0.184637
C40   C     C_R   0.126296 0.745878 0.852828 0.014046
C41   C     C_R   0.188825 0.640565 0.649911 -0.033944
C42   C     C_R   0.316711 0.575849 0.741744 0.175891
C43   C     C_R   0.300773 0.565565 0.682451 0.246669
C44   C     C_R   0.100092 0.730694 0.676920 0.220313
C45   C     C_R   0.754825 0.599576 0.567588 0.547769
C46   C     C_R   0.104068 0.726991 0.735626 -0.015138
C47   C     C_R   0.215010 0.652633 0.768647 -0.057552
C48   C     C_R   0.223818 0.661847 0.827595 -0.147269
C49   C     C_R   0.007957 0.807206 0.820123 0.146289
C50   C     C_R   0.998339 0.798167 0.761630 -0.072755
C51   C     C_R   0.265471 0.111154 0.068879 0.549102
C52   C     C_R   0.600191 0.775581 0.081231 0.572257
C53   C     C_R   0.189778 0.788519 0.069621 0.542170
C54   C     C_R   0.241869 0.114291 0.906635 0.554835
C55   C     C_R   0.575857 0.775903 0.919062 0.556011
C56   C     C_R   0.098925 0.277096 0.584476 0.589832
C57   C     C_R   0.163249 0.785928 0.907634 0.558182
C58   C     C_R   0.662695 0.760812 0.140100 -0.018411
C59   C     C_R   0.689842 0.638073 0.344255 0.012587
C60   C     C_R   0.633244 0.574974 0.250853 0.206736
Cr1   Cr    Cr6+3 0.189770 0.415650 0.511620 1.110070
Cr2   Cr    Cr6+3 0.930400 0.667320 0.496770 1.073487
Cr3   Cr    Cr6+3 0.879870 0.417010 0.491650 1.030498
Cr4   Cr    Cr6+3 0.149500 0.973980 0.985330 1.112032
Cr5   Cr    Cr6+3 0.457000 0.976510 0.994660 1.108622
Cr6   Cr    Cr6+3 0.411170 0.724270 0.995270 1.095004
H1    H     H_    0.896154 0.252292 0.629426 0.156335
H2    H     H_    0.311168 0.610658 0.853779 0.177384
H3    H     H_    0.908947 0.849273 0.736507 0.201889
H4    H     H_    0.054521 0.189137 0.232987 0.111619
O1    O     O_R   0.196340 0.303200 0.448500 -0.472932
O2    O     O_R   0.811960 0.658090 0.547150 -0.462268
O3    O     O_R   0.757930 0.506140 0.547110 -0.521638
O4    O     O_R   0.988670 0.321620 0.556040 -0.518503
O5    O     O_3   0.000020 0.499990 0.500010 -0.299885
O6    O     O_R   0.113660 0.883270 0.047820 -0.515962
O7    O     O_R   0.186930 0.068530 0.043990 -0.498855
O8    O     O_R   0.377770 0.089040 0.054220 -0.471201
O9    O     O_R   0.562800 0.872960 0.056970 -0.467977
O10   O     O_R   0.555390 0.700940 0.062700 -0.456878
O11   O     O_R   0.295020 0.731920 0.049950 -0.476737
O12   O     O_R   0.199310 0.519670 0.454880 -0.499207
O13   O     O_R   0.094290 0.884230 0.921550 -0.435588
O14   O     O_R   0.168980 0.069410 0.926940 -0.458818
O15   O     O_R   0.358400 0.089990 0.927950 -0.465306
O16   O     O_R   0.544850 0.873850 0.939920 -0.490214
O17   O     O_R   0.536020 0.701900 0.936430 -0.484182
O18   O     O_R   0.277070 0.732810 0.932890 -0.524024
O19   O     O_3   0.339220 0.891590 0.991750 -0.293027
O20   O     O_R   0.045660 0.691380 0.441680 -0.546675
O21   O     O_R   0.811930 0.659460 0.430950 -0.473342
O22   O     O_R   0.757900 0.507620 0.421760 -0.488833
O23   O     O_R   0.988630 0.322990 0.439840 -0.514167
O24   O     O_R   0.196380 0.301720 0.573850 -0.423819
O25   O     O_R   0.199350 0.518300 0.571080 -0.460974
O26   O     O_R   0.045700 0.689900 0.567030 -0.457624
Br1   Br    Br    0.759994 0.518023 0.131383 -0.366923
Br2   Br    Br    0.315248 0.794678 0.280981 -0.571459
Br3   Br    Br    0.791108 0.498719 0.781226 -0.378526
O27   O     O_3   0.662666 0.833866 0.725006 -0.575781
C61   C     C_3   0.583027 0.935095 0.747299 -0.064122
H5    H     H_    0.618420 0.949157 0.791290 0.173829
H6    H     H_    0.481457 0.938185 0.745067 0.142379
H7    H     H_    0.585969 0.005399 0.721252 0.218920
Br4   Br    Br    0.942734 0.182546 0.849318 -0.273774
O28   O     O_3   0.395573 0.229319 0.862731 -0.483082
C62   C     C_3   0.337461 0.336664 0.885386 -0.030437
H8    H     H_    0.287693 0.402364 0.851118 0.141724
H9    H     H_    0.414639 0.360774 0.909427 0.178758
H10   H     H_    0.268216 0.335372 0.915552 0.110433
O29   O     O_3   0.863972 0.212432 0.731977 -0.464091
C63   C     C_3   0.833189 0.117739 0.714709 -0.021933
H11   H     H_    0.912365 0.037746 0.730510 0.118483
H12   H     H_    0.811054 0.118011 0.667689 0.106240
H13   H     H_    0.745153 0.121296 0.733639 0.220295
Br5   Br    Br    0.445852 0.239247 0.743223 -0.326887
Br6   Br    Br    0.373263 0.097282 0.639580 -0.465976
O30   O     O_3   0.645884 0.957236 0.145478 -0.514929
C64   C     C_3   0.770278 0.952609 0.135559 -0.050559
H14   H     H_    0.814644 0.884303 0.106023 0.120676
H15   H     H_    0.835603 0.941343 0.176155 0.130271
H16   H     H_    0.760626 0.033830 0.115167 0.164129
Br7   Br    Br    0.859637 0.910226 0.851808 -0.468012
Br8   Br    Br    0.478994 0.486102 0.784356 -0.357532
O31   O     O_3   0.391229 0.478042 0.657396 -0.472839
C65   C     C_3   0.474024 0.521139 0.632721 -0.042580
H17   H     H_    0.553259 0.449742 0.616836 0.173988
H18   H     H_    0.519289 0.564540 0.664640 0.136504
H19   H     H_    0.421481 0.579501 0.595913 0.088478
O32   O     O_3   0.002891 0.819044 0.646229 -0.536112
C66   C     C_3   0.055759 0.900148 0.633183 -0.103623
H20   H     H_    0.134224 0.865250 0.605258 0.136254
H21   H     H_    0.092985 0.933088 0.672486 0.101871
H22   H     H_    0.978017 0.972429 0.609685 0.142448
Br9   Br    Br    0.535524 0.497990 0.206243 -0.339796
O33   O     O_3   0.638691 0.952382 0.259647 -0.528326
C67   C     C_3   0.505650 0.003774 0.265839 -0.020599
H23   H     H_    0.490398 0.084045 0.288010 0.184652
H24   H     H_    0.472962 0.950183 0.292502 0.175017
H25   H     H_    0.445259 0.024011 0.223749 0.138684
O34   O     O_3   0.621423 0.475988 0.334882 -0.497317
C68   C     C_3   0.719988 0.370437 0.327711 -0.024349
H26   H     H_    0.819020 0.374300 0.333213 0.096141
H27   H     H_    0.702612 0.336019 0.285620 0.175669
H28   H     H_    0.717857 0.309766 0.360544 0.155695
O35   O     O_3   0.720021 0.817948 0.352028 -0.517572
C69   C     C_3   0.847934 0.810784 0.346210 -0.023201
H29   H     H_    0.916306 0.721889 0.346296 0.116535
H30   H     H_    0.880794 0.854170 0.382221 0.166113
H31   H     H_    0.853502 0.854093 0.306823 0.153587
Br10  Br    Br    0.316031 0.326232 0.255168 -0.397270
Br11  Br    Br    0.048429 0.592580 0.219390 -0.499250

loop_
_geom_bond_atom_site_label_1
_geom_bond_atom_site_label_2
_ccdc_geom_bond_type
C33   Br6   S    
C65   H17   S    
Cr5   O9    S    
Cr2   O26   S    
C8    O33   S    
C62   H9    S    
Cr4   O7    S    
C6    C58   A    
C12   O21   A    
C35   C36   A    
C9    C51   S    
C24   C27   S    
C4    C8    A    
C66   H22   S    
C43   O31   S    
C63   H12   S    
C11   H4    S    
C42   Br8   S    
C7    C8    A    
Cr1   O5    S    
C1    C21   S    
C67   H24   S    
C61   H5    S    
C45   O3    A    
C36   C37   A    
C19   C21   T    
C50   H3    S    
O29   C63   S    
Cr1   O12   S    
C31   C36   A    
Cr6   O18   S    
C5    C6    A    
C2    C60   A    
O28   C62   S    
C44   O32   S    
C40   C49   A    
C49   Br7   S    
C17   C20   S    
C53   O11   A    
C18   C19   S    
O30   C64   S    
Cr4   O14   S    
C16   C53   S    
C12   C59   S    
C25   Br3   S    
C69   H29   S    
C29   C38   A    
C47   C48   A    
C62   H8    S    
C57   O13   A    
Cr5   O8    S    
C52   O9    A    
C17   Br2   S    
C7    C58   A    
C5    C60   A    
Cr1   O1    S    
C15   C23   S    
C61   H6    S    
C45   O2    A    
C41   C43   A    
C7    O30   S    
C56   O24   A    
C34   C41   S    
Cr4   O19   S    
C18   Br11  S    
C54   O14   A    
C63   H11   S    
C44   C46   A    
C46   C50   A    
Cr6   O19   S    
C64   H15   S    
C67   H25   S    
C28   C45   S    
C56   O4    A    
C6    Br1   S    
C23   O1    A    
Cr5   O16   S    
C69   H31   S    
C34   O25   A    
C10   C14   S    
Cr6   O17   S    
Cr1   O24   S    
O33   C67   S    
Cr3   O3    S    
C65   H19   S    
C1    O12   A    
C30   C56   S    
C48   H2    S    
C23   O23   A    
C38   O28   S    
C35   C39   A    
C9    C14   T    
C51   O7    A    
Cr4   O13   S    
C37   Br4   S    
C10   Br10  S    
C31   C32   A    
C16   C20   T    
Cr2   O21   S    
C68   H28   S    
C17   C18   D    
Cr4   O6    S    
Cr2   O2    S    
C24   C25   D    
C60   Br9   S    
C52   C58   S    
C32   H1    S    
Cr3   O22   S    
C2    C59   A    
C39   Br5   S    
C61   H7    S    
C22   C27   T    
C13   C15   T    
O31   C65   S    
C62   H10   S    
C68   H27   S    
Cr2   O5    S    
C53   O6    A    
C42   C43   A    
C66   H20   S    
C1    O20   A    
O35   C69   S    
C64   H16   S    
C40   C48   A    
Cr3   O23   S    
C46   C47   A    
C65   H18   S    
C40   C57   S    
C30   C33   A    
C69   H30   S    
C24   O27   S    
C12   O22   A    
C34   O26   A    
C4    C5    A    
C66   H21   S    
C54   O15   A    
C64   H14   S    
Cr1   O25   S    
Cr5   O15   S    
C22   C55   S    
Cr3   O4    S    
Cr6   O10   S    
C67   H23   S    
Cr5   O19   S    
C26   C28   T    
C57   O18   A    
C55   O16   A    
O32   C66   S    
C25   C26   S    
C51   O8    A    
O34   C68   S    
Cr6   O11   S    
C30   C32   A    
C11   C13   S    
C38   C39   A    
Cr3   O5    S    
C41   C44   A    
Cr2   O20   S    
O27   C61   S    
C33   C35   A    
C42   C47   A    
C55   O17   A    
C10   C11   D    
C3    O35   S    
C49   C50   A    
C29   C54   S    
C29   C37   A    
C2    O34   S    
C31   O29   S    
C68   H26   S    
C52   O10   A    
C63   H13   S    
C3    C4    A    
C3    C59   A    
