data_mof_unit_38434.cif
_audit_creation_date              2012-12-11T15:30:36-0500
_audit_creation_method            fapswitch 2.2
_symmetry_space_group_name_H-M    P1
_symmetry_Int_Tables_number       1
_space_group_crystal_system       triclinic
_cell_length_a                    6.951702
_cell_length_b                    20.46525
_cell_length_c                    24.426163
_cell_angle_alpha                 89.678943
_cell_angle_beta                  90.508161
_cell_angle_gamma                 89.433865
_cell_volume                      3474.70656988

loop_
_atom_site_label
_atom_site_type_symbol
_atom_type_description
_atom_site_fract_x
_atom_site_fract_y
_atom_site_fract_z
_atom_type_partial_charge
O1    O     O_R   0.507310 0.423620 0.460450 -0.535797
O2    O     O_R   0.170760 0.556060 0.437190 -0.538259
O3    O     O_R   0.004040 0.576380 0.539550 -0.536298
C1    C     C_R   0.338670 0.576250 0.421276 0.725390
O4    O     O_R   0.177350 0.422870 0.454070 -0.537737
O5    O     O_R   0.010680 0.442240 0.556560 -0.534998
C2    C     C_R   0.346261 0.398997 0.443350 0.695507
O6    O     O_R   0.500670 0.557760 0.443440 -0.536509
O7    O     O_3   0.340380 0.506510 0.533610 -0.365982
V1    V     V_3+5 0.064130 0.498790 0.493770 1.414958
O8    O     O_R   0.681170 0.443940 0.562810 -0.537803
C3    C     C_R   0.850958 0.423882 0.578685 0.728248
O9    O     O_R   0.674570 0.577130 0.545930 -0.537625
C4    C     C_R   0.842687 0.601033 0.556619 0.693330
V2    V     V_3+5 0.564560 0.501210 0.506230 1.416973
O10   O     O_3   0.838170 0.493490 0.466390 -0.367590
C5    C     C_R   0.976619 0.838245 0.911144 -0.041988
C6    C     C_R   0.847396 0.661723 0.588828 -0.040941
C7    C     C_R   0.042590 0.722305 0.905848 -0.163224
C8    C     C_R   0.032911 0.779576 0.936155 -0.168305
C9    C     C_R   0.930498 0.839383 0.854939 -0.216059
C10   C     C_R   0.942542 0.781621 0.822653 0.086550
C11   C     C_R   0.999422 0.722814 0.849600 0.141092
C12   C     C_R   0.902937 0.780122 0.764780 0.058796
C13   C     C_R   0.921049 0.719849 0.735192 0.058599
C14   C     C_R   0.977516 0.663118 0.764494 -0.189157
C15   C     C_R   0.015312 0.664756 0.820351 -0.204153
C16   C     C_R   0.846431 0.836850 0.735480 -0.189287
C17   C     C_R   0.808592 0.835208 0.679625 -0.205090
C18   C     C_R   0.824499 0.777151 0.650375 0.142088
C19   C     C_R   0.881448 0.718349 0.677319 0.086353
C20   C     C_R   0.781277 0.777654 0.594131 -0.164840
C21   C     C_R   0.790992 0.720383 0.563823 -0.170090
C22   C     C_R   0.893562 0.660591 0.645030 -0.215876
H1    H     H_    0.058822 0.619825 0.840912 0.119888
H2    H     H_    0.933557 0.613772 0.662223 0.092696
H3    H     H_    0.753065 0.721710 0.520702 0.102414
H4    H     H_    0.765034 0.880136 0.659066 0.119157
H5    H     H_    0.086757 0.677449 0.926377 0.111778
H6    H     H_    0.070796 0.778244 0.979279 0.105199
H7    H     H_    0.890606 0.886209 0.837741 0.092559
H8    H     H_    0.994636 0.616165 0.745432 0.121043
H9    H     H_    0.829280 0.883800 0.754544 0.120929
H10   H     H_    0.737042 0.822504 0.573604 0.109433
C23   C     C_3   0.765080 0.257789 0.802004 -0.327562
C24   C     C_3   0.118613 0.245682 0.783427 -0.330894
C25   C     C_3   0.098910 0.295376 0.735172 -0.328580
H11   H     H_    0.765765 0.357898 0.769317 0.137675
H12   H     H_    0.794983 0.284614 0.840611 0.137225
H13   H     H_    0.239006 0.210972 0.775135 0.135334
H14   H     H_    0.155754 0.272206 0.821679 0.137454
H15   H     H_    0.126569 0.345572 0.750453 0.137334
H16   H     H_    0.210046 0.284341 0.703938 0.135368
C26   C     C_1   0.863730 0.378429 0.624437 -0.194300
C27   C     C_3   0.928933 0.207505 0.791267 0.293039
C28   C     C_3   0.745343 0.307434 0.753711 -0.329149
C29   C     C_3   0.895321 0.292454 0.708699 0.292241
C30   C     C_3   0.862508 0.221591 0.688621 -0.328344
C31   C     C_3   0.882118 0.171918 0.736905 -0.329018
C32   C     C_1   0.876981 0.339947 0.662417 -0.102294
C33   C     C_1   0.947257 0.160017 0.837552 -0.102196
C34   C     C_1   0.960503 0.121541 0.875536 -0.194073
H17   H     H_    0.745693 0.144387 0.741041 0.136433
H18   H     H_    0.997824 0.135740 0.727743 0.137024
H19   H     H_    0.716777 0.217685 0.669757 0.136011
H20   H     H_    0.626376 0.231919 0.807411 0.136117
H21   H     H_    0.597338 0.305128 0.736105 0.137358
H22   H     H_    0.968921 0.209077 0.656465 0.136834
C35   C     C_3   0.583548 0.693623 0.260745 0.353913
C36   C     C_3   0.222161 0.702905 0.249022 -0.315197
C37   C     C_3   0.249466 0.752141 0.200949 -0.329516
H23   H     H_    0.619691 0.715994 0.172753 0.166694
H24   H     H_    0.083390 0.713572 0.269679 0.120832
H25   H     H_    0.213059 0.652449 0.232572 0.172778
H26   H     H_    0.254754 0.725039 0.161612 0.148098
H27   H     H_    0.123144 0.785906 0.198596 0.140374
C38   C     C_1   0.476031 0.878041 0.124602 -0.196581
C39   C     C_3   0.390501 0.707352 0.291025 0.233578
C40   C     C_3   0.607975 0.742831 0.212118 -0.346305
C41   C     C_3   0.436655 0.791948 0.208691 0.231514
C42   C     C_3   0.423946 0.827980 0.264286 -0.344238
C43   C     C_3   0.395470 0.778693 0.312296 -0.423938
C44   C     C_1   0.460993 0.839448 0.162504 -0.077259
C45   C     C_1   0.364164 0.660332 0.337473 -0.074770
C46   C     C_1   0.348333 0.621908 0.375437 -0.204569
H28   H     H_    0.514343 0.784071 0.342704 0.140718
H29   H     H_    0.258883 0.790468 0.333702 0.161045
H30   H     H_    0.557637 0.856250 0.271510 0.143846
H31   H     H_    0.703848 0.702797 0.290438 0.003478
H32   H     H_    0.744797 0.769928 0.217590 0.098327
H33   H     H_    0.301879 0.863573 0.263228 0.151358
C47   C     C_R   0.472312 0.161807 0.088823 -0.041636
C48   C     C_R   0.352323 0.338314 0.411128 -0.041834
C49   C     C_R   0.535746 0.277501 0.094365 -0.163433
C50   C     C_R   0.526152 0.220310 0.063977 -0.169306
C51   C     C_R   0.428578 0.160766 0.144952 -0.215635
C52   C     C_R   0.440729 0.218423 0.177330 0.086536
C53   C     C_R   0.495090 0.277062 0.150549 0.139420
C54   C     C_R   0.403746 0.219956 0.235153 0.058693
C55   C     C_R   0.421716 0.280099 0.264844 0.057251
C56   C     C_R   0.475690 0.336635 0.235713 -0.186385
C57   C     C_R   0.511089 0.334993 0.179916 -0.200369
C58   C     C_R   0.350070 0.163384 0.264311 -0.188951
C59   C     C_R   0.314769 0.165068 0.320118 -0.204924
C60   C     C_R   0.330383 0.223028 0.349450 0.142253
C61   C     C_R   0.384540 0.281673 0.322654 0.086569
C62   C     C_R   0.289552 0.222592 0.405621 -0.165076
C63   C     C_R   0.298736 0.279797 0.435985 -0.169731
C64   C     C_R   0.396260 0.339368 0.355009 -0.216258
H34   H     H_    0.552812 0.379803 0.159516 0.125002
H35   H     H_    0.433954 0.386103 0.337915 0.093534
H36   H     H_    0.262478 0.278542 0.479031 0.103557
H37   H     H_    0.273359 0.120262 0.340570 0.119259
H38   H     H_    0.578011 0.322217 0.073961 0.111220
H39   H     H_    0.562318 0.221561 0.020925 0.103823
H40   H     H_    0.390639 0.114061 0.162041 0.092772
H41   H     H_    0.492673 0.383393 0.254908 0.122482
H42   H     H_    0.333308 0.116525 0.245172 0.120933
H43   H     H_    0.247474 0.177861 0.426036 0.109505
O11   O     O_R   0.323590 0.942280 0.056590 -0.535099
O12   O     O_R   0.647030 0.077140 0.045940 -0.537865
O13   O     O_R   0.813570 0.057750 0.943430 -0.535368
C65   C     C_R   0.478178 0.101094 0.056613 0.693889
O14   O     O_R   0.653510 0.943950 0.062820 -0.537068
O15   O     O_R   0.820100 0.923600 0.960440 -0.536243
C66   C     C_R   0.485589 0.923770 0.078761 0.724883
O16   O     O_R   0.317060 0.076430 0.039590 -0.536251
O17   O     O_3   0.483830 0.993520 0.966410 -0.366679
V3    V     V_3+5 0.760140 0.001200 0.006230 1.419681
O18   O     O_R   0.149560 0.922820 0.954030 -0.537856
C67   C     C_R   0.981411 0.898935 0.943352 0.693985
O19   O     O_R   0.143080 0.056020 0.937150 -0.538134
C68   C     C_R   0.973286 0.076094 0.921291 0.727112
V4    V     V_3+5 0.259690 0.998730 0.993720 1.419839
O20   O     O_3   0.986120 0.006480 0.033580 -0.366685
O21   O     O_3   0.583838 0.628830 0.240027 -0.553475
C69   C     C_3   0.732575 0.590709 0.264189 0.097878
H44   H     H_    0.722758 0.590996 0.309689 0.119663
H45   H     H_    0.875273 0.609381 0.251558 0.112196
C70   C     C_3   0.714220 0.520448 0.245131 -0.706832
H46   H     H_    0.726539 0.518088 0.199881 0.221493
H47   H     H_    0.829959 0.489858 0.264063 0.176443
H48   H     H_    0.572467 0.500927 0.257452 0.212633

loop_
_geom_bond_atom_site_label_1
_geom_bond_atom_site_label_2
_ccdc_geom_bond_type
C13   C19   A    
C54   C58   A    
C56   C57   A    
C27   C31   S    
C36   C39   S    
C4    C6    S    
O2    C1    A    
C7    C8    A    
O16   V4    S    
C1    O6    A    
O17   V3    S    
C52   C53   A    
C49   H38   S    
C26   C32   T    
C69   H45   S    
C14   C15   A    
C34   C68   S    
C16   C17   A    
C70   H47   S    
H23   C40   S    
C64   H35   S    
C48   C63   A    
O5    C3    A    
C37   H27   S    
C8    H6    S    
O11   C66   A    
C5    C67   S    
C49   C53   A    
V2    O10   S    
C47   C51   A    
C5    C8    A    
C28   C29   S    
O15   C67   A    
C59   C60   A    
C40   H32   S    
V3    O20   S    
O8    V2    S    
C23   C28   S    
C50   H39   S    
O19   C68   A    
C24   C27   S    
C36   H25   S    
C62   C63   A    
C70   H48   S    
C36   C37   S    
O1    V2    S    
C11   C15   A    
C18   C20   A    
O7    V1    S    
O13   V3    S    
C22   H2    S    
C25   H16   S    
O9    C4    A    
C35   C39   S    
O18   V4    S    
C41   C44   S    
C35   H31   S    
C62   H43   S    
C37   C41   S    
C52   C54   A    
C42   C43   S    
C70   H46   S    
C2    C48   S    
C69   C70   S    
C12   C13   A    
C47   C65   S    
O4    C2    A    
C41   C42   S    
C29   C32   S    
C1    C46   S    
C15   H1    S    
C30   C31   S    
C43   H28   S    
C24   H14   S    
C47   C50   A    
C21   H3    S    
C63   H36   S    
C17   H4    S    
C7    C11   A    
O13   C68   A    
C17   C18   A    
O17   V4    S    
C25   C29   S    
C60   C62   A    
C39   C43   S    
C30   H19   S    
C65   O16   A    
C54   C55   A    
C23   H12   S    
C51   C52   A    
C36   H24   S    
C20   H10   S    
C19   C22   A    
C49   C50   A    
C45   C46   T    
C6    C22   A    
C25   H15   S    
O3    C4    A    
C7    H5    S    
C9    H7    S    
C30   H22   S    
O6    V2    S    
O9    V2    S    
C10   C12   A    
C40   C41   S    
C57   H34   S    
C58   H42   S    
O2    V1    S    
C23   H20   S    
C14   H8    S    
O14   C66   A    
C69   H44   S    
H11   C28   S    
C24   C25   S    
O1    C2    A    
C31   H17   S    
C12   C16   A    
O12   V3    S    
O21   C69   S    
O5    V1    S    
O8    C3    A    
V4    O20   S    
C35   O21   S    
C28   H21   S    
C60   C61   A    
C24   H13   S    
C16   H9    S    
C55   C61   A    
C56   H41   S    
C20   C21   A    
O18   C67   A    
C13   C14   A    
O4    V1    S    
C31   H18   S    
O3    V1    S    
C53   C57   A    
C37   H26   S    
C29   C30   S    
C18   C19   A    
C27   C33   S    
C55   C56   A    
O14   V3    S    
O11   V4    S    
O7    V2    S    
C33   C34   T    
C6    C21   A    
C5    C9    A    
C39   C45   S    
O12   C65   A    
C42   H30   S    
C35   C40   S    
C59   H37   S    
C42   H33   S    
O15   V3    S    
C23   C27   S    
O19   V4    S    
C58   C59   A    
C38   C44   T    
C10   C11   A    
C51   H40   S    
V1    O10   S    
C9    C10   A    
C3    C26   S    
C38   C66   S    
C43   H29   S    
C48   C64   A    
C61   C64   A    
