data_mof_unit_20223.cif
_audit_creation_date              2013-03-05T15:52:29-0500
_audit_creation_method            fapswitch 2.2
_symmetry_space_group_name_H-M    P1
_symmetry_Int_Tables_number       1
_space_group_crystal_system       triclinic
_cell_length_a                    27.774194
_cell_length_b                    10.854138
_cell_length_c                    9.587136
_cell_angle_alpha                 90.203159
_cell_angle_beta                  89.652102
_cell_angle_gamma                 92.98226
_cell_volume                      2886.20282042

loop_
_atom_site_label
_atom_site_type_symbol
_atom_site_description
_atom_site_fract_x
_atom_site_fract_y
_atom_site_fract_z
_atom_type_partial_charge
O1    O     O_R   0.500000 0.319640 0.618810 -0.561294
O2    O     O_R   0.500000 0.319660 0.381240 -0.581888
C1    C     C_R   0.503895 0.263241 0.500291 0.826214
O3    O     O_R   0.430260 0.500010 0.618770 -0.556537
O4    O     O_R   0.430270 0.500030 0.381200 -0.580939
C2    C     C_R   0.407473 0.499919 0.500302 0.843723
Cu1   Cu    Cu3+1 0.500000 0.499990 0.640660 0.953192
Cu2   Cu    Cu3+1 0.500000 0.500010 0.359340 0.942672
O5    O     O_R   0.500000 0.680340 0.618760 -0.616647
O6    O     O_R   0.500000 0.680360 0.381190 -0.598083
O7    O     O_R   0.569730 0.499970 0.618800 -0.606668
O8    O     O_R   0.569740 0.499990 0.381230 -0.598870
C3    C     C_R   0.497436 0.737570 0.501525 0.780233
C4    C     C_R   0.592524 0.500937 0.499623 0.782756
C5    C     C_R   0.175390 0.393127 0.488013 0.587499
O9    O     O_2   0.197970 0.286045 0.483030 -0.504810
N1    N     N_R   0.201845 0.502523 0.498354 -0.463901
C6    C     C_R   0.180270 0.612880 0.501676 0.575846
C7    C     C_R   0.278861 0.497131 0.374591 -0.121028
C8    C     C_R   0.329000 0.496454 0.374385 -0.194052
C9    C     C_R   0.328677 0.505068 0.627242 -0.207116
C10   C     C_R   0.278398 0.505402 0.627676 0.210073
C11   C     C_R   0.253392 0.501683 0.500695 0.302318
C12   C     C_R   0.101793 0.504185 0.487821 -0.043817
C13   C     C_R   0.124856 0.391902 0.482454 -0.062250
C14   C     C_R   0.097318 0.281625 0.464548 -0.138113
C15   C     C_R   0.129852 0.615881 0.496136 -0.019810
C16   C     C_R   0.354416 0.500441 0.500754 -0.083287
H1    H     H_    0.347459 0.508528 0.725897 0.190703
H2    H     H_    0.114879 0.195847 0.448567 0.208836
C17   C     C_R   0.645591 0.503196 0.498407 -0.073397
C18   C     C_R   0.972307 0.394238 0.502144 0.053560
C19   C     C_R   0.977182 0.619342 0.468843 0.040477
C20   C     C_R   0.949464 0.507109 0.486476 0.077085
C21   C     C_R   0.944066 0.290206 0.547233 -0.156034
C22   C     C_R   0.894052 0.291479 0.554049 -0.123566
C23   C     C_R   0.870734 0.398886 0.522036 -0.025440
C24   C     C_R   0.898430 0.507893 0.491343 -0.043882
C25   C     C_R   0.875107 0.617841 0.467115 -0.025745
C26   C     C_R   0.824529 0.615822 0.469631 0.576643
N2    N     N_R   0.798317 0.508112 0.495925 -0.463189
C27   C     C_R   0.820266 0.401035 0.523638 0.572423
C28   C     C_R   0.721206 0.500484 0.369365 0.205673
C29   C     C_R   0.670930 0.498741 0.371270 -0.238453
C30   C     C_R   0.671407 0.510161 0.624017 -0.214541
C31   C     C_R   0.721627 0.512285 0.622358 -0.125990
C32   C     C_R   0.746711 0.507455 0.495523 0.310192
O10   O     O_2   0.793293 0.296947 0.551637 -0.516117
C33   C     C_R   0.022899 0.391235 0.482353 -0.003216
C34   C     C_R   0.050777 0.504843 0.483934 0.051602
C35   C     C_R   0.028100 0.619214 0.480275 0.051759
C36   C     C_R   0.047154 0.280409 0.458858 0.126160
H3    H     H_    0.873801 0.208236 0.585991 0.194994
H4    H     H_    0.960402 0.208475 0.583927 0.178806
O11   O     O_2   0.207571 0.719185 0.509807 -0.506457
C37   C     C_R   0.107114 0.727757 0.498285 -0.115539
H5    H     H_    0.347787 0.492776 0.275256 0.176350
H6    H     H_    0.259662 0.494176 0.276550 0.167015
H7    H     H_    0.127844 0.814834 0.506152 0.199623
C38   C     C_R   0.952803 0.727970 0.442429 -0.188380
C39   C     C_R   0.902688 0.726834 0.440729 -0.120364
O12   O     O_2   0.801673 0.720406 0.446053 -0.515232
C40   C     C_R   0.057216 0.729653 0.489900 -0.182737
H8    H     H_    0.971593 0.814938 0.419182 0.171313
H9    H     H_    0.652875 0.514064 0.723537 0.174223
H10   H     H_    0.741172 0.517504 0.719782 0.165989
H11   H     H_    0.497016 0.109977 0.279668 0.166732
C41   C     C_R   0.533101 0.122954 0.752152 -0.128262
H12   H     H_    0.552520 0.211822 0.749646 0.159606
C42   C     C_R   0.528122 0.064920 0.881138 -0.131878
H13   H     H_    0.541489 0.111041 0.974561 0.138783
C43   C     C_R   0.504126 0.949842 0.890155 -0.124359
H14   H     H_    0.497552 0.907511 0.991060 0.139920
C44   C     C_R   0.489699 0.887498 0.768813 -0.142949
H15   H     H_    0.469318 0.801155 0.783060 0.173027
C45   C     C_R   0.499566 0.939517 0.635261 0.094284
C46   C     C_R   0.514130 0.065591 0.629736 0.104571
C47   C     C_R   0.508377 0.129575 0.502601 -0.116652
C48   C     C_R   0.500277 0.063405 0.378680 -0.194384
H16   H     H_    0.492502 0.887603 0.281677 0.165186
C49   C     C_R   0.496173 0.936064 0.380349 -0.198243
C50   C     C_R   0.495661 0.872305 0.507125 -0.108207
H17   H     H_    0.445556 0.360792 0.132574 0.164293
C51   C     C_R   0.564512 0.664035 0.143643 -0.151171
H18   H     H_    0.567489 0.671705 0.253624 0.201535
C52   C     C_R   0.596108 0.744100 0.071148 -0.203785
C53   C     C_R   0.596162 0.744047 0.927405 -0.187476
H19   H     H_    0.620705 0.806958 0.871020 0.166728
C54   C     C_R   0.564561 0.664088 0.855267 -0.145249
H20   H     H_    0.567293 0.672667 0.745288 0.202340
C55   C     C_R   0.531728 0.580711 0.924799 0.154250
C56   C     C_R   0.531703 0.580669 0.074478 0.197502
N3    N     N_R   0.500460 0.501210 0.147910 -0.214185
C57   C     C_R   0.470007 0.423314 0.075565 -0.092482
C58   C     C_R   0.469738 0.422724 0.928291 0.229807
N4    N     N_R   0.500480 0.501290 0.852040 -0.223266
H21   H     H_    0.885642 0.812322 0.419747 0.197675
H22   H     H_    0.042303 0.819274 0.495576 0.165409
I1    I     I_    0.241657 0.510375 0.821702 -0.282850
H23   H     H_    0.620712 0.806802 0.127240 0.169009
I2    I     I_    0.418906 0.293407 0.838838 -0.324866
H24   H     H_    0.651805 0.493244 0.273156 0.180817
I3    I     I_    0.756985 0.489687 0.174197 -0.315855
I4    I     I_    0.015222 0.113503 0.373141 -0.405920

loop_
_geom_bond_atom_site_label_1
_geom_bond_atom_site_label_2
_geom_bond_distance
_ccdc_geom_bond_type
C53   H19   1.082992 S    
N3    C57   1.356406 A    
N2    C27   1.367799 A    
C58   N4    1.382650 A    
C12   C15   1.408993 A    
C4    C17   1.472783 S    
C49   C50   1.400403 A    
Cu1   Cu2   2.697054 S    
C46   C47   1.418932 A    
Cu1   O7    1.946746 S    
Cu1   N4    2.026649 S    
N1    C11   1.432486 S    
C44   C45   1.420575 A    
C22   C23   1.398659 A    
C51   C52   1.387774 A    
C31   H10   1.082988 S    
C40   H22   1.078002 S    
O4    C2    1.302258 A    
O7    C4    1.302681 A    
C5    C13   1.404235 A    
C5    O9    1.349652 S    
C26   O12   1.349546 S    
C5    N1    1.367067 A    
C23   C27   1.403121 A    
O5    C3    1.290239 A    
C22   H3    1.083277 S    
C55   N4    1.381358 A    
C2    C16   1.473909 S    
C7    C8    1.392947 A    
C41   H12   1.080643 S    
C42   H13   1.082660 S    
C54   C55   1.416323 A    
C52   H23   1.082978 S    
O1    Cu1   1.967981 S    
C9    C10   1.396628 A    
C21   H4    1.078258 S    
O3    Cu1   1.949588 S    
N1    C6    1.367140 A    
C45   C46   1.407725 A    
C7    H6    1.083022 S    
C12   C34   1.418040 A    
C25   C39   1.398510 A    
O2    Cu2   1.969511 S    
C17   C29   1.405697 A    
Cu2   N3    2.027055 S    
C18   C21   1.408665 A    
H11   C48   1.083525 S    
C12   C13   1.406656 A    
C43   C44   1.394155 A    
C44   H15   1.078033 S    
C45   C50   1.428326 A    
C55   C56   1.434995 A    
C48   C49   1.381080 A    
C29   H24   1.082997 S    
C15   C37   1.397605 A    
H16   C49   1.083525 S    
C8    C16   1.405264 A    
C34   C35   1.421587 A    
C13   C14   1.397159 A    
C30   C31   1.393806 A    
H17   C57   1.081951 S    
C9    H1    1.082509 S    
C3    C50   1.466602 S    
C38   C39   1.391519 A    
O1    C1    1.295374 A    
C21   C22   1.391028 A    
C18   C20   1.417513 A    
C7    C11   1.399035 A    
C28   C29   1.395539 A    
C23   C24   1.408270 A    
C14   C36   1.394049 A    
Cu2   O8    1.949583 S    
C33   C36   1.425530 A    
C19   C20   1.416876 A    
N2    C32   1.433004 S    
C37   C40   1.389899 A    
C35   C40   1.413748 A    
C27   O10   1.349570 S    
C51   H18   1.060778 S    
C6    O11   1.349616 S    
O3    C2    1.303525 A    
C26   N2    1.368079 A    
C9    C16   1.406016 A    
O8    C4    1.302638 A    
C14   H2    1.083309 S    
C19   C38   1.414245 A    
C53   C54   1.387720 A    
C30   H9    1.083085 S    
C25   C26   1.403853 A    
C52   C53   1.378072 A    
C41   C46   1.418051 A    
Cu1   O5    1.969511 S    
C31   C32   1.399916 A    
C36   I4    2.138912 S    
C10   I1    2.118106 S    
C20   C24   1.418372 A    
Cu2   O6    1.967982 S    
C39   H21   1.083416 S    
C6    C15   1.403717 A    
C43   H14   1.082849 S    
O6    C3    1.311543 A    
O4    Cu2   1.946749 S    
C19   C35   1.419172 A    
C37   H7    1.083461 S    
C38   H8    1.077917 S    
O2    C1    1.304900 A    
C8    H5    1.083027 S    
C47   C48   1.399383 A    
C24   C25   1.407824 A    
C56   N3    1.382560 A    
C57   C58   1.411987 A    
C28   I3    2.119009 S    
C18   C33   1.418789 A    
C41   C42   1.392651 A    
C33   C34   1.421615 A    
C17   C30   1.405084 A    
C10   C11   1.404644 A    
C42   C43   1.387556 A    
C51   C56   1.416362 A    
C54   H20   1.060736 S    
C1    C47   1.462858 S    
C28   C32   1.405194 A    
C58   I2    2.121047 S    
