data_mof_unit_65359.cif
_audit_creation_date              2012-12-10T16:44:42-0500
_audit_creation_method            fapswitch 2.2
_symmetry_space_group_name_H-M    P1
_symmetry_Int_Tables_number       1
_space_group_crystal_system       triclinic
_cell_length_a                    18.512229
_cell_length_b                    18.408485
_cell_length_c                    18.393296
_cell_angle_alpha                 119.40658
_cell_angle_beta                  119.787327
_cell_angle_gamma                 90.442553
_cell_volume                      4468.83492702

loop_
_atom_site_label
_atom_site_type_symbol
_atom_type_description
_atom_site_fract_x
_atom_site_fract_y
_atom_site_fract_z
_atom_type_partial_charge
C1    C     C_R   0.138318 0.361554 0.998588 0.843647
C2    C     C_R   0.520357 0.214087 0.784551 -0.179696
C3    C     C_R   0.573260 0.267201 0.784721 -0.183693
C4    C     C_R   0.861833 0.639153 0.000003 0.865625
C5    C     C_R   0.664622 0.298535 0.853244 0.021900
C6    C     C_2   0.726010 0.784272 0.945643 -0.199548
C7    C     C_2   0.699148 0.811572 0.007336 -0.307014
C8    C     C_2   0.789054 0.735683 0.951532 0.011533
C9    C     C_2   0.803243 0.691727 0.996089 -0.341678
C10   C     C_2   0.716256 0.280068 0.441578 -0.199150
C11   C     C_2   0.688617 0.191608 0.387526 -0.307701
C12   C     C_R   0.824849 0.204459 0.137952 -0.194461
C13   C     C_2   0.764912 0.337307 0.553266 0.012866
C14   C     C_2   0.808160 0.307177 0.611538 -0.342579
C15   C     C_2   0.332759 0.277398 0.046871 -0.211232
C16   C     C_R   0.138140 0.638751 0.276954 0.797014
C17   C     C_2   0.305896 0.192270 0.013285 -0.124575
C18   C     C_2   0.279611 0.335717 0.057473 -0.163039
C19   C     C_2   0.192040 0.305364 0.989338 -0.273996
C20   C     C_2   0.221171 0.775464 0.939389 -0.263591
C21   C     C_2   0.307929 0.788703 0.984236 -0.132773
C22   C     C_2   0.163445 0.709535 0.926024 0.000400
C23   C     C_R   0.784560 0.227082 0.066628 0.058685
C24   C     C_2   0.191497 0.701459 0.003874 -0.317161
C25   C     C_2   0.221420 0.769524 0.557221 -0.201501
C26   C     C_2   0.309462 0.796160 0.613976 -0.302698
C27   C     C_2   0.169897 0.702419 0.446768 -0.037738
C28   C     C_R   0.860842 0.361894 0.722722 0.868047
C29   C     C_2   0.191858 0.704060 0.386974 -0.163817
C30   C     C_R   0.638061 0.138118 0.277067 0.864700
C31   C     C_R   0.362027 0.860150 0.723359 0.883027
C32   C     C_R   0.639172 0.861990 0.000897 0.863958
C33   C     C_R   0.361528 0.138367 0.001674 0.819469
C34   C     C_R   0.838648 0.281497 0.066845 0.076176
C35   C     C_R   0.360916 0.857948 0.998033 0.819877
C36   C     C_R   0.639086 0.139821 0.999150 0.812130
C37   C     C_R   0.138874 0.639738 0.999439 0.848798
C38   C     C_R   0.859310 0.360203 0.999246 0.809327
C39   C     C_R   0.931578 0.312042 0.138513 -0.158792
C40   C     C_R   0.969534 0.289277 0.207906 -0.166255
C41   C     C_R   0.916330 0.235463 0.207770 0.067045
C42   C     C_1   0.833664 0.737220 0.905847 0.242853
C43   C     C_1   0.764281 0.427475 0.596292 0.245922
C44   C     C_1   0.227154 0.152814 0.998039 0.197219
C45   C     C_R   0.691879 0.196078 0.995975 -0.138039
C46   C     C_1   0.349676 0.729627 0.008032 0.199949
C47   C     C_1   0.077617 0.657649 0.829335 0.258796
C48   C     C_1   0.094992 0.633247 0.405688 0.213616
C49   C     C_1   0.262296 0.776587 0.425636 0.189692
C50   C     C_1   0.955607 0.211889 0.279562 0.146117
C51   C     C_1   0.492059 0.136413 0.844871 0.142916
C52   C     C_1   0.710422 0.355733 0.845668 0.138473
C53   C     C_R   0.650987 0.219434 0.924633 0.016715
C54   C     C_R   0.706166 0.274812 0.924784 0.017662
C55   C     C_R   0.799906 0.304497 0.996263 -0.140815
C56   C     C_R   0.556678 0.190172 0.852906 0.019487
H1    H     H_    0.541914 0.284764 0.730594 0.151274
H2    H     H_    0.808149 0.239690 0.577622 0.151134
H3    H     H_    0.313997 0.405357 0.119494 0.186553
H4    H     H_    0.976265 0.353993 0.142112 0.126405
H5    H     H_    0.158180 0.237484 0.922704 0.167447
H6    H     H_    0.191039 0.815160 0.912197 0.186965
H7    H     H_    0.255490 0.744187 0.075898 0.158962
H8    H     H_    0.040660 0.313767 0.261758 0.144287
H9    H     H_    0.785921 0.162616 0.140418 0.121694
H10   H     H_    0.449391 0.191859 0.730281 0.153003
H11   H     H_    0.723616 0.800706 0.067002 0.158573
H12   H     H_    0.768537 0.690991 0.028936 0.152623
H13   H     H_    0.700116 0.312487 0.402172 0.184878
H14   H     H_    0.397187 0.306392 0.068207 0.178726
H15   H     H_    0.186290 0.792782 0.592632 0.188516
H16   H     H_    0.344583 0.767643 0.579840 0.166914
H17   H     H_    0.703159 0.800675 0.890274 0.185160
H18   H     H_    0.699284 0.156444 0.423000 0.158046
N1    N     N_1   0.869190 0.738606 0.869325 -0.173428
N2    N     N_1   0.746060 0.401451 0.838714 -0.211767
N3    N     N_1   0.763618 0.499426 0.630403 -0.172995
N4    N     N_1   0.164548 0.121151 0.986003 -0.194347
N5    N     N_1   0.383041 0.682652 0.026904 -0.190505
N6    N     N_1   0.009115 0.616273 0.752046 -0.178488
N7    N     N_1   0.035267 0.577990 0.372977 -0.187190
N8    N     N_1   0.318300 0.834370 0.456151 -0.189869
N9    N     N_1   0.987131 0.192938 0.337240 -0.195467
N10   N     N_1   0.439532 0.093529 0.837563 -0.207029
O1    O     O_3   0.000000 0.500000 0.000000 -0.501108
O2    O     O_R   0.325040 0.054120 0.939900 -0.631040
O3    O     O_R   0.444330 0.884140 0.060080 -0.639706
O4    O     O_R   0.054210 0.325030 0.939940 -0.640751
O5    O     O_R   0.615830 0.175840 0.060080 -0.633098
O6    O     O_R   0.324160 0.884140 0.939910 -0.647338
O7    O     O_R   0.615850 0.055700 0.939930 -0.629811
O8    O     O_R   0.614980 0.885710 0.939940 -0.644373
O9    O     O_R   0.445830 0.174930 0.060060 -0.639870
O10   O     O_R   0.614300 0.054120 0.229160 -0.642997
O11   O     O_R   0.325070 0.885060 0.770830 -0.636920
O12   O     O_R   0.054160 0.614240 0.229150 -0.635599
O13   O     O_R   0.885070 0.614240 0.060060 -0.633176
O14   O     O_R   0.174980 0.614900 0.229170 -0.635822
O15   O     O_R   0.885740 0.445830 0.770840 -0.627034
O16   O     O_R   0.175880 0.615810 0.060090 -0.635209
O17   O     O_R   0.884210 0.324110 0.939920 -0.629504
O18   O     O_R   0.055710 0.615810 0.939920 -0.636701
O19   O     O_R   0.884190 0.444260 0.060070 -0.627827
O20   O     O_R   0.885120 0.325030 0.770840 -0.634190
O21   O     O_R   0.175010 0.445830 0.060100 -0.640886
O22   O     O_R   0.885710 0.614900 0.939900 -0.627170
O23   O     O_3   0.500040 0.999960 0.000000 -0.495335
O24   O     O_R   0.614930 0.174930 0.229160 -0.643057
O25   O     O_R   0.445880 0.885710 0.770850 -0.636639
O26   O     O_R   0.614330 0.885060 0.060100 -0.642612
Zn1   Zn    Zn3+2 0.956610 0.542450 0.085830 0.997758
Zn2   Zn    Zn3+2 0.129220 0.543380 0.085850 0.977782
Zn3   Zn    Zn3+2 0.957530 0.543380 0.914160 1.009830
Zn4   Zn    Zn3+2 0.956640 0.370790 0.914170 0.993380
Zn5   Zn    Zn3+2 0.543440 0.957510 0.914170 0.991018
Zn6   Zn    Zn3+2 0.542510 0.956570 0.085840 0.979901
Zn7   Zn    Zn3+2 0.370820 0.956570 0.914150 0.990168
Zn8   Zn    Zn3+2 0.543410 0.129170 0.085830 0.985756

loop_
_geom_bond_atom_site_label_1
_geom_bond_atom_site_label_2
_ccdc_geom_bond_type
C36   O5    A    
C27   C48   S    
C15   C18   S    
C23   C45   A    
C27   C29   D    
C26   H16   S    
O1    Zn2   S    
C29   C49   S    
C53   C54   A    
O11   Zn7   S    
C12   C23   A    
C42   N1    T    
C38   O19   A    
C32   O26   A    
O1    Zn4   S    
C8    C42   S    
C18   C19   D    
C38   O17   A    
C46   N5    T    
O13   Zn1   S    
O25   Zn5   S    
C48   N7    T    
O19   Zn1   S    
C51   C56   S    
C35   O3    A    
C38   C55   S    
C11   C30   S    
C8    C9    D    
C5    C52   S    
C25   H15   S    
O23   Zn8   S    
C1    O4    A    
C22   C47   S    
C45   C53   A    
C34   C55   A    
C13   C14   D    
C20   H6    S    
O17   Zn4   S    
C17   C33   S    
C47   N6    T    
C50   N9    T    
C14   H2    S    
O12   Zn1   S    
C16   O12   A    
C1    C19   S    
O22   Zn3   S    
C34   C39   A    
O6    Zn7   S    
O24   Zn8   S    
C5    C54   A    
O14   Zn2   S    
C39   C40   A    
O10   Zn6   S    
C6    C8    S    
C3    C5    A    
C16   C29   S    
C4    O22   A    
C10   C13   S    
C49   N8    T    
C33   O2    A    
C10   H13   S    
C12   C41   A    
C28   O20   A    
C23   C34   A    
C24   C37   S    
C31   O25   A    
C36   C45   S    
C20   C21   D    
O23   Zn5   S    
O3    Zn6   S    
O20   Zn4   S    
C3    H1    S    
C28   O15   A    
C40   C41   A    
O21   Zn2   S    
C20   C22   S    
O16   Zn2   S    
C24   H7    S    
C22   C24   D    
C25   C27   S    
O9    Zn8   S    
O26   Zn6   S    
C41   C50   S    
C13   C43   S    
C36   O7    A    
C6    H17   S    
C21   C46   S    
C53   C56   A    
C15   C17   D    
C15   H14   S    
C54   C55   A    
C7    C32   S    
C30   O24   A    
C52   N2    T    
C11   H18   S    
C33   O9    A    
O15   Zn3   S    
C2    H10   S    
C6    C7    D    
C21   C35   S    
C43   N3    T    
C12   H9    S    
C40   H8    S    
C44   N4    T    
C2    C3    A    
C25   C26   D    
C17   C44   S    
C30   O10   A    
O18   Zn3   S    
C2    C56   A    
C16   O14   A    
C37   O18   A    
C19   H5    S    
C31   O11   A    
C39   H4    S    
O1    Zn3   S    
O7    Zn5   S    
O2    Zn7   S    
O4    Zn4   S    
O8    Zn5   S    
O23   Zn6   S    
C9    H12   S    
C10   C11   D    
C32   O8    A    
C7    H11   S    
C35   O6    A    
O1    Zn1   S    
C18   H3    S    
C26   C31   S    
O5    Zn8   S    
C14   C28   S    
C4    C9    S    
C4    O13   A    
C51   N10   T    
O23   Zn7   S    
C37   O16   A    
C1    O21   A    
