data_mof_unit_31222.cif
_audit_creation_date              2013-03-05T15:51:15-0500
_audit_creation_method            fapswitch 2.2
_symmetry_space_group_name_H-M    P1
_symmetry_Int_Tables_number       1
_space_group_crystal_system       triclinic
_cell_length_a                    19.800088
_cell_length_b                    11.357965
_cell_length_c                    18.324617
_cell_angle_alpha                 90.04807
_cell_angle_beta                  87.926967
_cell_angle_gamma                 90.169356
_cell_volume                      4118.28324797

loop_
_atom_site_label
_atom_site_type_symbol
_atom_site_description
_atom_site_fract_x
_atom_site_fract_y
_atom_site_fract_z
_atom_type_partial_charge
O1    O     O_R   0.787520 0.042810 0.170440 -0.336818
O2    O     O_R   0.212480 0.042810 0.829560 -0.342431
O3    O     O_R   0.287520 0.542810 0.170440 -0.341101
O4    O     O_R   0.712480 0.542810 0.829560 -0.341819
O5    O     O_R   0.765640 0.292100 0.175020 -0.478283
O6    O     O_R   0.234360 0.292100 0.824980 -0.525378
O7    O     O_R   0.265640 0.792100 0.175020 -0.525433
O8    O     O_R   0.734360 0.792100 0.824980 -0.479143
C1    C     C_R   0.733479 0.386154 0.149276 0.522562
C2    C     C_R   0.266155 0.385049 0.849923 0.536224
C3    C     C_R   0.233894 0.885001 0.150076 0.532673
C4    C     C_R   0.766566 0.886232 0.850728 0.520107
O9    O     O_R   0.670190 0.408840 0.168540 -0.482625
O10   O     O_R   0.329810 0.408840 0.831460 -0.441033
O11   O     O_R   0.170190 0.908840 0.168540 -0.440256
O12   O     O_R   0.829810 0.908840 0.831460 -0.481103
O13   O     O_R   0.556620 0.251410 0.175160 -0.433787
O14   O     O_R   0.443380 0.251410 0.824840 -0.413928
O15   O     O_R   0.056620 0.751410 0.175160 -0.416054
O16   O     O_R   0.943380 0.751410 0.824840 -0.431297
C5    C     C_R   0.530959 0.155347 0.149066 0.578517
C6    C     C_R   0.465000 0.155474 0.854584 0.598150
C7    C     C_R   0.035033 0.655299 0.145401 0.592039
C8    C     C_R   0.969037 0.655568 0.850953 0.588787
O17   O     O_R   0.545960 0.049620 0.170320 -0.536889
O18   O     O_R   0.454040 0.049620 0.829680 -0.527703
O19   O     O_R   0.045960 0.549620 0.170320 -0.529996
O20   O     O_R   0.954040 0.549620 0.829680 -0.538073
O21   O     O_R   0.681390 0.958010 0.176690 -0.518049
O22   O     O_R   0.318610 0.958010 0.823310 -0.508751
O23   O     O_R   0.181390 0.458010 0.176690 -0.506480
O24   O     O_R   0.818610 0.458010 0.823310 -0.519634
C9    C     C_R   0.727484 0.026146 0.140660 0.584991
C10   C     C_R   0.271525 0.021529 0.860655 0.572302
C11   C     C_R   0.228508 0.521571 0.139342 0.569970
C12   C     C_R   0.772567 0.526060 0.859338 0.588261
O25   O     O_R   0.787510 0.044390 0.330970 -0.507359
O26   O     O_R   0.212490 0.044390 0.669030 -0.468338
O27   O     O_R   0.287510 0.544390 0.330970 -0.436489
O28   O     O_R   0.712490 0.544390 0.669030 -0.513195
O29   O     O_R   0.765630 0.293570 0.323840 -0.500355
O30   O     O_R   0.234370 0.293570 0.676160 -0.530465
O31   O     O_R   0.265630 0.793570 0.323840 -0.523659
O32   O     O_R   0.734370 0.793570 0.676160 -0.520136
C13   C     C_R   0.728876 0.378484 0.350772 0.556167
C14   C     C_R   0.270554 0.380631 0.649787 0.525396
C15   C     C_R   0.229899 0.882208 0.349144 0.536054
C16   C     C_R   0.770995 0.878888 0.649443 0.522538
O33   O     O_R   0.670190 0.410420 0.329080 -0.516966
O34   O     O_R   0.329810 0.410420 0.670920 -0.525169
O35   O     O_R   0.170190 0.910420 0.329080 -0.514448
O36   O     O_R   0.829810 0.910420 0.670920 -0.517537
O37   O     O_R   0.556610 0.252880 0.323980 -0.475660
O38   O     O_R   0.443390 0.252880 0.676020 -0.482998
O39   O     O_R   0.056610 0.752880 0.323980 -0.494709
O40   O     O_R   0.943390 0.752880 0.676020 -0.476143
C17   C     C_R   0.531614 0.155786 0.351817 0.565061
C18   C     C_R   0.436161 0.152280 0.640701 0.557589
C19   C     C_R   0.031833 0.656033 0.351879 0.556589
C20   C     C_R   0.935949 0.651708 0.640705 0.562476
O41   O     O_R   0.545950 0.051210 0.330860 -0.494806
O42   O     O_R   0.454050 0.051210 0.669140 -0.475386
O43   O     O_R   0.045950 0.551210 0.330860 -0.509976
O44   O     O_R   0.954050 0.551210 0.669140 -0.464846
O45   O     O_R   0.681390 0.959480 0.325510 -0.513065
O46   O     O_R   0.318610 0.959480 0.674490 -0.523463
O47   O     O_R   0.181390 0.459480 0.325510 -0.500675
O48   O     O_R   0.818610 0.459480 0.674490 -0.523469
C21   C     C_R   0.738798 0.978898 0.355936 0.576287
C22   C     C_R   0.262899 0.985198 0.641551 0.569440
C23   C     C_R   0.227539 0.519809 0.361340 0.554857
C24   C     C_R   0.759414 0.474662 0.645751 0.560986
Cr1   Cr    Cr6+3 0.772010 0.169670 0.250090 1.101490
Cr2   Cr    Cr6+3 0.227990 0.169670 0.749910 1.067204
Cr3   Cr    Cr6+3 0.272010 0.669670 0.250090 1.096244
Cr4   Cr    Cr6+3 0.727990 0.669670 0.749910 1.083749
Cr5   Cr    Cr6+3 0.615000 0.323260 0.249260 1.112444
Cr6   Cr    Cr6+3 0.385000 0.323260 0.750740 1.124119
Cr7   Cr    Cr6+3 0.115000 0.823260 0.249260 1.125241
Cr8   Cr    Cr6+3 0.885000 0.823260 0.750740 1.110856
Cr9   Cr    Cr6+3 0.616710 0.010760 0.250840 1.053129
Cr10  Cr    Cr6+3 0.383290 0.010760 0.749160 1.045330
Cr11  Cr    Cr6+3 0.116710 0.510760 0.250840 1.051321
Cr12  Cr    Cr6+3 0.883290 0.510760 0.749160 1.039134
O49   O     O_3   0.667900 0.167900 0.250060 -0.338663
O50   O     O_3   0.332100 0.167900 0.749940 -0.359780
O51   O     O_3   0.167900 0.667900 0.250060 -0.355046
O52   O     O_3   0.832100 0.667900 0.749940 -0.355712
H1    H     H_    0.478403 0.981148 0.072363 0.133222
H2    H     H_    0.488980 0.978271 0.942843 0.132892
H3    H     H_    0.011590 0.478159 0.056610 0.132920
H4    H     H_    0.022001 0.481686 0.927094 0.132434
C25   C     C_R   0.490946 0.166897 0.928881 0.025353
C26   C     C_R   0.492429 0.167109 0.082474 0.035956
C27   C     C_R   0.007667 0.667609 0.917495 0.034665
C28   C     C_R   0.009194 0.666605 0.071081 0.028359
C29   C     C_R   0.495991 0.277055 0.966414 -0.021403
C30   C     C_R   0.488828 0.276246 0.046139 -0.015561
C31   C     C_R   0.011198 0.776614 0.954136 -0.017032
C32   C     C_R   0.004039 0.776881 0.033832 -0.019441
C33   C     C_R   0.483197 0.063937 0.043988 -0.151605
C34   C     C_R   0.488875 0.062852 0.969270 -0.158059
C35   C     C_R   0.011530 0.562813 0.030404 -0.157478
C36   C     C_R   0.017144 0.564342 0.955681 -0.151897
C37   C     C_R   0.507658 0.387731 0.929463 0.297216
C38   C     C_R   0.483771 0.384706 0.086510 0.282595
C39   C     C_R   0.016259 0.885427 0.914162 0.278314
C40   C     C_R   0.992403 0.887255 0.071053 0.301016
C41   C     C_R   0.999118 0.984573 0.952116 -0.008647
C42   C     C_R   0.995147 0.987571 0.028245 0.071631
C43   C     C_R   0.504964 0.487721 0.972673 0.071345
C44   C     C_R   0.500884 0.484282 0.048846 -0.006865
H5    H     H_    0.992002 0.062753 0.920582 0.158546
H6    H     H_    0.989907 0.071612 0.054462 0.190948
H7    H     H_    0.510282 0.571956 0.946770 0.191759
H8    H     H_    0.508105 0.562361 0.080608 0.159007
C45   C     C_R   0.733519 0.973935 0.906693 -0.026345
C46   C     C_R   0.271362 0.967255 0.096020 -0.000883
C47   C     C_R   0.228936 0.467147 0.904041 -0.001761
C48   C     C_R   0.766753 0.473932 0.093354 -0.021990
C49   C     C_R   0.672130 0.963712 0.947776 -0.020725
C50   C     C_R   0.327944 0.939800 0.051201 -0.024236
C51   C     C_R   0.172174 0.439630 0.948686 -0.024273
C52   C     C_R   0.828050 0.463794 0.052163 -0.017706
C53   C     C_R   0.666376 0.997120 0.022533 -0.044868
C54   C     C_R   0.330639 0.968389 0.976094 -0.034943
C55   C     C_R   0.169411 0.468214 0.023813 -0.034371
C56   C     C_R   0.833758 0.497055 0.977402 -0.046085
C57   C     C_R   0.773792 0.085577 0.009352 0.219888
C58   C     C_R   0.229035 0.073432 0.996500 0.205055
C59   C     C_R   0.271444 0.573247 0.003799 0.204720
C60   C     C_R   0.726673 0.585497 0.990859 0.219907
C61   C     C_R   0.772035 0.066481 0.932406 -0.079874
C62   C     C_R   0.240670 0.068497 0.072461 -0.075938
C63   C     C_R   0.260065 0.568183 0.927793 -0.076940
C64   C     C_R   0.728568 0.566561 0.067802 -0.078830
C65   C     C_3   0.636275 0.856980 0.965024 -0.195557
C66   C     C_3   0.358020 0.826663 0.037087 -0.222605
C67   C     C_3   0.141784 0.326389 0.962623 -0.226173
C68   C     C_3   0.863695 0.357205 0.034934 -0.192807
C69   C     C_3   0.628695 0.889443 0.043237 -0.218758
C70   C     C_3   0.358517 0.851413 0.956609 -0.200795
C71   C     C_3   0.141210 0.351150 0.043130 -0.200195
C72   C     C_3   0.871177 0.389431 0.956669 -0.219826
C73   C     C_R   0.722153 0.040616 0.057975 -0.008336
C74   C     C_R   0.276145 0.023163 0.944057 0.001210
C75   C     C_R   0.224018 0.523016 0.056003 0.000077
C76   C     C_R   0.778049 0.540497 0.942067 -0.007080
H9    H     H_    0.812974 0.096691 0.896492 0.191945
H10   H     H_    0.206196 0.109783 0.111728 0.179191
H11   H     H_    0.294833 0.609263 0.888648 0.179271
H12   H     H_    0.687856 0.596921 0.103860 0.192339
H13   H     H_    0.179528 0.261195 0.944969 0.210773
H14   H     H_    0.822688 0.293351 0.041369 0.222349
H15   H     H_    0.677241 0.793375 0.958866 0.223828
H16   H     H_    0.320144 0.761475 0.054857 0.210406
H17   H     H_    0.587863 0.852992 0.936523 0.152748
H18   H     H_    0.408890 0.827778 0.059997 0.124239
H19   H     H_    0.090944 0.327287 0.939554 0.121410
H20   H     H_    0.912155 0.353593 0.063327 0.155048
H21   H     H_    0.576169 0.903569 0.061773 0.158524
H22   H     H_    0.409508 0.852827 0.930170 0.161402
H23   H     H_    0.090188 0.352327 0.069482 0.160384
H24   H     H_    0.923723 0.403767 0.938025 0.158398
H25   H     H_    0.656764 0.827789 0.078111 0.187436
H26   H     H_    0.321551 0.797088 0.927328 0.174262
H27   H     H_    0.178005 0.296934 0.072435 0.175653
H28   H     H_    0.842903 0.327563 0.921878 0.186233
C77   C     C_R   0.449680 0.157516 0.563792 0.027581
C78   C     C_R   0.491059 0.159416 0.417864 0.038413
C79   C     C_R   0.949890 0.656423 0.563863 0.034163
C80   C     C_R   0.992043 0.662380 0.418143 0.047784
C81   C     C_R   0.457097 0.052307 0.525609 -0.055591
C82   C     C_R   0.474615 0.052262 0.452632 0.015081
C83   C     C_R   0.943801 0.555011 0.520828 -0.037189
C84   C     C_R   0.964062 0.559243 0.448211 0.038142
C85   C     C_R   0.482544 0.265477 0.455484 -0.065022
C86   C     C_R   0.459310 0.264758 0.527585 -0.066786
C87   C     C_R   0.995660 0.763528 0.460581 -0.078322
C88   C     C_R   0.972490 0.761768 0.532054 -0.085940
C89   C     C_3   0.502104 0.949772 0.542047 -0.065763
C90   C     C_3   0.520727 0.947503 0.461630 -0.058312
C91   C     C_3   0.972738 0.432128 0.529452 -0.070590
C92   C     C_3   0.996500 0.440002 0.450511 -0.056252
H29   H     H_    0.498863 0.347978 0.431502 0.139315
H30   H     H_    0.455746 0.347138 0.556467 0.144253
H31   H     H_    0.019923 0.842432 0.440224 0.151508
H32   H     H_    0.978683 0.840515 0.563639 0.148527
H33   H     H_    0.934086 0.363326 0.539365 0.111434
H34   H     H_    0.052185 0.445257 0.443394 0.124460
H35   H     H_    0.472751 0.872284 0.562668 0.147842
H36   H     H_    0.574453 0.968996 0.448724 0.132637
C93   C     C_R   0.749205 0.928887 0.582347 0.054375
C94   C     C_R   0.253758 0.944605 0.412380 0.046791
C95   C     C_R   0.245655 0.440573 0.586116 0.061465
C96   C     C_R   0.749402 0.425716 0.419199 0.058344
C97   C     C_R   0.788028 0.015567 0.546831 0.014521
C98   C     C_R   0.211625 0.024640 0.449990 0.009531
C99   C     C_R   0.278826 0.539264 0.555793 0.030261
C100  C     C_R   0.709481 0.509334 0.455411 -0.004849
C101  C     C_R   0.783862 0.028866 0.472782 0.011697
C102  C     C_R   0.215304 0.034412 0.524345 -0.002788
C103  C     C_R   0.271928 0.565213 0.482517 0.005132
C104  C     C_R   0.711125 0.518677 0.529634 0.004120
C105  C     C_R   0.696096 0.881201 0.468774 -0.144357
C106  C     C_R   0.314299 0.912733 0.523314 -0.159827
C107  C     C_R   0.187432 0.413225 0.472975 -0.110265
C108  C     C_R   0.797435 0.370192 0.534225 -0.157863
C109  C     C_R   0.699673 0.868367 0.543678 -0.113054
C110  C     C_R   0.311133 0.903719 0.447311 -0.141903
C111  C     C_R   0.196276 0.384026 0.545573 -0.085300
C112  C     C_R   0.797590 0.363644 0.458552 -0.125642
C113  C     C_3   0.863400 0.032089 0.543106 -0.248690
C114  C     C_3   0.136212 0.041442 0.453380 -0.240954
C115  C     C_3   0.352717 0.568739 0.552676 -0.248756
C116  C     C_3   0.634863 0.532379 0.455010 -0.249036
C117  C     C_3   0.858727 0.044274 0.461584 -0.065040
C118  C     C_3   0.140478 0.048159 0.535541 -0.066290
C119  C     C_3   0.346704 0.585571 0.471471 -0.068927
C120  C     C_3   0.636589 0.542560 0.537141 -0.054572
C121  C     C_R   0.741148 0.957280 0.432613 0.064810
C122  C     C_R   0.261955 0.969311 0.563152 0.040794
C123  C     C_R   0.228154 0.500038 0.439539 0.037946
C124  C     C_R   0.752170 0.445043 0.570486 0.061090
H37   H     H_    0.660837 0.828015 0.439133 0.132300
H38   H     H_    0.355150 0.870694 0.550722 0.122737
H39   H     H_    0.153864 0.359336 0.441705 0.132191
H40   H     H_    0.830024 0.313818 0.564637 0.121417
H41   H     H_    0.667598 0.803774 0.570232 0.157106
H42   H     H_    0.349126 0.854262 0.417154 0.172095
H43   H     H_    0.168871 0.309576 0.567610 0.131968
H44   H     H_    0.829988 0.300470 0.431825 0.160446
H45   H     H_    0.891378 0.953415 0.559479 0.165680
H46   H     H_    0.106813 0.964972 0.434804 0.180484
H47   H     H_    0.386546 0.496000 0.567000 0.169390
H48   H     H_    0.604036 0.456808 0.436689 0.174494
H49   H     H_    0.879148 0.114741 0.570263 0.144347
H50   H     H_    0.121532 0.126530 0.428633 0.164404
H51   H     H_    0.363104 0.652214 0.581990 0.141758
H52   H     H_    0.624338 0.616986 0.427478 0.157803
H53   H     H_    0.874200 0.132149 0.441893 0.135786
H54   H     H_    0.125032 0.134748 0.558038 0.141219
H55   H     H_    0.360592 0.675009 0.453258 0.130107
H56   H     H_    0.624336 0.632214 0.556701 0.148375
C125  C     C_2   0.561531 0.979329 0.588633 0.596986
O53   O     O_2   0.597244 0.065179 0.574701 -0.479410
O54   O     O_R   0.573518 0.909953 0.649776 -0.670515
H57   H     H_    0.612781 0.940137 0.678559 0.345687
C126  C     C_2   0.498821 0.836008 0.425194 0.536358
O55   O     O_2   0.472290 0.838700 0.366001 -0.487746
O56   O     O_R   0.512727 0.728651 0.458345 -0.746124
H58   H     H_    0.501431 0.659057 0.426791 0.369385
C127  C     C_2   0.030987 0.420339 0.579826 0.590206
O57   O     O_2   0.072411 0.499851 0.584727 -0.489439
O58   O     O_R   0.035459 0.319591 0.623087 -0.691693
H59   H     H_    0.074666 0.323094 0.657114 0.335528
C128  C     C_2   0.967401 0.350782 0.399723 0.544433
O59   O     O_2   0.928124 0.380635 0.353167 -0.495803
O60   O     O_R   0.990380 0.234974 0.402220 -0.716476
H60   H     H_    0.973233 0.186277 0.360431 0.369432
C129  C     C_2   0.891111 0.946527 0.417099 0.579724
O61   O     O_2   0.869358 0.845695 0.421805 -0.520118
O62   O     O_R   0.943411 0.973529 0.366915 -0.720670
H61   H     H_    0.957613 0.903136 0.336240 0.376922
C130  C     C_2   0.107450 0.946576 0.575695 0.586801
O63   O     O_2   0.121201 0.844801 0.558968 -0.508740
O64   O     O_R   0.062331 0.970257 0.633897 -0.646131
H62   H     H_    0.045593 0.895490 0.658371 0.395458
C131  C     C_2   0.380796 0.489522 0.426776 0.591829
O65   O     O_2   0.362555 0.387111 0.434394 -0.517421
O66   O     O_R   0.428049 0.519452 0.371600 -0.690233
H63   H     H_    0.444132 0.448456 0.342589 0.383906
C132  C     C_2   0.596284 0.449674 0.578067 0.579362
O67   O     O_2   0.606924 0.344927 0.567155 -0.475880
O68   O     O_R   0.546773 0.485365 0.629393 -0.695989
H64   H     H_    0.525346 0.416622 0.656537 0.377980
S1    S     S_3+6 0.534659 0.411648 0.833450 0.073200
O69   O     O_2   0.564399 0.301479 0.799924 -0.269765
O70   O     O_2   0.473971 0.451922 0.793247 -0.265644
O71   O     O_3   0.590879 0.513777 0.812353 -0.428445
H65   H     H_    0.593230 0.517774 0.758353 0.386403
S2    S     S_3+6 0.458877 0.406611 0.183237 0.062786
O72   O     O_2   0.429335 0.295606 0.215887 -0.260808
O73   O     O_2   0.520940 0.441611 0.223113 -0.305007
O74   O     O_3   0.404682 0.513685 0.205693 -0.398287
H66   H     H_    0.432215 0.583175 0.218663 0.351336
S3    S     S_3+6 0.040844 0.908221 0.817520 0.073481
O75   O     O_2   0.070239 0.797377 0.784775 -0.248365
O76   O     O_2   0.978408 0.942612 0.778348 -0.291663
O77   O     O_3   0.094835 0.015849 0.794234 -0.395085
H67   H     H_    0.067202 0.084765 0.781020 0.345250
S4    S     S_3+6 0.965181 0.910584 0.166898 0.064588
O78   O     O_2   0.935392 0.800225 0.200340 -0.277591
O79   O     O_2   0.025690 0.951731 0.207457 -0.277086
O80   O     O_3   0.908377 0.011850 0.186703 -0.424709
H68   H     H_    0.913982 0.033401 0.238449 0.373978
S5    S     S_3+6 0.854836 0.084682 0.036424 -0.066089
O81   O     O_2   0.865482 0.955342 0.047157 -0.273101
O82   O     O_2   0.897615 0.135059 0.975113 -0.445883
O83   O     O_3   0.870275 0.163904 0.111919 -0.487022
H69   H     H_    0.919260 0.180920 0.110947 0.346946
S6    S     S_3+6 0.145208 0.046388 0.987130 -0.059400
O84   O     O_2   0.136850 0.914973 0.989276 -0.291994
O85   O     O_2   0.107096 0.102433 0.050410 -0.393365
O86   O     O_3   0.118728 0.101266 0.909552 -0.504983
H70   H     H_    0.079919 0.151048 0.922142 0.320323
S7    S     S_3+6 0.355251 0.547329 0.013808 -0.058808
O87   O     O_2   0.363477 0.415959 0.012136 -0.291744
O88   O     O_2   0.393549 0.602997 0.950451 -0.393186
O89   O     O_3   0.381693 0.603526 0.091286 -0.504978
H71   H     H_    0.421025 0.652469 0.078622 0.320956
S8    S     S_3+6 0.645583 0.583987 0.964081 -0.066515
O90   O     O_2   0.634676 0.454598 0.953248 -0.276562
O91   O     O_2   0.603037 0.634192 0.025564 -0.445821
O92   O     O_3   0.630120 0.662932 0.888698 -0.482525
H72   H     H_    0.581199 0.679924 0.889873 0.350642

loop_
_geom_bond_atom_site_label_1
_geom_bond_atom_site_label_2
_geom_bond_distance
_ccdc_geom_bond_type
O4    C12   1.340859 A    
O25   C21   1.287352 A    
C58   C74   1.434224 A    
C45   C61   1.388841 A    
Cr7   O51   2.055023 S    
S2    O72   1.503758 D    
C83   C91   1.520816 S    
C90   C126  1.501292 S    
O39   C19   1.300620 A    
C112  H44   1.070340 S    
C89   C125  1.515211 S    
O66   H63   1.011334 S    
C24   C124  1.431503 S    
O21   C9    1.349389 A    
C1    O9    1.315698 A    
O44   Cr12  2.042758 S    
C3    O11   1.322796 A    
C12   C76   1.532385 S    
C4    O12   1.313373 A    
C106  H38   1.080068 S    
S3    O76   1.504542 D    
C57   C73   1.425430 A    
C29   C37   1.442362 A    
O2    C10   1.341626 A    
C67   H19   1.105877 S    
C125  O53   1.224430 D    
C72   H24   1.095023 S    
O17   Cr9   2.118627 S    
C58   C62   1.420258 A    
C90   H36   1.107938 S    
C113  H45   1.100358 S    
C91   H33   1.102723 S    
C71   H23   1.103956 S    
C64   H12   1.080760 S    
O31   Cr3   1.951465 S    
O16   Cr8   1.991708 S    
Cr12  O52   2.054897 S    
O62   H61   1.011641 S    
C6    C25   1.477916 S    
O13   C5    1.300263 A    
O28   Cr4   2.083818 S    
O12   Cr8   2.052757 S    
O22   Cr10  1.927764 S    
O15   C7    1.298004 A    
C91   C92   1.507526 S    
O6    C2    1.317518 A    
O46   Cr10  1.993143 S    
C83   C84   1.376701 A    
C108  C112  1.388506 A    
C115  H47   1.102926 S    
C55   C71   1.478869 S    
C56   C72   1.473674 S    
C57   C61   1.428066 A    
C80   C87   1.389878 A    
C131  O66   1.394095 S    
C114  C118  1.512831 S    
C115  H51   1.111627 S    
C98   C114  1.504927 S    
O83   H69   0.987945 S    
C127  O58   1.397463 S    
C78   C82   1.406094 A    
C84   C92   1.501896 S    
H1    C33   1.077172 S    
C120  C132  1.505116 S    
C91   C127  1.509418 S    
H3    C35   1.075133 S    
C17   O41   1.277576 A    
C47   C51   1.400690 A    
C19   O43   1.279589 A    
C30   C38   1.438293 A    
C20   O44   1.311411 A    
S4    O79   1.505569 D    
Cr8   O52   2.049678 S    
C10   C74   1.534434 S    
O46   C22   1.310264 A    
C57   S5    1.696719 S    
C27   C31   1.410675 A    
H4    C36   1.077537 S    
C4    C45   1.557483 S    
C86   H30   1.075833 S    
C16   O36   1.292185 A    
C67   H13   1.094010 S    
C128  O60   1.394412 S    
O31   C15   1.307198 A    
O32   C16   1.294440 A    
C107  C123  1.399412 A    
C16   C93   1.435734 S    
C43   C44   1.395838 A    
C101  C121  1.399333 A    
C82   C90   1.514648 S    
C29   C30   1.462711 A    
O5    C1    1.340087 A    
C126  O55   1.222625 D    
C99   C115  1.498983 S    
O24   C12   1.350607 A    
C114  H50   1.111774 S    
C127  O57   1.223600 D    
C63   H11   1.081239 S    
C94   C110  1.404340 A    
C51   C67   1.437504 S    
O8    Cr4   1.962198 S    
S8    O90   1.498823 D    
C65   H15   1.090530 S    
C128  O59   1.223762 D    
C46   C50   1.400725 A    
C49   C65   1.432751 S    
O32   Cr4   1.952561 S    
C106  C110  1.400051 A    
H2    C34   1.075442 S    
C2    C47   1.531565 S    
C67   C71   1.501241 S    
O11   Cr7   2.050873 S    
C53   C69   1.473500 S    
C98   C102  1.371486 A    
C59   C75   1.433590 A    
O27   Cr3   2.086753 S    
O3    Cr3   2.065765 S    
C42   H6    1.071871 S    
C21   C121  1.429013 S    
C46   C62   1.379085 A    
O8    C4    1.337622 A    
C13   C96   1.435155 S    
Cr5   O49   2.055023 S    
S1    O69   1.505590 D    
C107  C111  1.388654 A    
S5    O82   1.495489 D    
C95   C99   1.402460 A    
C37   C43   1.383966 A    
S6    O85   1.502529 D    
C32   C40   1.441798 A    
C117  C129  1.507679 S    
O22   C10   1.347208 A    
C116  H52   1.109512 S    
C18   C77   1.426234 S    
O71   H65   0.990004 S    
C2    O10   1.320339 A    
C109  H41   1.074154 S    
Cr2   O50   2.061563 S    
C38   S2    1.839400 S    
C96   C112  1.407844 A    
C39   S3    1.837885 S    
C49   C53   1.421862 A    
C70   H26   1.108839 S    
C66   H18   1.105194 S    
C51   C55   1.413326 A    
O3    C11   1.339579 A    
C60   C64   1.428294 A    
Cr1   O49   2.061446 S    
C130  O64   1.392820 S    
C71   H27   1.108986 S    
Cr3   O51   2.061446 S    
C85   C86   1.383236 A    
C92   H34   1.106997 S    
C25   C29   1.432221 A    
C44   H8    1.072404 S    
C17   C78   1.428658 S    
O26   Cr2   2.083818 S    
C5    O17   1.301234 A    
O27   C23   1.322168 A    
O28   C24   1.283555 A    
O14   C6    1.299340 A    
C20   C79   1.426091 S    
C116  C120  1.510965 S    
O64   H62   1.010117 S    
C108  C124  1.388527 A    
S2    O73   1.504528 D    
O40   Cr8   1.933774 S    
S8    O92   1.685288 S    
C65   H17   1.108883 S    
S7    O89   1.657570 S    
C102  C118  1.496935 S    
O41   Cr9   2.044067 S    
C68   H20   1.108793 S    
C40   S4    1.837644 S    
C94   C98   1.399699 A    
C106  C122  1.403015 A    
C28   C32   1.432599 A    
C132  O68   1.394619 S    
C40   C42   1.383675 A    
C118  H54   1.105743 S    
O5    Cr1   1.964361 S    
O35   Cr7   2.102471 S    
O29   Cr1   1.951465 S    
S2    O74   1.665748 S    
S1    O71   1.641978 S    
C1    C48   1.557931 S    
C77   C81   1.389697 A    
C3    C46   1.532524 S    
Cr9   O49   2.049707 S    
C80   C84   1.399264 A    
C18   O42   1.315890 A    
Cr11  O51   2.049707 S    
O26   C22   1.291824 A    
C33   C34   1.369765 A    
O20   Cr12  2.116385 S    
O68   H64   1.010176 S    
O56   H58   1.008318 S    
C89   C90   1.506267 S    
O47   Cr11  1.996025 S    
C111  H43   1.074508 S    
C104  C120  1.502716 S    
C87   H31   1.076180 S    
C26   C30   1.410770 A    
C85   H29   1.078981 S    
O77   H67   0.991517 S    
O30   C14   1.302386 A    
C59   S7    1.702590 S    
C88   H32   1.074056 S    
C105  H37   1.082458 S    
C52   C56   1.421851 A    
O42   Cr10  2.042758 S    
C81   C89   1.505750 S    
O92   H72   0.987719 S    
O18   Cr10  2.116385 S    
C131  O65   1.223539 D    
C58   S6    1.701827 S    
C99   C103  1.386602 A    
C39   C41   1.360455 A    
C114  H46   1.104510 S    
O34   Cr6   2.106664 S    
O6    Cr2   1.962198 S    
O24   Cr12  1.927764 S    
O30   Cr2   1.952561 S    
C78   C85   1.395073 A    
S7    O87   1.501597 D    
O48   Cr12  1.993143 S    
C8    O20   1.301408 A    
C50   C66   1.437203 S    
C66   C70   1.501180 S    
C8    C27   1.468724 S    
O80   H68   0.989144 S    
O37   C17   1.304127 A    
C56   C76   1.390991 A    
C15   O35   1.292068 A    
Cr10  O50   2.054897 S    
C54   C70   1.478744 S    
C47   C63   1.378631 A    
O40   C20   1.328754 A    
O43   Cr11  2.044067 S    
C48   C64   1.388837 A    
O37   Cr5   1.931898 S    
O21   Cr9   1.929408 S    
O74   H66   0.991524 S    
C115  C119  1.509460 S    
O39   Cr7   1.931898 S    
O45   Cr9   1.996025 S    
S3    O75   1.503864 D    
C13   O33   1.294581 A    
O13   Cr5   1.987971 S    
C110  H42   1.076442 S    
S3    O77   1.667153 S    
C103  C123  1.401444 A    
O15   Cr7   1.987971 S    
C107  H39   1.081332 S    
C125  O54   1.397994 S    
C116  H48   1.110523 S    
O23   C11   1.345586 A    
C19   C80   1.425239 S    
C97   C113  1.502692 S    
C65   C69   1.482053 S    
O89   H71   0.976699 S    
C69   H25   1.111918 S    
C52   C68   1.432384 S    
C68   C72   1.482562 S    
C25   C34   1.394610 A    
C70   H22   1.104016 S    
C31   C39   1.438589 A    
C113  H49   1.111245 S    
O1    Cr1   2.065765 S    
O19   Cr11  2.118627 S    
O29   C13   1.296408 A    
C41   C42   1.394808 A    
C89   H35   1.112116 S    
C129  O61   1.224382 D    
O45   C21   1.302204 A    
C22   C122  1.448559 S    
S8    O91   1.495748 D    
O47   C23   1.332113 A    
C117  H53   1.100459 S    
C87   C88   1.372128 A    
O86   H70   0.976173 S    
C6    O18   1.305965 A    
C28   C35   1.394216 A    
C35   C36   1.369880 A    
C53   C73   1.390562 A    
O36   Cr8   2.106664 S    
C108  H40   1.079794 S    
O38   Cr6   1.933774 S    
C69   H21   1.094579 S    
C37   S1    1.840389 S    
S5    O81   1.498838 D    
C102  C122  1.399310 A    
C15   C94   1.450655 S    
C96   C100  1.390162 A    
C54   C74   1.395094 A    
O1    C9    1.338692 A    
C14   C95   1.453550 S    
C38   C44   1.361034 A    
C81   C82   1.369335 A    
O7    C3    1.320195 A    
C120  H56   1.103998 S    
S6    O86   1.655801 S    
C72   H28   1.111913 S    
S4    O78   1.505114 D    
C59   C63   1.420005 A    
C5    C26   1.468719 S    
C62   H10   1.081389 S    
O58   H59   1.013810 S    
C118  C130  1.504139 S    
O23   Cr11  1.929408 S    
C7    C28   1.477869 S    
C45   C49   1.410962 A    
C100  C116  1.501485 S    
O16   C8    1.301450 A    
C26   C33   1.382264 A    
O33   Cr5   2.102471 S    
C97   C101  1.370903 A    
C7    O19   1.305997 A    
C130  O63   1.224555 D    
Cr4   O52   2.061563 S    
O2    Cr2   2.066207 S    
O48   C24   1.314099 A    
Cr6   O50   2.049678 S    
C104  C124  1.403357 A    
O9    Cr5   2.050873 S    
C126  O56   1.395352 S    
C23   C123  1.451129 S    
C60   C76   1.425459 A    
C61   H9    1.080767 S    
C129  O62   1.393464 S    
C113  C117  1.506566 S    
O7    Cr3   1.964361 S    
C79   C83   1.402737 A    
S7    O88   1.502472 D    
C50   C54   1.413437 A    
C95   C111  1.403003 A    
C100  C104  1.365713 A    
C93   C109  1.407811 A    
C31   C32   1.462139 A    
C105  C109  1.384812 A    
C132  O67   1.223849 D    
C11   C75   1.533045 S    
C60   S8    1.695832 S    
C9    C73   1.531663 S    
O14   Cr6   1.991708 S    
C119  C131  1.509771 S    
S1    O70   1.504581 D    
S5    O83   1.686367 S    
C79   C88   1.396699 A    
O60   H60   1.012212 S    
C77   C86   1.396800 A    
C27   C36   1.383014 A    
O38   C18   1.322654 A    
C66   H16   1.093668 S    
O25   Cr1   2.086753 S    
S6    O84   1.501657 D    
S4    O80   1.642261 S    
O54   H57   1.013842 S    
C41   H5    1.072252 S    
C14   O34   1.292784 A    
C92   C128  1.502906 S    
C103  C119  1.504288 S    
C101  C117  1.498850 S    
C93   C97   1.394315 A    
C105  C121  1.391089 A    
C119  H55   1.100558 S    
O10   Cr6   2.052757 S    
O4    Cr4   2.066207 S    
C55   C75   1.394989 A    
C43   H7    1.071579 S    
C48   C52   1.410840 A    
C68   H14   1.090368 S    
