data_mof_unit_14551.cif
_audit_creation_date              2013-03-05T15:41:57-0500
_audit_creation_method            fapswitch 2.2
_symmetry_space_group_name_H-M    P1
_symmetry_Int_Tables_number       1
_space_group_crystal_system       triclinic
_cell_length_a                    24.914706
_cell_length_b                    16.809039
_cell_length_c                    15.556594
_cell_angle_alpha                 89.996761
_cell_angle_beta                  50.238353
_cell_angle_gamma                 89.990961
_cell_volume                      5008.1430893

loop_
_atom_site_label
_atom_site_type_symbol
_atom_site_description
_atom_site_fract_x
_atom_site_fract_y
_atom_site_fract_z
_atom_type_partial_charge
C1    C     C_R   0.332646 0.105765 0.804963 -0.059250
C2    C     C_R   0.645166 0.851279 0.250341 -0.061478
C3    C     C_R   0.667349 0.105778 0.195056 -0.059349
C4    C     C_R   0.354884 0.851250 0.749512 -0.061487
C5    C     C_R   0.832641 0.605747 0.804969 -0.059223
C6    C     C_R   0.145099 0.351221 0.250549 -0.061475
C7    C     C_R   0.167355 0.605746 0.195035 -0.059255
C8    C     C_R   0.854910 0.351228 0.749456 -0.061442
H1    H     H_    0.281083 0.105214 0.829974 0.136346
H2    H     H_    0.689498 0.833099 0.243134 0.140758
H3    H     H_    0.718908 0.105242 0.170061 0.136340
H4    H     H_    0.310540 0.833111 0.756744 0.140668
H5    H     H_    0.781079 0.605172 0.829979 0.136297
H6    H     H_    0.189442 0.333069 0.243326 0.140774
H7    H     H_    0.218915 0.605186 0.170030 0.136457
H8    H     H_    0.810567 0.333082 0.756688 0.140755
N1    N     N_R   0.389620 0.081040 0.705440 -0.064169
N2    N     N_R   0.610380 0.918960 0.294560 -0.058607
N3    N     N_R   0.610380 0.081040 0.294560 -0.064199
N4    N     N_R   0.389620 0.918960 0.705440 -0.058604
N5    N     N_R   0.889620 0.581040 0.705440 -0.064172
N6    N     N_R   0.110380 0.418960 0.294560 -0.058605
N7    N     N_R   0.110380 0.581040 0.294560 -0.064189
N8    N     N_R   0.889620 0.418960 0.705440 -0.058601
C9    C     C_R   0.585297 0.150597 0.592029 0.325981
C10   C     C_R   0.384260 0.895995 0.407163 0.263242
C11   C     C_R   0.414748 0.150673 0.408039 0.326167
C12   C     C_R   0.616079 0.896506 0.592538 0.262089
C13   C     C_R   0.085133 0.650687 0.592025 0.325608
C14   C     C_R   0.883928 0.396493 0.407461 0.262146
C15   C     C_R   0.914730 0.650620 0.407980 0.325954
C16   C     C_R   0.116086 0.396531 0.592538 0.262127
N9    N     N_R   0.582320 0.079840 0.556630 -0.087966
N10   N     N_R   0.417680 0.920160 0.443370 -0.095050
N11   N     N_R   0.417680 0.079840 0.443370 -0.087814
N12   N     N_R   0.582320 0.920160 0.556630 -0.095221
N13   N     N_R   0.082320 0.579840 0.556630 -0.087916
N14   N     N_R   0.917680 0.420160 0.443370 -0.095207
N15   N     N_R   0.917680 0.579840 0.443370 -0.087931
N16   N     N_R   0.082320 0.420160 0.556630 -0.095202
C17   C     C_R   0.660269 0.149174 0.406639 -0.173029
C18   C     C_R   0.310545 0.894216 0.592611 -0.188753
C19   C     C_R   0.339740 0.149190 0.593403 -0.173412
C20   C     C_R   0.689585 0.894546 0.407150 -0.188792
C21   C     C_R   0.160135 0.649223 0.406651 -0.173412
C22   C     C_R   0.810422 0.394542 0.592848 -0.188879
C23   C     C_R   0.839758 0.649200 0.593367 -0.173076
C24   C     C_R   0.189594 0.394579 0.407155 -0.188881
H9    H     H_    0.702818 0.163119 0.320293 0.156510
H10   H     H_    0.262784 0.898015 0.678128 0.163044
H11   H     H_    0.297183 0.163120 0.679754 0.156606
H12   H     H_    0.737267 0.898315 0.321545 0.162987
H13   H     H_    0.202712 0.663104 0.320313 0.156650
H14   H     H_    0.762737 0.398310 0.678453 0.162996
H15   H     H_    0.797216 0.663159 0.679715 0.156540
H16   H     H_    0.237276 0.398373 0.321555 0.163086
N17   N     N_R   0.627920 0.078930 0.443400 -0.068874
N18   N     N_R   0.372080 0.921070 0.556600 -0.070306
N19   N     N_R   0.372080 0.078930 0.556600 -0.068934
N20   N     N_R   0.627920 0.921070 0.443400 -0.070378
N21   N     N_R   0.127920 0.578930 0.443400 -0.068857
N22   N     N_R   0.872080 0.421070 0.556600 -0.070389
N23   N     N_R   0.872080 0.578930 0.556600 -0.068872
N24   N     N_R   0.127920 0.421070 0.443400 -0.070398
C25   C     C_R   0.580738 0.098307 0.190827 0.020638
C26   C     C_R   0.444078 0.852975 0.750319 -0.032921
C27   C     C_R   0.419266 0.098290 0.809172 0.019683
C28   C     C_R   0.556035 0.853114 0.249352 -0.034298
C29   C     C_R   0.080741 0.598272 0.190816 0.019777
C30   C     C_R   0.944101 0.352962 0.750271 -0.033059
C31   C     C_R   0.919259 0.598272 0.809182 0.019274
C32   C     C_R   0.055908 0.352960 0.249734 -0.033082
H17   H     H_    0.554459 0.087777 0.157458 0.197457
H18   H     H_    0.482170 0.833734 0.757908 0.138404
H19   H     H_    0.445542 0.087706 0.842538 0.197258
H20   H     H_    0.518080 0.834056 0.241379 0.138500
H21   H     H_    0.054471 0.587684 0.157443 0.197258
H22   H     H_    0.982193 0.333730 0.757863 0.138294
H23   H     H_    0.945523 0.587664 0.842562 0.197279
H24   H     H_    0.017819 0.333726 0.242147 0.138294
N25   N     N_R   0.555090 0.077730 0.294590 -0.074571
N26   N     N_R   0.444910 0.922270 0.705410 -0.050221
N27   N     N_R   0.444910 0.077730 0.705410 -0.074729
N28   N     N_R   0.555090 0.922270 0.294590 -0.050204
N29   N     N_R   0.055090 0.577730 0.294590 -0.074748
N30   N     N_R   0.944910 0.422270 0.705410 -0.050142
N31   N     N_R   0.944910 0.577730 0.705410 -0.074737
N32   N     N_R   0.055090 0.422270 0.294590 -0.050182
C33   C     C_R   0.349103 0.114065 0.873505 0.083153
C34   C     C_R   0.612669 0.808919 0.219552 0.098527
C35   C     C_R   0.650896 0.114094 0.126511 0.082598
C36   C     C_R   0.387437 0.808805 0.780132 0.097882
C37   C     C_R   0.849095 0.614028 0.873518 0.082845
C38   C     C_R   0.112533 0.308768 0.219972 0.097895
C39   C     C_R   0.150903 0.614037 0.126484 0.083023
C40   C     C_R   0.887482 0.308775 0.780036 0.097839
C41   C     C_R   0.634101 0.196320 0.498904 -0.035418
C42   C     C_R   0.317136 0.876498 0.500098 -0.029499
C43   C     C_R   0.365935 0.196384 0.501182 -0.035381
C44   C     C_R   0.683224 0.877296 0.499475 -0.027212
C45   C     C_R   0.133894 0.696421 0.498903 -0.034710
C46   C     C_R   0.816791 0.377271 0.500523 -0.027171
C47   C     C_R   0.865941 0.696360 0.501110 -0.035440
C48   C     C_R   0.183239 0.377342 0.499477 -0.027232
Ni1   Ni    Ni4+2 0.382970 1.000000 0.629840 0.221383
Ni2   Ni    Ni4+2 0.617030 0.000000 0.370160 0.221389
Ni3   Ni    Ni4+2 0.882970 0.500000 0.629840 0.221343
Ni4   Ni    Ni4+2 0.117030 0.500000 0.370160 0.221359
Ni5   Ni    Ni4+2 0.514540 1.000000 0.629840 0.312660
Ni6   Ni    Ni4+2 0.485460 0.000000 0.370160 0.312492
Ni7   Ni    Ni4+2 0.014540 0.500000 0.629840 0.312610
Ni8   Ni    Ni4+2 0.985460 0.500000 0.370160 0.312635
C49   C     C_3   0.345350 0.321286 0.415942 -0.179226
C50   C     C_3   0.714226 0.773166 0.584061 -0.208801
C51   C     C_3   0.654690 0.321158 0.584174 -0.179346
C52   C     C_3   0.285737 0.772020 0.416283 -0.204149
C53   C     C_3   0.845338 0.821212 0.415850 -0.179372
C54   C     C_3   0.214236 0.273176 0.584024 -0.208817
C55   C     C_3   0.154876 0.821524 0.583495 -0.177517
C56   C     C_3   0.785813 0.273114 0.415939 -0.208847
C57   C     C_3   0.786065 0.874952 0.512524 -0.195139
C58   C     C_3   0.272623 0.220558 0.487782 -0.234962
C59   C     C_3   0.214652 0.874540 0.486304 -0.198399
C60   C     C_3   0.727477 0.220455 0.512161 -0.234781
C61   C     C_3   0.286042 0.374988 0.512635 -0.195153
C62   C     C_3   0.772579 0.720509 0.487838 -0.234817
C63   C     C_3   0.713943 0.374898 0.487502 -0.195110
C64   C     C_3   0.226896 0.720129 0.513014 -0.237444
H25   H     H_    0.790375 0.939416 0.522663 0.176629
H26   H     H_    0.267218 0.156335 0.477724 0.176144
H27   H     H_    0.210914 0.938992 0.475255 0.175955
H28   H     H_    0.732922 0.156225 0.522142 0.176708
H29   H     H_    0.290330 0.439446 0.522840 0.176605
H30   H     H_    0.767151 0.656279 0.477847 0.176724
H31   H     H_    0.709611 0.439361 0.477373 0.176637
H32   H     H_    0.231808 0.655907 0.523862 0.177422
H33   H     H_    0.398802 0.343891 0.349058 0.208145
H34   H     H_    0.660008 0.753173 0.652716 0.164969
H35   H     H_    0.601232 0.343741 0.651114 0.208119
H36   H     H_    0.339814 0.751309 0.348148 0.166303
H37   H     H_    0.898790 0.843796 0.348922 0.208104
H38   H     H_    0.160017 0.253157 0.652629 0.164849
H39   H     H_    0.101509 0.844553 0.650012 0.207481
H40   H     H_    0.840035 0.253122 0.347274 0.164922
C65   C     C_3   0.735971 0.838250 0.497882 0.060935
C66   C     C_3   0.323337 0.256180 0.502056 0.037688
C67   C     C_3   0.264327 0.837587 0.501718 0.060920
C68   C     C_3   0.676701 0.256090 0.498016 0.037463
C69   C     C_3   0.235992 0.338301 0.497889 0.061034
C70   C     C_3   0.823338 0.756146 0.502002 0.037468
C71   C     C_3   0.764055 0.338201 0.502121 0.060966
C72   C     C_3   0.176578 0.756026 0.498023 0.036492
C73   C     C_3   0.294274 0.285648 0.401890 0.283126
C74   C     C_3   0.765276 0.808597 0.598083 0.326973
C75   C     C_3   0.705826 0.285507 0.598099 0.283047
C76   C     C_3   0.235113 0.807745 0.401456 0.329020
C77   C     C_3   0.794220 0.785557 0.401904 0.283083
C78   C     C_3   0.265240 0.308593 0.598153 0.326922
C79   C     C_3   0.205573 0.785632 0.598239 0.283612
C80   C     C_3   0.734745 0.308541 0.401939 0.326960
C81   C     C_2   0.698888 0.131557 0.006825 -0.131180
C82   C     C_2   0.364545 0.730761 0.831878 -0.227290
C83   C     C_2   0.301107 0.131453 0.993216 -0.131624
C84   C     C_2   0.635531 0.730873 0.167820 -0.227317
C85   C     C_2   0.198904 0.631416 0.006770 -0.131321
C86   C     C_2   0.864584 0.230740 0.831797 -0.227577
C87   C     C_2   0.801089 0.631310 0.993259 -0.130881
C88   C     C_2   0.135432 0.230724 0.168231 -0.227699
C89   C     C_2   0.767103 0.139111 0.953393 0.142886
C90   C     C_2   0.296661 0.719270 0.917473 0.184576
C91   C     C_2   0.232896 0.139048 0.046648 0.142749
C92   C     C_2   0.703417 0.719294 0.082337 0.184268
C93   C     C_2   0.267109 0.639046 0.953360 0.142802
C94   C     C_2   0.796711 0.219306 0.917481 0.184551
C95   C     C_2   0.732900 0.639024 0.046616 0.142756
C96   C     C_2   0.203304 0.219259 0.082552 0.184679
H41   H     H_    0.400990 0.681510 0.790000 0.161047
H42   H     H_    0.675632 0.169758 0.982026 0.174471
H43   H     H_    0.599045 0.681669 0.209690 0.161094
H44   H     H_    0.324359 0.169610 0.018053 0.174417
H45   H     H_    0.900987 0.181457 0.789853 0.161090
H46   H     H_    0.175639 0.669546 0.981919 0.174345
H47   H     H_    0.099023 0.181457 0.210174 0.161084
H48   H     H_    0.824348 0.669387 0.018156 0.174356
N33   N     N_R   0.560915 0.164772 0.702365 0.218369
O1    O     O_R   0.574089 0.113583 0.749383 -0.310622
O2    O     O_R   0.523955 0.227667 0.757435 -0.392910
N34   N     N_R   0.406790 0.917289 0.298937 0.239444
O3    O     O_R   0.466041 0.953744 0.227493 -0.371695
O4    O     O_R   0.364955 0.911131 0.276337 -0.349338
N35   N     N_R   0.439260 0.165037 0.297665 0.218457
O5    O     O_R   0.425755 0.114281 0.250684 -0.311944
O6    O     O_R   0.476312 0.227914 0.242772 -0.392941
N36   N     N_R   0.594192 0.918653 0.700107 0.240096
O7    O     O_R   0.533638 0.951930 0.773637 -0.372282
O8    O     O_R   0.638175 0.918853 0.718567 -0.346488
N37   N     N_R   0.060744 0.664955 0.702350 0.218379
O9    O     O_R   0.073826 0.613778 0.749507 -0.311169
O10   O     O_R   0.024173 0.728139 0.757056 -0.392143
N38   N     N_R   0.905808 0.418627 0.299892 0.240034
O11   O     O_R   0.966341 0.451932 0.226378 -0.372390
O12   O     O_R   0.861834 0.418777 0.281415 -0.346614
N39   N     N_R   0.939108 0.664812 0.297649 0.218370
O13   O     O_R   0.925948 0.613633 0.250613 -0.310680
O14   O     O_R   0.976067 0.727699 0.242591 -0.392895
N40   N     N_R   0.094191 0.418685 0.700110 0.240017
O15   O     O_R   0.033635 0.451963 0.773628 -0.372439
O16   O     O_R   0.138167 0.418888 0.718583 -0.346736
I1    I     I_    0.323279 0.255090 0.243195 -0.258731
I2    I     I_    0.744031 0.831365 0.752515 -0.235749
I3    I     I_    0.676916 0.254833 0.756695 -0.257985
I4    I     I_    0.256322 0.830119 0.246917 -0.235193
I5    I     I_    0.823154 0.754879 0.243292 -0.257766
I6    I     I_    0.243901 0.331285 0.752671 -0.235916
I7    I     I_    0.176086 0.755550 0.757399 -0.256749
I8    I     I_    0.755977 0.331315 0.247520 -0.235788
I9    I     I_    0.228018 0.817506 0.016513 -0.263585
I10   I     I_    0.826324 0.044574 0.947895 -0.305666
I11   I     I_    0.772150 0.817449 0.983302 -0.263661
I12   I     I_    0.173665 0.044565 0.052119 -0.305891
I13   I     I_    0.728173 0.317592 0.016583 -0.263542
I14   I     I_    0.326379 0.544575 0.947868 -0.305477
I15   I     I_    0.271860 0.317514 0.983450 -0.263705
I16   I     I_    0.673597 0.544601 0.052151 -0.305575

loop_
_geom_bond_atom_site_label_1
_geom_bond_atom_site_label_2
_geom_bond_distance
_ccdc_geom_bond_type
C48   C69   1.454946 S    
C14   N38   1.438382 S    
N39   O13   1.300014 A    
N5    N31   1.378348 A    
C27   N27   1.346843 A    
C8    N8    1.325017 A    
C96   I15   2.157332 S    
N4    N26   1.378365 A    
C2    N2    1.325045 A    
C55   H39   1.108329 S    
C31   C37   1.374615 A    
C29   H21   1.079022 S    
C8    C40   1.373942 A    
C3    H3    1.078160 S    
C24   H16   1.079361 S    
N29   Ni8   1.868268 S    
C67   C79   1.532550 S    
C18   N18   1.330270 A    
C31   H23   1.078992 S    
C25   H17   1.079043 S    
C76   I4    2.138998 S    
C22   C46   1.371425 A    
C60   H28   1.111316 S    
N19   Ni1   1.878074 S    
C22   N22   1.329962 A    
C85   H46   1.087528 S    
N34   O4    1.299833 A    
C30   H22   1.078161 S    
C63   H31   1.110075 S    
C52   C76   1.541591 S    
N15   N23   1.354185 A    
C18   C42   1.372819 A    
C68   C80   1.529026 S    
C50   C62   1.534174 S    
N40   O16   1.298409 A    
N33   O2    1.300086 A    
C49   C61   1.554799 S    
C42   C67   1.455128 S    
C36   C82   1.451557 S    
C80   I8    2.138105 S    
C27   C33   1.374659 A    
C51   C63   1.554772 S    
C14   N14   1.333604 A    
C3    C35   1.372508 A    
C54   C58   1.534179 S    
N37   O10   1.300123 A    
N21   Ni4   1.878223 S    
C53   C57   1.554782 S    
C82   H41   1.085083 S    
C69   C73   1.532283 S    
C47   C70   1.455188 S    
C63   C71   1.534280 S    
C10   N34   1.438350 S    
C10   N10   1.332527 A    
C2    H2    1.080458 S    
C72   C76   1.528765 S    
C73   I1    2.144460 S    
N38   O11   1.299886 A    
C6    C38   1.373947 A    
C56   H40   1.110379 S    
C28   C34   1.385879 A    
C95   I16   2.132488 S    
C16   C48   1.378631 A    
C3    N3    1.331638 A    
C53   C70   1.533997 S    
N6    N32   1.378351 A    
N17   Ni2   1.878223 S    
C4    H4    1.080449 S    
C83   C91   1.337297 D    
C15   N39   1.427660 S    
C91   I12   2.132444 S    
C7    N7    1.331670 A    
C92   C95   1.465095 S    
C19   N19   1.334700 A    
C46   C71   1.454884 S    
C90   I9    2.157332 S    
C32   C38   1.385877 A    
C5    C37   1.372539 A    
C20   H12   1.079374 S    
C7    H7    1.078156 S    
C89   I10   2.132455 S    
C23   H15   1.077769 S    
C21   H13   1.077584 S    
C75   I3    2.144420 S    
C8    H8    1.080443 S    
C24   C48   1.371433 A    
C14   C46   1.378645 A    
C1    N1    1.331666 A    
C86   H45   1.085091 S    
C11   N35   1.427628 S    
C93   I14   2.132478 S    
C39   C85   1.461129 S    
N39   O14   1.300088 A    
C17   H9    1.077764 S    
C32   N32   1.351494 A    
C64   C72   1.537486 S    
N24   Ni4   1.878071 S    
N16   Ni7   1.867922 S    
C59   C76   1.549825 S    
C94   I13   2.157294 S    
C53   H37   1.108207 S    
N11   N19   1.354185 A    
C1    C33   1.372537 A    
C86   C94   1.337912 D    
C79   I7    2.144534 S    
C57   C74   1.549852 S    
C53   C77   1.543381 S    
N35   O5    1.299989 A    
C28   N28   1.351287 A    
N26   Ni5   1.868268 S    
C23   C47   1.384249 A    
C54   H38   1.110379 S    
C38   C88   1.451467 S    
C61   C78   1.549856 S    
C26   C36   1.385955 A    
N22   Ni3   1.878225 S    
N12   N20   1.354186 A    
C58   H26   1.111312 S    
C12   N36   1.438388 S    
N28   Ni6   1.867979 S    
C32   H24   1.078151 S    
C34   C84   1.451428 S    
N34   O3    1.300528 A    
N1    N27   1.378348 A    
C5    N5    1.331650 A    
N32   Ni8   1.867979 S    
C49   C66   1.534037 S    
C15   C47   1.383747 A    
C54   C69   1.535785 S    
C30   C40   1.385912 A    
N35   O6    1.300100 A    
C13   C45   1.383608 A    
C40   C86   1.451500 S    
N1    Ni1   1.875026 S    
C26   N26   1.351529 A    
C26   H18   1.078155 S    
C65   C77   1.532274 S    
N2    N28   1.378351 A    
C87   H48   1.087532 S    
C82   C90   1.337957 D    
C44   C65   1.454842 S    
C89   C94   1.465065 S    
C88   H47   1.085092 S    
C11   C43   1.383697 A    
C22   H14   1.079378 S    
N27   Ni5   1.867978 S    
N36   O8    1.298413 A    
C1    H1    1.078156 S    
N8    Ni3   1.874892 S    
C78   I6    2.138117 S    
C20   N20   1.329947 A    
C92   I11   2.157306 S    
C37   C87   1.461091 S    
C9    N33   1.427655 S    
N5    Ni3   1.875026 S    
N11   Ni6   1.867922 S    
C21   C45   1.384254 A    
C10   C42   1.379014 A    
C31   N31   1.346852 A    
C50   H34   1.110380 S    
C9    C41   1.383751 A    
N15   Ni8   1.867922 S    
C43   C66   1.455329 S    
C59   C67   1.534419 S    
C71   C75   1.532298 S    
N7    N29   1.378369 A    
N10   Ni6   1.868212 S    
C41   C68   1.455226 S    
C57   C65   1.534291 S    
C54   C78   1.541128 S    
C27   H19   1.079024 S    
C52   C64   1.533848 S    
N23   Ni3   1.878074 S    
C30   N30   1.351514 A    
N12   Ni5   1.867922 S    
C16   N16   1.333621 A    
C29   N29   1.346879 A    
C87   C95   1.337216 D    
N4    Ni1   1.874892 S    
C62   C77   1.533419 S    
C61   H29   1.110076 S    
C55   C72   1.533867 S    
C25   C35   1.374690 A    
C84   C92   1.337825 D    
C62   C70   1.537352 S    
C57   H25   1.110076 S    
C56   C71   1.535772 S    
N9    N17   1.354184 A    
C60   C68   1.537335 S    
C18   H10   1.079280 S    
C59   H27   1.110111 S    
N40   O15   1.299888 A    
C5    H5    1.078160 S    
C55   C79   1.543471 S    
C62   H30   1.111319 S    
C50   C65   1.535774 S    
C49   C73   1.543392 S    
C29   C39   1.374695 A    
C52   C67   1.535812 S    
N13   N21   1.354184 A    
C66   C78   1.529026 S    
N20   Ni2   1.878071 S    
C55   C59   1.554998 S    
C52   H36   1.110429 S    
C28   H20   1.078137 S    
C7    C39   1.372510 A    
C91   C96   1.465045 S    
C45   C72   1.454881 S    
C77   I5    2.144436 S    
N16   N24   1.354186 A    
C49   H33   1.108202 S    
C11   N11   1.332783 A    
N18   Ni1   1.878225 S    
C64   H32   1.111369 S    
N30   Ni7   1.868268 S    
C51   C75   1.543380 S    
C81   C89   1.337328 D    
C6    H6    1.080451 S    
C74   I2    2.138171 S    
N3    N25   1.378369 A    
C56   C80   1.541145 S    
C19   C43   1.384128 A    
N31   Ni7   1.867978 S    
C23   N23   1.334686 A    
C20   C44   1.371427 A    
C12   C44   1.378615 A    
N33   O1    1.300013 A    
N8    N30   1.378365 A    
N2    Ni2   1.875026 S    
C19   H11   1.077760 S    
N6    Ni4   1.875026 S    
N7    Ni4   1.874892 S    
C51   C68   1.534002 S    
C21   N21   1.334317 A    
C58   C73   1.533436 S    
C15   N15   1.332542 A    
N36   O7    1.299887 A    
C17   C41   1.384254 A    
C58   C66   1.537380 S    
N37   O9    1.300037 A    
C61   C69   1.534302 S    
C16   N40   1.438384 S    
N13   Ni7   1.868212 S    
C24   N24   1.329975 A    
C17   N17   1.334683 A    
C4    N4    1.325005 A    
N3    Ni2   1.874892 S    
C13   N37   1.427682 S    
N9    Ni5   1.868212 S    
N25   Ni6   1.868268 S    
C12   N12   1.333591 A    
C2    C34   1.374154 A    
C84   H43   1.085088 S    
C70   C74   1.529024 S    
C60   C75   1.533443 S    
C13   N13   1.332573 A    
C83   H44   1.087533 S    
N10   N18   1.354183 A    
C33   C83   1.461087 S    
C25   N25   1.346889 A    
C35   C81   1.461076 S    
C88   C96   1.337894 D    
N14   N22   1.354183 A    
C81   H42   1.087529 S    
C51   H35   1.108204 S    
C85   C93   1.337325 D    
N14   Ni8   1.868212 S    
C63   C80   1.549836 S    
C50   C74   1.541143 S    
N38   O12   1.298394 A    
C56   C60   1.534208 S    
C64   C79   1.533396 S    
C9    N9    1.332555 A    
C4    C36   1.373949 A    
C90   C93   1.465133 S    
C6    N6    1.325024 A    
