data_mof_unit_54685.cif
_audit_creation_date              2012-12-10T16:58:29-0500
_audit_creation_method            fapswitch 2.2
_symmetry_space_group_name_H-M    P1
_symmetry_Int_Tables_number       1
_space_group_crystal_system       triclinic
_cell_length_a                    15.851009
_cell_length_b                    10.905632
_cell_length_c                    9.7113
_cell_angle_alpha                 90.464273
_cell_angle_beta                  90.898463
_cell_angle_gamma                 90.204848
_cell_volume                      1678.47349651

loop_
_atom_site_label
_atom_site_type_symbol
_atom_type_description
_atom_site_fract_x
_atom_site_fract_y
_atom_site_fract_z
_atom_type_partial_charge
C1    C     C_R   0.497268 0.265471 0.499528 0.840400
C2    C     C_3   0.082929 0.500606 0.496214 0.136995
C3    C     C_3   0.974133 0.587909 0.589337 -0.230795
C4    C     C_3   0.916932 0.500092 0.504116 0.107708
C5    C     C_3   0.027222 0.611499 0.458668 -0.197091
C6    C     C_3   0.969042 0.523261 0.375032 0.056570
C7    C     C_1   0.174614 0.500900 0.494783 -0.066115
C8    C     C_1   0.825223 0.500636 0.505218 -0.062159
C9    C     C_2   0.492537 0.932613 0.393816 -0.238722
C10   C     C_2   0.519530 0.865377 0.501240 0.134137
C11   C     C_2   0.502231 0.065486 0.388609 -0.134051
C12   C     C_R   0.339893 0.500196 0.498942 0.813419
C13   C     C_2   0.487815 0.133855 0.500268 -0.263374
C14   C     C_2   0.449635 0.432644 0.922443 -0.076859
C15   C     C_2   0.441098 0.448093 0.076223 -0.097546
C16   C     C_R   0.503915 0.734539 0.500463 0.804188
C17   C     C_R   0.660073 0.500271 0.501071 0.847943
C18   C     C_3   0.973108 0.390398 0.541115 -0.002617
C19   C     C_3   0.026049 0.412626 0.410682 -0.267918
C20   C     C_1   0.250180 0.500637 0.496258 -0.183861
C21   C     C_1   0.749707 0.500581 0.503753 -0.161643
C22   C     C_3   0.031129 0.477311 0.625748 0.027282
Cu1   Cu    Cu3+1 0.500020 0.500020 0.638630 0.961095
Cu2   Cu    Cu3+1 0.499980 0.499980 0.361370 0.944854
H1    H     H_    0.049169 0.343683 0.335645 0.130982
H2    H     H_    0.467486 0.092223 0.595454 0.182730
H3    H     H_    0.411263 0.362332 0.872286 0.147870
H4    H     H_    0.384596 0.412975 0.123819 0.155646
H5    H     H_    0.558048 0.507062 0.111954 0.214363
H6    H     H_    0.051666 0.701889 0.425545 0.122986
H7    H     H_    0.950611 0.659474 0.660872 0.130242
H8    H     H_    0.460605 0.889088 0.306364 0.144420
H9    H     H_    0.516365 0.107187 0.290369 0.164076
N1    N     N_2   0.499090 0.498660 0.846910 -0.222489
N2    N     N_2   0.499070 0.498630 0.153040 -0.278662
O1    O     O_R   0.500010 0.321960 0.617040 -0.575263
O2    O     O_R   0.499990 0.321920 0.382900 -0.579130
O3    O     O_R   0.379090 0.500010 0.617050 -0.578787
O4    O     O_R   0.379060 0.499970 0.382910 -0.580429
O5    O     O_R   0.500010 0.678080 0.617100 -0.554247
O6    O     O_R   0.499990 0.678040 0.382960 -0.582914
O7    O     O_R   0.620940 0.500030 0.617090 -0.580973
O8    O     O_R   0.620910 0.499990 0.382950 -0.573292
C23   C     C_R   0.528540 0.614480 0.898247 0.328778
C24   C     C_R   0.615511 0.639056 0.904858 -0.164293
C25   C     C_R   0.645140 0.751377 0.957086 -0.125397
C26   C     C_R   0.588140 0.840686 0.000536 -0.048355
C27   C     C_R   0.501366 0.818582 0.989964 -0.144036
C28   C     C_R   0.471452 0.706388 0.937981 -0.121395
H10   H     H_    0.660177 0.569881 0.873328 0.136245
H11   H     H_    0.712268 0.769253 0.964031 0.139226
H12   H     H_    0.611189 0.927482 0.041106 0.131876
H13   H     H_    0.457296 0.888384 0.022087 0.123426
H14   H     H_    0.404105 0.690210 0.930022 0.122570
C29   C     C_R   0.939576 0.269842 0.591695 0.108470
C30   C     C_R   0.955733 0.159783 0.520951 -0.165334
C31   C     C_R   0.924243 0.048694 0.570155 -0.134922
C32   C     C_R   0.876474 0.046806 0.689916 -0.080198
C33   C     C_R   0.860165 0.156030 0.760738 -0.121905
C34   C     C_R   0.891618 0.267141 0.711892 -0.134995
H15   H     H_    0.992586 0.159351 0.428161 0.116479
H16   H     H_    0.936910 0.964015 0.515466 0.125291
H17   H     H_    0.852145 0.960768 0.727815 0.130594
H18   H     H_    0.823204 0.154630 0.853500 0.128038
H19   H     H_    0.878726 0.351257 0.767426 0.127200
C35   C     C_R   0.929606 0.544062 0.235232 0.115126
C36   C     C_R   0.935295 0.658442 0.170515 -0.154223
C37   C     C_R   0.896973 0.676293 0.041489 -0.154631
C38   C     C_R   0.852913 0.580315 0.976358 -0.133118
C39   C     C_R   0.846188 0.466767 0.040933 -0.124880
C40   C     C_R   0.884429 0.448536 0.169785 -0.123245
H20   H     H_    0.969045 0.733838 0.219351 0.112106
H21   H     H_    0.901786 0.764387 0.991610 0.119626
H22   H     H_    0.823916 0.594013 0.876029 0.121405
H23   H     H_    0.811186 0.392883 0.991376 0.117818
H24   H     H_    0.878662 0.360113 0.218847 0.123518
C41   C     C_R   0.070430 0.448394 0.763988 0.100402
C42   C     C_R   0.065919 0.531968 0.874366 -0.128808
C43   C     C_R   0.103623 0.504397 0.001562 -0.109658
C44   C     C_R   0.145987 0.393425 0.019453 -0.129729
C45   C     C_R   0.151353 0.310219 0.909764 -0.145927
C46   C     C_R   0.114042 0.337685 0.782315 -0.126922
H25   H     H_    0.034280 0.618924 0.862038 0.122445
H26   H     H_    0.100416 0.569300 0.086192 0.132105
H27   H     H_    0.175042 0.372288 0.118019 0.121783
H28   H     H_    0.184641 0.224574 0.923353 0.122437
H29   H     H_    0.119089 0.272713 0.697919 0.125961
Br1   Br    Br    0.594232 0.926934 0.645218 -0.559928

loop_
_geom_bond_atom_site_label_1
_geom_bond_atom_site_label_2
_ccdc_geom_bond_type
C23   C28   A    
C29   C30   A    
C2    C7    S    
C4    C8    S    
C45   C46   A    
C31   C32   A    
C31   H16   S    
C41   C42   A    
C6    C19   S    
C10   Br1   S    
C33   H18   S    
Cu1   O7    S    
C24   H10   S    
C18   C19   S    
C43   H26   S    
C46   H29   S    
Cu2   O4    S    
C30   C31   A    
C36   H20   S    
C17   O7    A    
C9    H8    S    
C42   H25   S    
C35   C40   A    
C37   C38   A    
C2    C22   S    
Cu1   Cu2   S    
C39   C40   A    
C14   H3    S    
C9    C10   D    
C45   H28   S    
C1    O2    A    
C4    C18   S    
C35   C36   A    
C33   C34   A    
C28   H14   S    
C29   C34   A    
Cu2   O6    S    
C15   N2    D    
C8    C21   T    
C27   H13   S    
Cu2   N2    S    
C36   C37   A    
C11   H9    S    
N1    C23   S    
C4    C6    S    
C42   C43   A    
C37   H21   S    
C24   C25   A    
C25   H11   S    
C17   C21   S    
C17   O8    A    
C44   H27   S    
C26   C27   A    
C14   C15   S    
Cu1   N1    S    
C12   C20   S    
Cu2   O2    S    
C38   H22   S    
C3    H7    S    
C9    C11   S    
C18   C29   S    
C16   O5    A    
C27   C28   A    
C34   H19   S    
Cu1   O1    S    
C13   H2    S    
C2    C5    S    
C1    C13   S    
C3    C4    S    
C40   H24   S    
C23   C24   A    
C5    H6    S    
C32   H17   S    
C25   C26   A    
C2    C19   S    
C18   C22   S    
C22   C41   S    
C44   C45   A    
C3    C5    S    
C14   N1    D    
C26   H12   S    
Cu1   O3    S    
H5    N2    S    
C12   O4    A    
C32   C33   A    
C10   C16   S    
C11   C13   D    
C15   H4    S    
C5    C6    S    
C41   C46   A    
C12   O3    A    
C38   C39   A    
C19   H1    S    
C43   C44   A    
C6    C35   S    
C7    C20   T    
C39   H23   S    
Cu2   O8    S    
C30   H15   S    
C3    C22   S    
C16   O6    A    
Cu1   O5    S    
C1    O1    A    
