data_mof_unit_16912.cif
_audit_creation_date              2012-12-11T17:04:55-0500
_audit_creation_method            fapswitch 2.2
_symmetry_space_group_name_H-M    P1
_symmetry_Int_Tables_number       1
_space_group_crystal_system       triclinic
_cell_length_a                    17.593314
_cell_length_b                    24.281185
_cell_length_c                    15.149137
_cell_angle_alpha                 89.451121
_cell_angle_beta                  125.722011
_cell_angle_gamma                 90.725624
_cell_volume                      5253.51270623

loop_
_atom_site_label
_atom_site_type_symbol
_atom_type_description
_atom_site_fract_x
_atom_site_fract_y
_atom_site_fract_z
_atom_type_partial_charge
C1    C     C_R   0.845469 0.650729 0.908743 -0.164030
C2    C     C_R   0.963232 0.501184 0.649706 0.012447
C3    C     C_R   0.767155 0.047180 0.286172 0.216230
C4    C     C_R   0.812574 0.374789 0.911021 -0.115212
C5    C     C_R   0.157706 0.352560 0.090326 -0.137119
C6    C     C_R   0.310905 0.878386 0.907577 -0.120933
C7    C     C_R   0.684286 0.872230 0.089130 -0.118592
C8    C     C_R   0.936845 0.650800 0.089373 -0.129383
C9    C     C_R   0.053207 0.653442 0.909403 -0.152492
C10   C     C_R   0.399856 0.124956 0.087993 -0.146025
C11   C     C_R   0.555963 0.154342 0.911810 -0.135557
C12   C     C_R   0.872034 0.681258 0.998915 0.081815
C13   C     C_R   0.576620 0.999366 0.371280 0.015646
C14   C     C_R   0.114382 0.685480 0.996654 0.076051
C15   C     C_R   0.311918 0.136723 0.995004 0.093634
C16   C     C_R   0.616597 0.186429 0.001732 0.074872
C17   C     C_3   0.138859 0.793491 0.204715 -0.262980
C18   C     C_3   0.050058 0.822199 0.111639 -0.857373
C19   C     C_3   0.773928 0.763777 0.724612 -0.300760
C20   C     C_3   0.875337 0.784959 0.791604 -0.922333
C21   C     C_3   0.744404 0.262461 0.294579 -0.282741
C22   C     C_3   0.653462 0.293430 0.250905 -0.935356
C23   C     C_3   0.333962 0.244789 0.866643 -0.205810
C24   C     C_R   0.472045 0.001897 0.655864 0.009430
C25   C     C_3   0.408736 0.256381 0.987773 -0.878071
C26   C     C_3   0.862592 0.353349 0.295866 -0.271783
C27   C     C_3   0.953162 0.340546 0.406976 -0.950281
C28   C     C_3   0.242009 0.347251 0.883493 -0.214140
C29   C     C_3   0.268341 0.375887 0.814186 -0.963557
C30   C     C_3   0.244453 0.898696 0.190988 -0.215578
C31   C     C_3   0.239115 0.911516 0.285581 -0.940850
C32   C     C_3   0.655075 0.856595 0.711255 -0.258471
C33   C     C_3   0.584253 0.843853 0.589635 -0.953147
C34   C     C_3   0.830495 0.503714 0.251937 -0.332811
C35   C     C_R   0.698809 0.498553 0.635912 0.040919
C36   C     C_3   0.730750 0.519158 0.158909 -0.910648
C37   C     C_3   0.838707 0.620699 0.418040 -0.336151
C38   C     C_3   0.741110 0.637847 0.321869 -0.923298
C39   C     C_3   0.746825 0.099054 0.631372 -0.353938
C40   C     C_3   0.837231 0.114341 0.740681 -0.893218
C41   C     C_3   0.704421 0.005561 0.795620 -0.330832
C42   C     C_3   0.800138 0.021753 0.896992 -0.909579
C43   C     C_3   0.739017 0.602852 0.652051 -0.405585
C44   C     C_3   0.715114 0.605177 0.537978 -0.940362
C45   C     C_3   0.291151 0.599227 0.345700 -0.390456
C46   C     C_R   0.323572 0.499387 0.316467 0.015644
C47   C     C_3   0.313389 0.590994 0.458772 -0.898024
C48   C     C_3   0.238965 0.102309 0.647928 -0.400529
C49   C     C_3   0.232667 0.102493 0.542890 -0.906440
C50   C     C_3   0.786380 0.104029 0.334192 -0.396043
C51   C     C_3   0.841692 0.106254 0.457886 -0.945988
C52   C     C_R   0.200505 0.998093 0.633973 0.050538
C53   C     C_R   0.821949 0.000814 0.328803 0.020762
C54   C     C_3   0.533728 0.449069 0.522950 0.036289
C55   C     C_3   0.489579 0.454425 0.402287 0.031514
C56   C     C_3   0.034412 0.948206 0.522399 0.038169
C57   C     C_R   0.147534 0.654256 0.088429 -0.143299
C58   C     C_3   0.985679 0.957956 0.401647 0.031566
C59   C     C_3   0.466224 0.490918 0.515842 -0.226391
C60   C     C_3   0.558816 0.500553 0.422494 -0.231233
C61   C     C_3   0.969866 0.988627 0.525125 -0.218170
C62   C     C_3   0.054589 0.004643 0.423510 -0.236858
C63   C     C_3   0.422579 0.496751 0.394370 0.178392
C64   C     C_3   0.602240 0.495472 0.544464 0.174702
C65   C     C_3   0.921684 0.998930 0.403685 0.179113
C66   C     C_3   0.102754 0.995066 0.545612 0.167977
C67   C     C_3   0.489866 0.543571 0.413614 -0.151502
C68   C     C_R   0.307822 0.120253 0.906338 -0.144670
C69   C     C_3   0.534550 0.538166 0.536521 -0.133186
C70   C     C_3   0.989025 0.046334 0.424923 -0.136901
C71   C     C_3   0.038102 0.036281 0.547879 -0.140037
C72   C     C_R   0.751327 0.318383 0.100845 -0.005033
C73   C     C_R   0.167189 0.260849 0.903616 -0.027200
C74   C     C_R   0.231777 0.822655 0.074204 -0.014794
C75   C     C_R   0.745945 0.815264 0.903635 -0.003932
C76   C     C_R   0.740866 0.334358 0.004565 0.040120
C77   C     C_R   0.167347 0.272380 0.993420 0.067374
C78   C     C_R   0.235553 0.833813 0.986688 0.042757
C79   C     C_R   0.645657 0.153988 0.090471 -0.178607
C80   C     C_R   0.753514 0.830175 0.998202 0.050561
C81   C     C_R   0.658104 0.316996 0.905824 -0.186204
C82   C     C_R   0.198195 0.232192 0.074830 -0.183525
C83   C     C_R   0.172069 0.804283 0.889845 -0.179571
C84   C     C_R   0.829978 0.808937 0.097783 -0.208165
C85   C     C_R   0.905188 0.374745 0.093105 -0.172288
C86   C     C_R   0.064138 0.352404 0.908193 -0.165390
C87   C     C_R   0.400196 0.877226 0.089716 -0.148273
C88   C     C_R   0.593751 0.873916 0.907323 -0.161534
C89   C     C_R   0.123658 0.758796 0.890575 -0.188933
C90   C     C_R   0.816218 0.360771 0.003299 0.069820
C91   C     C_R   0.875085 0.762181 0.098802 -0.194485
C92   C     C_R   0.606195 0.272572 0.904856 -0.189480
C93   C     C_R   0.239231 0.184093 0.071381 -0.210375
C94   C     C_R   0.136404 0.742045 0.987619 0.026142
C95   C     C_R   0.848708 0.738390 0.000401 0.015698
C96   C     C_R   0.636066 0.245700 0.002781 0.018826
C97   C     C_R   0.249150 0.176739 0.986742 0.058347
C98   C     C_R   0.183474 0.778581 0.074356 0.109339
C99   C     C_R   0.793699 0.770188 0.906027 0.127197
C100  C     C_R   0.698912 0.274887 0.099497 0.124535
C101  C     C_R   0.134132 0.324647 0.998682 0.055865
C102  C     C_R   0.207844 0.214556 0.900612 0.048643
C103  C     C_3   0.217989 0.787357 0.189569 -0.029896
C104  C     C_3   0.727423 0.758743 0.786840 -0.031528
C105  C     C_3   0.773721 0.258559 0.215160 -0.044185
C106  C     C_3   0.230310 0.241433 0.827447 -0.032028
C107  C     C_3   0.833438 0.305466 0.215384 -0.062050
C108  C     C_3   0.183400 0.293844 0.831141 -0.042486
C109  C     C_3   0.272203 0.838706 0.188640 -0.050458
C110  C     C_3   0.669732 0.807115 0.783708 -0.082367
C111  C     C_R   0.955951 0.542410 0.498482 0.013786
C112  C     C_R   0.311017 0.865112 0.996149 0.064273
C113  C     C_R   0.979222 0.539079 0.427850 -0.014921
C114  C     C_R   0.571128 0.037872 0.603314 -0.001516
C115  C     C_R   0.602730 0.035967 0.538771 -0.000358
C116  C     C_R   0.990376 0.501988 0.578501 0.073604
C117  C     C_R   0.048247 0.503456 0.445139 0.102253
C118  C     C_R   0.498491 0.003182 0.583459 0.091716
C119  C     C_R   0.564578 0.996069 0.456982 0.065275
C120  C     C_R   0.065841 0.468789 0.603755 -0.212319
C121  C     C_R   0.095935 0.470051 0.537211 -0.194318
C122  C     C_R   0.455727 0.967184 0.496955 -0.199739
C123  C     C_R   0.680644 0.858739 0.997517 0.070943
C124  C     C_R   0.488383 0.963322 0.434299 -0.183342
C125  C     C_3   0.882721 0.552377 0.329694 -0.019511
C126  C     C_3   0.857445 0.559845 0.409856 -0.024292
C127  C     C_3   0.702734 0.045249 0.636636 -0.029133
C128  C     C_3   0.665781 0.049805 0.705955 -0.010138
C129  C     C_R   0.048481 0.546460 0.301537 0.026191
C130  C     C_R   0.969047 0.546266 0.706638 0.035647
C131  C     C_R   0.554311 0.045256 0.305852 0.035978
C132  C     C_R   0.475984 0.046751 0.711670 0.022758
C133  C     C_R   0.746036 0.453869 0.698442 -0.228943
C134  C     C_R   0.064912 0.501512 0.364700 -0.002433
C135  C     C_R   0.267675 0.453665 0.271734 -0.208134
C136  C     C_R   0.247224 0.953789 0.697486 -0.228052
C137  C     C_R   0.766583 0.954788 0.284412 -0.209515
C138  C     C_R   0.052161 0.455560 0.305116 0.010313
C139  C     C_R   0.964673 0.455315 0.704017 0.016776
C140  C     C_R   0.558564 0.954767 0.306551 0.001738
C141  C     C_R   0.465023 0.955433 0.704184 -0.004207
C142  C     C_R   0.745275 0.545587 0.694958 0.212881
C143  C     C_R   0.268650 0.546023 0.284111 0.214586
C144  C     C_R   0.246943 0.045107 0.692933 0.200554
H1    H     H_    0.807213 0.665060 0.827495 0.100012
H2    H     H_    0.194774 0.239003 0.142951 0.122246
H3    H     H_    0.722820 0.870379 0.728091 0.194132
H4    H     H_    0.689810 0.529982 0.190721 0.264011
H5    H     H_    0.731409 0.554628 0.112489 0.261311
H6    H     H_    0.696040 0.483574 0.103008 0.252537
H7    H     H_    0.867520 0.490989 0.216357 0.202578
H8    H     H_    0.827802 0.468322 0.296938 0.186369
H9    H     H_    0.735043 0.635389 0.244843 0.269226
H10   H     H_    0.686998 0.610836 0.316225 0.262287
H11   H     H_    0.728195 0.681006 0.333046 0.249686
H12   H     H_    0.844083 0.627193 0.493133 0.201744
H13   H     H_    0.166433 0.811276 0.815818 0.114854
H14   H     H_    0.891841 0.648154 0.422200 0.186521
H15   H     H_    0.823174 0.123964 0.801319 0.264260
H16   H     H_    0.888161 0.080152 0.771252 0.255522
H17   H     H_    0.868956 0.151439 0.730406 0.247308
H18   H     H_    0.765678 0.092659 0.574700 0.193936
H19   H     H_    0.696641 0.133719 0.601389 0.194210
H20   H     H_    0.852744 0.023619 0.878839 0.265787
H21   H     H_    0.796668 0.062310 0.927737 0.258201
H22   H     H_    0.822908 0.990371 0.961558 0.251396
H23   H     H_    0.656442 0.999616 0.819906 0.202375
H24   H     H_    0.847875 0.822842 0.175224 0.126651
H25   H     H_    0.711463 0.966013 0.765740 0.183019
H26   H     H_    0.025817 0.623161 0.329810 0.078811
H27   H     H_    0.104469 0.619356 0.301005 0.104680
H28   H     H_    0.045522 0.615778 0.743950 0.113465
H29   H     H_    0.927495 0.625067 0.679863 0.092134
H30   H     H_    0.575368 0.124793 0.283815 0.091437
H31   H     H_    0.652052 0.100361 0.405692 0.105191
H32   H     H_    0.537344 0.120653 0.734320 0.095117
H33   H     H_    0.421411 0.122822 0.681835 0.115696
H34   H     H_    0.093842 0.380281 0.293475 0.100847
H35   H     H_    0.085128 0.733889 0.817826 0.120877
H36   H     H_    0.165675 0.410884 0.412954 0.094304
H37   H     H_    0.982991 0.378616 0.671241 0.089401
H38   H     H_    0.895046 0.384531 0.686351 0.101824
H39   H     H_    0.554375 0.877502 0.353176 0.080153
H40   H     H_    0.609781 0.883421 0.293349 0.111292
H41   H     H_    0.458802 0.878249 0.652069 0.091762
H42   H     H_    0.383619 0.889828 0.683146 0.108579
H43   H     H_    0.751842 0.572297 0.526432 0.268296
H44   H     H_    0.639042 0.601684 0.475982 0.269541
H45   H     H_    0.736045 0.646165 0.525410 0.251617
H46   H     H_    0.923813 0.742730 0.176542 0.125321
H47   H     H_    0.687900 0.627430 0.655177 0.174847
H48   H     H_    0.809121 0.622236 0.705521 0.188084
H49   H     H_    0.272059 0.556224 0.459504 0.264607
H50   H     H_    0.388739 0.583809 0.520059 0.256830
H51   H     H_    0.295972 0.628956 0.483663 0.244289
H52   H     H_    0.347741 0.622595 0.350119 0.177113
H53   H     H_    0.228419 0.624663 0.302357 0.179252
H54   H     H_    0.277671 0.070272 0.544449 0.267145
H55   H     H_    0.159447 0.095849 0.471891 0.258350
H56   H     H_    0.255207 0.143351 0.531913 0.242042
H57   H     H_    0.551705 0.255344 0.826812 0.118019
H58   H     H_    0.176940 0.123517 0.632876 0.174304
H59   H     H_    0.301655 0.126761 0.709573 0.177621
H60   H     H_    0.834350 0.067312 0.491222 0.264670
H61   H     H_    0.916197 0.115595 0.495230 0.263026
H62   H     H_    0.816049 0.140783 0.481277 0.241294
H63   H     H_    0.821186 0.129778 0.306400 0.176924
H64   H     H_    0.717688 0.121602 0.303871 0.181412
H65   H     H_    0.268762 0.154898 0.137943 0.130416
H66   H     H_    0.267823 0.754627 0.243623 0.062768
H67   H     H_    0.687315 0.719653 0.768827 0.072958
H68   H     H_    0.805528 0.218207 0.221066 0.077386
H69   H     H_    0.185553 0.671286 0.168280 0.074264
H70   H     H_    0.186210 0.222708 0.744989 0.062203
H71   H     H_    0.893098 0.288985 0.217205 0.120586
H72   H     H_    0.115775 0.302236 0.751457 0.098522
H73   H     H_    0.349194 0.832555 0.243626 0.088282
H74   H     H_    0.603142 0.792335 0.769119 0.118578
H75   H     H_    0.099833 0.441369 0.673219 0.146099
H76   H     H_    0.152068 0.443486 0.554469 0.132167
H77   H     H_    0.399058 0.941017 0.480120 0.146326
H78   H     H_    0.451863 0.935308 0.366136 0.135021
H79   H     H_    0.933580 0.369684 0.176943 0.119883
H80   H     H_    0.248751 0.124030 0.822744 0.086161
H81   H     H_    0.021328 0.336677 0.826477 0.096402
H82   H     H_    0.424120 0.871732 0.172755 0.091769
H83   H     H_    0.566809 0.868243 0.824298 0.102404
H84   H     H_    0.881872 0.590548 0.287975 0.141579
H85   H     H_    0.803856 0.530759 0.400820 0.137298
H86   H     H_    0.747241 0.008687 0.654317 0.134955
H87   H     H_    0.668300 0.092040 0.735370 0.142638
H88   H     H_    0.734356 0.411315 0.672992 0.124561
H89   H     H_    0.287684 0.410939 0.289457 0.122830
H90   H     H_    0.236045 0.911266 0.672011 0.120527
H91   H     H_    0.671333 0.170401 0.167768 0.103012
H92   H     H_    0.786415 0.912852 0.312079 0.116839
H93   H     H_    0.754062 0.370011 0.827084 0.091490
H94   H     H_    0.201134 0.338095 0.173453 0.087976
H95   H     H_    0.253746 0.875280 0.822970 0.092659
H96   H     H_    0.739267 0.863394 0.172385 0.090040
H97   H     H_    0.982472 0.666078 0.170858 0.075269
H98   H     H_    0.999983 0.669469 0.830264 0.090444
H99   H     H_    0.424196 0.133611 0.170202 0.111239
H100  H     H_    0.504858 0.170837 0.832355 0.075817
H101  H     H_    0.427383 0.485830 0.552583 0.127819
H102  H     H_    0.470880 0.582344 0.366194 0.105754
H103  H     H_    0.598086 0.503587 0.385997 0.125714
H104  H     H_    0.934230 0.981772 0.565315 0.121147
H105  H     H_    0.089914 0.009328 0.382532 0.129077
H106  H     H_    0.494648 0.373507 0.542453 0.102300
H107  H     H_    0.576765 0.404936 0.658942 0.096742
H108  H     H_    0.523577 0.387628 0.352928 0.107792
H109  H     H_    0.434814 0.424610 0.251412 0.107023
H110  H     H_    0.996072 0.870681 0.533454 0.102749
H111  H     H_    0.080091 0.898779 0.652971 0.097860
H112  H     H_    0.013949 0.894566 0.338823 0.104116
H113  H     H_    0.553114 0.572995 0.592777 0.110420
H114  H     H_    0.923519 0.933640 0.245603 0.108258
H115  H     H_    0.064868 0.858904 0.080691 0.256400
H116  H     H_    0.007799 0.793270 0.042882 0.255175
H117  H     H_    0.008323 0.835677 0.140728 0.245189
H118  H     H_    0.117660 0.751422 0.212528 0.154685
H119  H     H_    0.166528 0.813719 0.283333 0.183721
H120  H     H_    0.880587 0.826317 0.825490 0.262810
H121  H     H_    0.921617 0.755789 0.858654 0.259536
H122  H     H_    0.900033 0.788171 0.738968 0.246217
H123  H     H_    0.773267 0.722583 0.693349 0.166786
H124  H     H_    0.970197 0.087048 0.383900 0.119256
H125  H     H_    0.733312 0.789354 0.650727 0.215486
H126  H     H_    0.654981 0.335276 0.221952 0.259310
H127  H     H_    0.593222 0.270024 0.183082 0.262564
H128  H     H_    0.643231 0.297361 0.316290 0.246181
H129  H     H_    0.735596 0.220364 0.316158 0.168244
H130  H     H_    0.800778 0.280387 0.373525 0.202394
H131  H     H_    0.380530 0.255654 0.036718 0.257873
H132  H     H_    0.464463 0.224924 0.021737 0.247029
H133  H     H_    0.441899 0.297244 0.997866 0.240994
H134  H     H_    0.351624 0.205850 0.845388 0.151312
H135  H     H_    0.059751 0.068151 0.610586 0.103901
H136  H     H_    0.339948 0.275331 0.816312 0.174146
H137  H     H_    0.946635 0.302716 0.443524 0.250976
H138  H     H_    0.011261 0.334307 0.399182 0.263188
H139  H     H_    0.971269 0.375396 0.462976 0.267487
H140  H     H_    0.875430 0.390589 0.263869 0.176526
H141  H     H_    0.806810 0.364538 0.305136 0.202367
H142  H     H_    0.339757 0.364426 0.841568 0.261343
H143  H     H_    0.217424 0.365901 0.726617 0.256094
H144  H     H_    0.269298 0.421240 0.823868 0.249893
H145  H     H_    0.198533 0.376886 0.890547 0.177169
H146  H     H_    0.639753 0.331985 0.828338 0.116213
H147  H     H_    0.304939 0.340466 0.967377 0.197102
H148  H     H_    0.166437 0.906481 0.260888 0.264925
H149  H     H_    0.286360 0.884364 0.356141 0.253055
H150  H     H_    0.258578 0.955317 0.309369 0.248340
H151  H     H_    0.299043 0.925871 0.198034 0.160932
H152  H     H_    0.178435 0.911277 0.113452 0.176218
H153  H     H_    0.582069 0.799513 0.571197 0.254011
H154  H     H_    0.512419 0.855018 0.560239 0.254593
H155  H     H_    0.602975 0.868028 0.542314 0.258874
H156  H     H_    0.627412 0.891215 0.731230 0.171083
N1    N     N_R   0.892620 0.603790 0.941770 -0.041267
N2    N     N_R   0.973690 0.529110 0.793240 -0.061547
N3    N     N_R   0.526310 0.029110 0.206760 -0.061321
N4    N     N_R   0.473690 0.029110 0.793240 -0.058210
N5    N     N_R   0.818570 0.472310 0.793020 -0.048088
N6    N     N_R   0.181430 0.472310 0.206980 -0.048640
N7    N     N_R   0.318570 0.972310 0.793020 -0.046928
N8    N     N_R   0.681430 0.972310 0.206980 -0.047385
N9    N     N_R   0.026930 0.472300 0.207330 -0.062199
N10   N     N_R   0.973070 0.472300 0.792670 -0.058566
N11   N     N_R   0.526930 0.972300 0.207330 -0.058591
N12   N     N_R   0.107380 0.603790 0.058230 -0.043228
N13   N     N_R   0.473070 0.972300 0.792670 -0.056770
N14   N     N_R   0.817960 0.529130 0.792460 -0.069722
N15   N     N_R   0.182040 0.529130 0.207540 -0.065739
N16   N     N_R   0.317960 0.029130 0.792460 -0.066581
N17   N     N_R   0.682040 0.029130 0.207540 -0.070053
N18   N     N_R   0.894850 0.397640 0.943830 -0.036519
N19   N     N_R   0.105150 0.397640 0.056170 -0.035034
N20   N     N_R   0.394850 0.897640 0.943830 -0.039380
N21   N     N_R   0.605150 0.897640 0.056170 -0.039947
N22   N     N_R   0.950040 0.603780 0.055950 -0.038614
N23   N     N_R   0.392620 0.103790 0.941770 -0.046302
N24   N     N_R   0.049960 0.603780 0.944050 -0.038570
N25   N     N_R   0.450040 0.103780 0.055950 -0.041927
N26   N     N_R   0.549960 0.103780 0.944050 -0.039191
N27   N     N_3   0.556563 0.396638 0.580378 -0.229981
N28   N     N_3   0.462377 0.408251 0.328522 -0.226516
N29   N     N_3   0.058041 0.893834 0.572773 -0.230663
N30   N     N_3   0.954324 0.914587 0.321258 -0.232044
N31   N     N_3   0.082036 0.600554 0.344084 -0.211309
N32   N     N_3   0.978301 0.601776 0.682958 -0.228207
N33   N     N_3   0.580703 0.100607 0.344442 -0.221855
N34   N     N_R   0.607380 0.103790 0.058230 -0.041185
N35   N     N_3   0.471886 0.102598 0.679276 -0.222208
N36   N     N_3   0.094786 0.403484 0.351843 -0.222955
N37   N     N_3   0.927190 0.403051 0.653329 -0.216237
N38   N     N_3   0.601063 0.902146 0.348697 -0.218330
N39   N     N_3   0.412756 0.907102 0.645614 -0.224004
N40   N     N_R   0.952270 0.397640 0.058010 -0.038266
N41   N     N_R   0.047730 0.397640 0.941990 -0.038157
N42   N     N_R   0.452270 0.897640 0.058010 -0.041416
N43   N     N_R   0.547730 0.897640 0.941990 -0.039232
N44   N     N_R   0.026310 0.529110 0.206760 -0.062779
Ni1   Ni    Ni4+2 0.934160 0.565860 0.869070 0.193598
Ni2   Ni    Ni4+2 0.065840 0.565860 0.130930 0.192299
Ni3   Ni    Ni4+2 0.434160 0.065860 0.869070 0.191608
Ni4   Ni    Ni4+2 0.565840 0.065860 0.130930 0.189844
Ni5   Ni    Ni4+2 0.067260 0.435560 0.132230 0.194647
Ni6   Ni    Ni4+2 0.932740 0.435560 0.867770 0.199103
Ni7   Ni    Ni4+2 0.567260 0.935560 0.132230 0.199431
Ni8   Ni    Ni4+2 0.432740 0.935560 0.867770 0.199206

loop_
_geom_bond_atom_site_label_1
_geom_bond_atom_site_label_2
_ccdc_geom_bond_type
H30   N33   S    
C29   H142  S    
C77   C101  S    
C19   C20   S    
C21   H130  S    
C114  C115  A    
C51   H62   S    
H112  N30   S    
C48   H59   S    
C52   C144  A    
C53   C137  A    
C47   H51   S    
C67   H102  S    
C95   C99   A    
C88   H83   S    
C62   C70   S    
N8    Ni7   S    
N3    Ni4   S    
C89   C94   A    
C2    C116  S    
C36   H4    S    
H38   N37   S    
C4    H93   S    
C84   C91   A    
N5    Ni6   S    
N1    Ni1   S    
C81   H146  S    
N17   Ni4   S    
C33   H153  S    
C61   C71   S    
N12   Ni2   S    
C21   C22   S    
H26   N31   S    
C15   C97   S    
C83   C89   A    
C103  H66   S    
C23   H134  S    
C30   H151  S    
C45   C47   S    
C5    C101  A    
C141  N13   A    
C5    H94   S    
C54   N27   S    
C30   C109  S    
C85   N40   A    
N11   Ni7   S    
H28   N32   S    
C73   C108  S    
C87   C112  A    
C41   H25   S    
N5    N14   A    
C43   C44   S    
H41   N39   S    
C8    N22   A    
C37   C38   S    
C84   H24   S    
C114  C128  S    
C83   H13   S    
C24   C141  A    
N43   Ni8   S    
N23   Ni3   S    
N24   Ni1   S    
C86   N41   A    
C111  C113  A    
C18   H115  S    
C137  N8    A    
C59   C69   S    
H107  N27   S    
C124  H78   S    
C29   H144  S    
H27   N31   S    
C121  H76   S    
C2    C139  A    
C4    N18   A    
C51   H60   S    
C5    N19   A    
N3    N11   A    
C6    N20   A    
C14   C57   A    
C47   H49   S    
C10   H99   S    
C7    C123  A    
C19   C104  S    
C85   C90   A    
C70   H124  S    
C59   C63   S    
C60   C64   S    
C20   H120  S    
C104  C110  S    
C36   H6    S    
C139  N10   A    
C77   C82   A    
C28   C108  S    
C34   C125  S    
C56   C66   S    
C3    N17   A    
N10   Ni6   S    
C33   H155  S    
C61   C65   S    
C107  H71   S    
C73   C77   A    
C43   C142  S    
C80   C123  S    
C50   H64   S    
C22   H127  S    
N26   N34   A    
C40   H15   S    
C1    H1    S    
C19   H125  S    
C32   H3    S    
C105  C107  S    
C48   C144  S    
C105  H68   S    
C131  N3    A    
C87   N42   A    
C25   H132  S    
C120  H75   S    
C42   H20   S    
C140  N11   A    
C45   H53   S    
C65   C70   S    
C48   H58   S    
C92   C96   A    
C118  C122  A    
C17   H118  S    
C81   C92   A    
C60   C67   S    
N4    Ni3   S    
C136  H90   S    
C12   C95   S    
C88   N43   A    
C125  H84   S    
C53   C65   S    
C26   H140  S    
H114  N30   S    
C42   H21   S    
N7    Ni8   S    
C45   H52   S    
C9    N24   A    
N19   N41   A    
C37   H12   S    
C68   H80   S    
C1    C12   A    
C38   H11   S    
H29   N32   S    
C3    C50   S    
N21   N43   A    
C54   C59   S    
C106  H70   S    
C16   C96   S    
C62   C66   S    
N9    Ni5   S    
C126  H85   S    
C26   H141  S    
H37   N37   S    
C144  N16   A    
C20   H122  S    
C39   C40   S    
C138  N9    A    
C34   H8    S    
C71   H135  S    
C116  C120  A    
N23   N25   A    
N15   Ni2   S    
N41   Ni6   S    
C58   C65   S    
C8    C12   A    
C87   H82   S    
C75   C99   A    
C17   C18   S    
C64   C69   S    
C39   H18   S    
C70   C71   S    
C113  C117  A    
C57   H69   S    
C43   H48   S    
C115  C119  A    
C74   C78   A    
C52   C136  A    
C122  C124  A    
C93   C97   A    
C120  C121  A    
C19   H123  S    
C37   C126  S    
C49   H55   S    
N16   Ni3   S    
C54   C55   S    
C75   C110  S    
C21   H129  S    
C51   H61   S    
N6    Ni5   S    
C6    H95   S    
C55   N28   S    
C46   C63   S    
C133  H88   S    
C79   H91   S    
C3    C53   A    
C106  C108  S    
C8    H97   S    
C96   C100  A    
C56   C58   S    
N9    N44   A    
C34   C36   S    
C109  H73   S    
C44   H43   S    
C91   C95   A    
C42   H22   S    
C130  N32   S    
C7    H96   S    
C60   H103  S    
N1    N22   A    
C86   H81   S    
C38   H9    S    
C139  N37   S    
C135  N6    A    
H34   N36   S    
C58   C62   S    
H40   N38   S    
C41   C42   S    
C141  N39   S    
C80   C84   A    
C35   C133  A    
C27   H138  S    
C32   H156  S    
C30   H152  S    
N4    N13   A    
N2    Ni1   S    
H42   N39   S    
C61   H104  S    
H111  N29   S    
C26   C27   S    
C32   C110  S    
N6    N15   A    
C69   H113  S    
C28   C29   S    
C28   H145  S    
N8    N17   A    
C30   C31   S    
C7    N21   A    
C94   C98   A    
C98   C103  S    
C46   C135  A    
H36   N36   S    
C78   C83   A    
C26   C107  S    
C111  C116  A    
N25   Ni4   S    
H108  N28   S    
C18   H116  S    
C97   C102  A    
C99   C104  S    
C29   H143  S    
C82   C93   A    
C55   C60   S    
C130  N2    A    
C117  C134  S    
H32   N35   S    
C82   H2    S    
C4    C90   A    
C10   N25   A    
N20   Ni8   S    
C18   H117  S    
C74   C98   A    
N12   N24   A    
C127  H86   S    
C76   C81   A    
C9    C14   A    
C13   C140  A    
C27   H137  S    
C44   H45   S    
C11   C16   A    
C24   C132  A    
C66   C71   S    
C34   H7    S    
C129  N44   A    
C50   C51   S    
C13   C131  A    
C11   N26   A    
C59   H101  S    
C137  H92   S    
C85   H79   S    
C108  H72   S    
C33   H154  S    
C73   C102  A    
C128  H87   S    
C125  C126  S    
C142  N14   A    
C39   H19   S    
C127  C128  S    
C52   C66   S    
C132  N35   S    
C22   H128  S    
N18   N40   A    
C6    C112  A    
C40   H16   S    
H33   N35   S    
C28   H147  S    
C103  C109  S    
C16   C79   A    
C32   C33   S    
C140  N38   S    
C40   H17   S    
C25   H131  S    
H39   N38   S    
C2    C130  A    
N40   Ni5   S    
N14   Ni1   S    
N42   Ni7   S    
C129  C134  A    
N21   Ni7   S    
C132  N4    A    
C45   C143  S    
C56   C61   S    
C78   C112  S    
C143  N15   A    
C14   C94   S    
C21   C105  S    
C31   H149  S    
C76   C90   S    
C79   N34   A    
C47   H50   S    
N26   Ni3   S    
C72   C76   A    
C74   C109  S    
N22   Ni2   S    
C119  C124  A    
C100  C105  S    
C54   C64   S    
C68   N23   A    
C10   C15   A    
C27   H139  S    
C36   H5    S    
C113  C125  S    
C115  C127  S    
C58   N30   S    
C117  C121  A    
C56   N29   S    
C62   H105  S    
H109  N28   S    
C122  H77   S    
C135  H89   S    
C35   C64   S    
H106  N27   S    
C75   C80   A    
C50   H63   S    
C22   H126  S    
C89   H35   S    
C43   H47   S    
C11   H100  S    
C41   C128  S    
C1    N1    A    
C111  C126  S    
C88   C123  A    
C9    H98   S    
N20   N42   A    
C13   C119  S    
C49   H54   S    
H110  N29   S    
C91   H46   S    
C63   C67   S    
C39   C127  S    
C25   H133  S    
C31   H148  S    
C35   C142  A    
N34   Ni4   S    
C23   C106  S    
N13   Ni8   S    
C55   C63   S    
C67   C69   S    
C37   H14   S    
C17   H119  S    
C72   C107  S    
N2    N10   A    
C133  N5    A    
C114  C118  A    
C44   H44   S    
N44   Ni2   S    
N18   Ni6   S    
C93   H65   S    
C38   H10   S    
C129  N31   S    
C72   C100  A    
C138  N36   S    
C48   C49   S    
C57   N12   A    
C20   H121  S    
C134  C138  A    
C23   H136  S    
C31   H150  S    
C46   C143  A    
N19   Ni5   S    
C24   C118  S    
C17   C103  S    
C136  N7    A    
C15   C68   A    
C41   H23   S    
C102  C106  S    
C23   C25   S    
C110  H74   S    
H31   N33   S    
C131  N33   S    
N7    N16   A    
C104  H67   S    
C86   C101  A    
C92   H57   S    
C49   H56   S    
