data_mof_unit_7401.cif
_audit_creation_date              2012-12-11T14:35:54-0500
_audit_creation_method            fapswitch 2.2
_symmetry_space_group_name_H-M    P1
_symmetry_Int_Tables_number       1
_space_group_crystal_system       triclinic
_cell_length_a                    13.476506
_cell_length_b                    13.49085
_cell_length_c                    27.501432
_cell_angle_alpha                 90.832924
_cell_angle_beta                  90.086281
_cell_angle_gamma                 60.061164
_cell_volume                      4332.25936501

loop_
_atom_site_label
_atom_site_type_symbol
_atom_type_description
_atom_site_fract_x
_atom_site_fract_y
_atom_site_fract_z
_atom_type_partial_charge
C1    C     C_R   0.620177 0.101468 0.570223 0.545682
C2    C     C_1   0.649046 0.705809 0.658581 -0.058983
C3    C     C_3   0.090344 0.134179 0.738101 -0.101934
C4    C     C_R   0.599542 0.779777 0.568836 0.545065
C5    C     C_3   0.182106 0.060404 0.776065 -0.100391
C6    C     C_1   0.096932 0.201126 0.901798 -0.016411
C7    C     C_1   0.229778 0.138283 0.617665 -0.016397
C8    C     C_3   0.055197 0.242530 0.769950 -0.101452
C9    C     C_3   0.147387 0.168584 0.807066 0.052762
C10   C     C_3   0.144325 0.263068 0.743333 -0.099101
C11   C     C_3   0.179078 0.155004 0.712252 0.052593
C12   C     C_1   0.630808 0.732863 0.616540 -0.016348
C13   C     C_3   0.236048 0.189385 0.781148 -0.101863
C14   C     C_3   0.271300 0.081015 0.749343 -0.102951
C15   C     C_1   0.124702 0.181873 0.859555 -0.058889
C16   C     C_R   0.277794 0.121909 0.569733 0.545000
C17   C     C_1   0.201834 0.147285 0.659829 -0.059118
C18   C     C_3   0.628960 0.277302 0.740145 -0.101815
C19   C     C_3   0.554866 0.258926 0.778113 -0.099981
C20   C     C_1   0.691484 0.207642 0.902954 -0.015850
C21   C     C_1   0.635190 0.133785 0.618385 -0.016588
C22   C     C_3   0.737070 0.204641 0.771047 -0.101515
C23   C     C_3   0.699158 0.561480 0.767700 -0.101546
C24   C     C_3   0.662819 0.185994 0.808180 0.052867
C25   C     C_3   0.758450 0.094888 0.743378 -0.099245
C26   C     C_3   0.650587 0.167699 0.713245 0.052606
C27   C     C_3   0.684440 0.076459 0.781229 -0.102064
C28   C     C_R   0.622095 0.098865 0.430978 0.546585
C29   C     C_3   0.576302 0.149055 0.750354 -0.103018
C30   C     C_1   0.674573 0.196604 0.860702 -0.058675
C31   C     C_1   0.643494 0.152794 0.660705 -0.059164
C32   C     C_R   0.736465 0.702180 0.359856 -0.137651
C33   C     C_R   0.748752 0.683718 0.309552 0.016324
C34   C     C_3   0.679249 0.654854 0.805566 0.052778
C35   C     C_R   0.763461 0.662094 0.207760 0.016222
C36   C     C_R   0.853405 0.659584 0.234473 -0.132929
C37   C     C_R   0.845753 0.671121 0.285115 -0.135104
C38   C     C_R   0.773234 0.641967 0.157563 -0.136784
C39   C     C_R   0.684343 0.638729 0.132194 -0.005296
C40   C     C_R   0.602217 0.775246 0.430501 0.546337
C41   C     C_R   0.555525 0.703123 0.356968 -0.129218
C42   C     C_R   0.562906 0.692224 0.306877 0.013782
C43   C     C_R   0.659019 0.684093 0.282861 0.065399
C44   C     C_R   0.472222 0.696237 0.280401 -0.132258
C45   C     C_3   0.589766 0.649051 0.740874 -0.099248
C46   C     C_R   0.475755 0.694028 0.229959 -0.133033
C47   C     C_R   0.571954 0.683394 0.205748 0.013865
C48   C     C_R   0.664584 0.677347 0.232101 0.065116
C49   C     C_R   0.580300 0.670231 0.155711 -0.130423
C50   C     C_R   0.636843 0.717858 0.383110 -0.003660
C51   C     C_R   0.217137 0.054520 0.357782 -0.134130
C52   C     C_R   0.277517 0.120673 0.431191 0.547790
C53   C     C_R   0.189710 0.068946 0.308370 0.014519
C54   C     C_R   0.149255 0.095371 0.207797 0.015469
C55   C     C_R   0.173241 0.992888 0.230067 -0.126166
C56   C     C_3   0.662992 0.684210 0.710902 0.052701
C57   C     C_R   0.194346 0.979402 0.280005 -0.125026
C58   C     C_R   0.125139 0.111402 0.158089 -0.133489
C59   C     C_R   0.099785 0.215366 0.136766 -0.002966
C60   C     C_R   0.178978 0.250588 0.363823 -0.128557
C61   C     C_R   0.155756 0.264851 0.314508 0.013587
C62   C     C_R   0.162877 0.173220 0.286392 0.062466
C63   C     C_R   0.132155 0.367183 0.292473 -0.125355
C64   C     C_3   0.772263 0.597028 0.736952 -0.101595
C65   C     C_R   0.117879 0.378081 0.242437 -0.124347
C66   C     C_R   0.124092 0.287915 0.214216 0.012262
C67   C     C_3   0.570067 0.741972 0.779457 -0.101952
C68   C     C_R   0.145507 0.185354 0.236107 0.062365
C69   C     C_R   0.104863 0.300714 0.164627 -0.127566
C70   C     C_R   0.217003 0.143666 0.384922 -0.004997
C71   C     C_R   0.570283 0.237644 0.363330 -0.133770
C72   C     C_R   0.575513 0.256265 0.313656 0.015756
C73   C     C_R   0.585413 0.289384 0.213408 0.013054
C74   C     C_R   0.511489 0.381220 0.243897 -0.126863
C75   C     C_R   0.505658 0.364472 0.293653 -0.127416
C76   C     C_3   0.752594 0.689991 0.775665 -0.100322
C77   C     C_R   0.597900 0.306116 0.164214 -0.134926
C78   C     C_3   0.643096 0.777597 0.748759 -0.102976
C79   C     C_R   0.677198 0.213969 0.135111 -0.004797
C80   C     C_R   0.720813 0.039496 0.352195 -0.126723
C81   C     C_R   0.723539 0.055292 0.302706 0.010204
C82   C     C_R   0.650536 0.163810 0.283152 0.062480
C83   C     C_R   0.796097 0.962984 0.272381 -0.125859
C84   C     C_R   0.796651 0.977829 0.222550 -0.126079
C85   C     C_R   0.726893 0.085973 0.202833 0.013647
C86   C     C_R   0.653349 0.179616 0.233053 0.062700
C87   C     C_R   0.735244 0.103279 0.153819 -0.128849
C88   C     C_1   0.697196 0.607830 0.900124 -0.016608
C89   C     C_1   0.688198 0.633818 0.857944 -0.059205
C90   C     C_R   0.641661 0.128674 0.382446 -0.001285
C91   C     C_R   0.049290 0.236135 0.949752 0.545469
C92   C     C_R   0.711626 0.562848 0.948154 0.544734
C93   C     C_R   0.722197 0.225383 0.950905 0.544439
C94   C     C_R   0.047129 0.246038 0.088769 0.547460
C95   C     C_R   0.707404 0.575964 0.086120 0.546350
C96   C     C_R   0.718143 0.234356 0.089293 0.547849
Cr1   Cr    Cr6+3 0.417550 0.169090 0.500530 1.021753
Cr2   Cr    Cr6+3 0.669180 0.913420 0.499920 1.019985
Cr3   Cr    Cr6+3 0.413260 0.917540 0.499520 1.019927
Cr4   Cr    Cr6+3 0.909170 0.177380 0.020380 1.021033
Cr5   Cr    Cr6+3 0.912710 0.429210 0.018220 1.019699
Cr6   Cr    Cr6+3 0.657170 0.432570 0.019030 1.020234
H1    H     H_    0.819183 0.707254 0.790567 0.103859
H2    H     H_    0.853061 0.619535 0.139216 0.118974
H3    H     H_    0.855151 0.537211 0.719017 0.103077
H4    H     H_    0.800170 0.711932 0.380169 0.116343
H5    H     H_    0.929468 0.648645 0.216214 0.091944
H6    H     H_    0.510142 0.671027 0.135979 0.127936
H7    H     H_    0.404787 0.697472 0.209934 0.094973
H8    H     H_    0.397819 0.703103 0.298690 0.092388
H9    H     H_    0.479450 0.712628 0.374806 0.128434
H10   H     H_    0.121372 0.045386 0.136576 0.119258
H11   H     H_    0.245872 0.971945 0.374098 0.123495
H12   H     H_    0.296192 0.211656 0.799257 0.103146
H13   H     H_    0.176320 0.923079 0.208853 0.100883
H14   H     H_    0.619957 0.866856 0.740374 0.100435
H15   H     H_    0.214567 0.898998 0.296410 0.099264
H16   H     H_    0.085148 0.381445 0.148576 0.129791
H17   H     H_    0.101386 0.457150 0.225832 0.098316
H18   H     H_    0.127333 0.437720 0.313766 0.100400
H19   H     H_    0.176908 0.320281 0.384834 0.129009
H20   H     H_    0.552576 0.391748 0.149678 0.126232
H21   H     H_    0.508843 0.306344 0.386686 0.116409
H22   H     H_    0.458945 0.466010 0.229340 0.105980
H23   H     H_    0.128330 0.346547 0.729362 0.104016
H24   H     H_    0.447652 0.436305 0.316545 0.103082
H25   H     H_    0.794983 0.031749 0.131131 0.126800
H26   H     H_    0.487120 0.801786 0.797356 0.103111
H27   H     H_    0.853895 0.905595 0.199639 0.104029
H28   H     H_    0.852425 0.879461 0.287247 0.105716
H29   H     H_    0.775342 0.954621 0.366436 0.131320
H30   H     H_    0.523132 0.631762 0.726038 0.104074
H31   H     H_    0.722206 0.472243 0.776077 0.098623
H32   H     H_    0.198060 0.977008 0.790111 0.103880
H33   H     H_    0.030196 0.111981 0.719951 0.102955
H34   H     H_    0.471066 0.326016 0.792986 0.104185
H35   H     H_    0.360585 0.014305 0.740270 0.100619
H36   H     H_    0.965927 0.309328 0.778993 0.099363
H37   H     H_    0.915494 0.670231 0.305135 0.092999
H38   H     H_    0.606635 0.359614 0.722800 0.102409
H39   H     H_    0.509876 0.126116 0.741239 0.100509
H40   H     H_    0.706831 0.994089 0.798537 0.102929
H41   H     H_    0.842319 0.027767 0.728566 0.104079
H42   H     H_    0.803577 0.227486 0.780129 0.099439
O1    O     O_R   0.301710 0.195650 0.554160 -0.508486
O2    O     O_R   0.635520 0.542770 0.964420 -0.507951
O3    O     O_R   0.665950 0.325030 0.970100 -0.494856
O4    O     O_R   0.522390 0.158990 0.550460 -0.495217
O5    O     O_R   0.816620 0.158530 0.074540 -0.519495
O6    O     O_R   0.004460 0.188870 0.069750 -0.499184
O7    O     O_R   0.025800 0.341780 0.072300 -0.523227
O8    O     O_R   0.807650 0.528950 0.067500 -0.502504
O9    O     O_R   0.633420 0.550490 0.071810 -0.523403
O10   O     O_R   0.664000 0.332180 0.069640 -0.501681
O11   O     O_3   0.826350 0.346390 0.019210 -0.243428
O12   O     O_R   0.658900 0.818120 0.449760 -0.502593
O13   O     O_R   0.694390 0.003530 0.554040 -0.506755
O14   O     O_R   0.657700 0.819660 0.549320 -0.495218
O15   O     O_R   0.501930 0.803280 0.552920 -0.507818
O16   O     O_R   0.318170 0.023580 0.549580 -0.494651
O17   O     O_R   0.303010 0.193990 0.446760 -0.520068
O18   O     O_R   0.523600 0.157450 0.450900 -0.498578
O19   O     O_R   0.695690 0.001860 0.446640 -0.523050
O20   O     O_R   0.503220 0.801620 0.445520 -0.524040
O21   O     O_R   0.319370 0.022040 0.450020 -0.502174
O22   O     O_3   0.499990 0.000010 0.499990 -0.243876
O23   O     O_R   0.818720 0.150820 0.967160 -0.508655
O24   O     O_R   0.006410 0.181720 0.970200 -0.495481
O25   O     O_R   0.027890 0.334070 0.964920 -0.506798
O26   O     O_R   0.809600 0.521790 0.967960 -0.495685

loop_
_geom_bond_atom_site_label_1
_geom_bond_atom_site_label_2
_ccdc_geom_bond_type
C74   H22   S    
C20   C93   S    
C63   C65   A    
C1    C21   S    
C23   C45   S    
Cr3   O15   S    
C27   C29   S    
C41   C42   A    
C69   H16   S    
C66   C68   A    
C35   C36   A    
C18   C26   S    
C24   C27   S    
C9    C15   S    
C2    C12   T    
C79   C87   A    
C81   C82   A    
C28   O18   A    
C64   H3    S    
C47   C49   A    
C20   C30   T    
C85   C86   A    
C21   C31   T    
C51   H11   S    
Cr4   O23   S    
C58   H10   S    
C71   H21   S    
C36   C37   A    
C76   C78   S    
C40   O20   A    
C38   C39   A    
Cr6   O3    S    
C11   C14   S    
C4    O15   A    
C54   C68   A    
Cr5   O11   S    
Cr1   O22   S    
C84   H27   S    
C27   H40   S    
C56   C78   S    
C8    H36   S    
C18   C19   S    
C73   C74   A    
C61   C63   A    
C9    C13   S    
C38   H2    S    
C77   H20   S    
C6    C15   T    
C54   C55   A    
C96   O10   A    
Cr2   O14   S    
C45   C56   S    
C92   O26   A    
C8    C9    S    
C7    C17   T    
C22   C25   S    
C45   C67   S    
C56   C64   S    
Cr5   O25   S    
C26   C29   S    
C59   C94   S    
C4    C12   S    
C10   H23   S    
C43   C48   A    
Cr6   O10   S    
C3    H33   S    
C13   H12   S    
C52   O17   A    
Cr3   O22   S    
C61   C62   A    
C76   H1    S    
C85   C87   A    
C26   C31   S    
C80   H29   S    
C32   H4    S    
C13   C14   S    
C36   H5    S    
C19   H34   S    
C25   H41   S    
C67   C78   S    
C42   C44   A    
C72   C75   A    
C35   C48   A    
C87   H25   S    
C81   C83   A    
C44   C46   A    
Cr2   O19   S    
C49   H6    S    
C77   C79   A    
C65   H17   S    
C5    H32   S    
Cr2   O12   S    
C74   C75   A    
C91   O25   A    
C92   O2    A    
C33   C43   A    
C88   C92   S    
C91   O24   A    
C35   C38   A    
C3    C11   S    
C84   C85   A    
C83   H28   S    
C3    C8    S    
C14   H35   S    
C23   H31   S    
Cr4   O6    S    
C25   C26   S    
C82   C86   A    
Cr5   O7    S    
C33   C37   A    
C60   C61   A    
C95   O9    A    
C5    C9    S    
C52   O21   A    
C53   C62   A    
C40   O12   A    
C47   C48   A    
Cr2   O13   S    
C60   C70   A    
C23   C34   S    
C29   H39   S    
C64   C76   S    
Cr5   O26   S    
C88   C89   T    
C18   H38   S    
Cr6   O9    S    
C32   C50   A    
C5    C14   S    
Cr2   O22   S    
C59   C69   A    
Cr4   O11   S    
C23   C64   S    
C51   C70   A    
C65   C66   A    
Cr1   O17   S    
C55   C57   A    
C41   H9    S    
Cr1   O4    S    
C22   C24   S    
C83   C84   A    
C94   O6    A    
C42   C43   A    
C19   C29   S    
C41   C50   A    
C57   H15   S    
C54   C58   A    
C46   C47   A    
C7    C16   S    
C53   C57   A    
C39   C49   A    
C18   C22   S    
Cr1   O1    S    
C78   H14   S    
C80   C81   A    
C3    C5    S    
C10   C13   S    
C11   C17   S    
C34   C67   S    
Cr4   O5    S    
C25   C27   S    
Cr5   O8    S    
C94   O7    A    
C62   C68   A    
Cr4   O24   S    
C75   H24   S    
C32   C33   A    
C1    O13   A    
C19   C24   S    
C58   C59   A    
C34   C89   S    
C71   C72   A    
C2    C56   S    
C67   H26   S    
Cr6   O2    S    
C63   H18   S    
C71   C90   A    
C55   H13   S    
C40   C50   S    
C96   O5    A    
C93   O3    A    
C39   C95   S    
C80   C90   A    
C60   H19   S    
C24   C30   S    
C73   C86   A    
C52   C70   S    
C10   C11   S    
Cr3   O20   S    
C66   C69   A    
C4    O14   A    
C79   C96   S    
C16   O16   A    
C93   O23   A    
C45   H30   S    
C8    C10   S    
Cr1   O18   S    
C37   H37   S    
C46   H7    S    
C22   H42   S    
C73   C77   A    
C16   O1    A    
C1    O4    A    
C28   C90   S    
C95   O8    A    
C51   C53   A    
Cr3   O16   S    
Cr6   O11   S    
C72   C82   A    
C6    C91   S    
C28   O19   A    
C34   C76   S    
Cr3   O21   S    
C44   H8    S    
