data_mof_unit_54890.cif
_audit_creation_date              2012-12-10T17:21:16-0500
_audit_creation_method            fapswitch 2.2
_symmetry_space_group_name_H-M    P1
_symmetry_Int_Tables_number       1
_space_group_crystal_system       triclinic
_cell_length_a                    18.351454
_cell_length_b                    25.789373
_cell_length_c                    18.257847
_cell_angle_alpha                 89.796416
_cell_angle_beta                  90.069787
_cell_angle_gamma                 89.864946
_cell_volume                      8640.85170357

loop_
_atom_site_label
_atom_site_type_symbol
_atom_type_description
_atom_site_fract_x
_atom_site_fract_y
_atom_site_fract_z
_atom_type_partial_charge
C1    C     C_R   0.389697 0.249958 0.139923 0.481908
C2    C     C_R   0.516183 0.106146 0.823748 -0.123348
C3    C     C_R   0.969915 0.109575 0.165769 0.114359
C4    C     C_R   0.397701 0.809403 0.407104 0.136600
C5    C     C_R   0.396007 0.313065 0.581512 0.116247
C6    C     C_R   0.656307 0.307511 0.145886 0.119719
C7    C     C_R   0.551069 0.610258 0.734749 0.104689
C8    C     C_R   0.951226 0.234118 0.905968 -0.127272
C9    C     C_R   0.015737 0.842630 0.167938 -0.116481
C10   C     C_R   0.964731 0.715555 0.893575 -0.093285
C11   C     C_R   0.020690 0.149611 0.163486 -0.103179
C12   C     C_R   0.467260 0.790037 0.390767 -0.130956
C13   C     C_R   0.342264 0.196514 0.355926 -0.127020
C14   C     C_R   0.456584 0.281765 0.594079 -0.134697
C15   C     C_R   0.640576 0.288379 0.215670 -0.100903
C16   C     C_R   0.578392 0.658716 0.716932 -0.083123
C17   C     C_R   0.211469 0.053662 0.130299 -0.085567
C18   C     C_R   0.211511 0.945686 0.130177 -0.097202
C19   C     C_R   0.775055 0.553614 0.633128 -0.074488
C20   C     C_R   0.775288 0.445616 0.632997 -0.089580
C21   C     C_R   0.192131 0.026452 0.193403 -0.115640
C22   C     C_R   0.192221 0.972562 0.193363 -0.118335
C23   C     C_R   0.787351 0.526334 0.698011 -0.110556
C24   C     C_R   0.449138 0.891167 0.753301 -0.123081
C25   C     C_R   0.787472 0.472455 0.697957 -0.118130
C26   C     C_R   0.230309 0.972593 0.065041 0.010290
C27   C     C_R   0.230418 0.027103 0.065140 0.014855
C28   C     C_R   0.762892 0.472568 0.566326 0.007539
C29   C     C_R   0.762898 0.527076 0.566366 0.012873
C30   C     C_R   0.248939 0.946255 0.000010 0.015971
C31   C     C_R   0.249778 0.053789 0.000390 0.016901
C32   C     C_R   0.749700 0.446242 0.500003 0.012142
C33   C     C_R   0.750026 0.553790 0.500002 0.014612
C34   C     C_R   0.264556 0.972989 0.934322 0.014172
C35   C     C_R   0.085824 0.340330 0.617708 -0.102271
C36   C     C_R   0.265935 0.027473 0.934741 0.011861
C37   C     C_R   0.736166 0.472968 0.433765 0.008309
C38   C     C_R   0.736427 0.527475 0.433745 0.008833
C39   C     C_R   0.276711 0.946526 0.867527 -0.092958
C40   C     C_R   0.281427 0.054431 0.868772 -0.095116
C41   C     C_R   0.723022 0.446431 0.367190 -0.087443
C42   C     C_R   0.723640 0.554424 0.367127 -0.093107
C43   C     C_R   0.289958 0.973848 0.802927 -0.129213
C44   C     C_R   0.293260 0.027656 0.803717 -0.122598
C45   C     C_R   0.710214 0.473679 0.302362 -0.117134
C46   C     C_R   0.045577 0.625963 0.345669 -0.116489
C47   C     C_R   0.710542 0.527578 0.302329 -0.121432
C48   C     C_R   0.250035 0.109417 0.000429 0.485611
C49   C     C_R   0.249820 0.890599 0.000114 0.484168
C50   C     C_R   0.750058 0.609419 0.500016 0.484060
C51   C     C_R   0.749926 0.390593 0.499953 0.490298
C52   C     C_R   0.249225 0.391387 0.999699 0.532345
C53   C     C_R   0.251161 0.608723 0.000034 0.527513
C54   C     C_R   0.751495 0.891342 0.500065 0.519481
C55   C     C_R   0.750203 0.108629 0.500076 0.515221
C56   C     C_3   0.304672 0.469200 0.057611 -0.275877
C57   C     C_R   0.104074 0.803224 0.590594 -0.115676
C58   C     C_3   0.174040 0.531080 0.015280 -0.278107
C59   C     C_3   0.299996 0.528716 0.063132 -0.299100
C60   C     C_3   0.174466 0.471325 0.022134 -0.304107
C61   C     C_3   0.723153 0.970581 0.573374 -0.299811
C62   C     C_3   0.704796 0.029780 0.438984 -0.267158
C63   C     C_3   0.728415 0.029722 0.574928 -0.287248
C64   C     C_3   0.702883 0.970233 0.439940 -0.261089
C65   C     C_3   0.277355 0.469625 0.919988 0.567059
C66   C     C_3   0.276152 0.531107 0.919291 0.566658
C67   C     C_3   0.835671 0.969426 0.482195 0.557965
C68   C     C_R   0.118218 0.292390 0.421211 -0.126874
C69   C     C_3   0.837046 0.031742 0.486218 0.565012
C70   C     C_3   0.250009 0.449170 0.998179 0.054796
C71   C     C_3   0.252633 0.551104 0.998944 0.047344
C72   C     C_3   0.755202 0.949009 0.500385 0.050307
C73   C     C_3   0.755941 0.050977 0.500145 0.061973
C74   C     C_R   0.101740 0.336547 0.747611 -0.088344
C75   C     C_R   0.121747 0.685406 0.278971 -0.095250
C76   C     C_R   0.141757 0.785611 0.714725 -0.098643
C77   C     C_R   0.155662 0.274346 0.298111 -0.098327
C78   C     C_R   0.640544 0.710723 0.216552 -0.097154
C79   C     C_R   0.532543 0.709948 0.109272 -0.093325
C80   C     C_R   0.579681 0.147976 0.724867 -0.114589
C81   C     C_R   0.466015 0.213568 0.392853 -0.109740
C82   C     C_R   0.535800 0.845588 0.678723 -0.099111
C83   C     C_R   0.116631 0.360041 0.680876 -0.091475
C84   C     C_R   0.114035 0.640646 0.321174 -0.125558
C85   C     C_R   0.157755 0.803092 0.644277 -0.116985
C86   C     C_R   0.171306 0.293062 0.367544 -0.122093
C87   C     C_R   0.655727 0.691206 0.147148 -0.118404
C88   C     C_R   0.571766 0.106196 0.772546 -0.153596
C89   C     C_R   0.396047 0.196354 0.409522 -0.133639
C90   C     C_R   0.468615 0.148093 0.828030 -0.083616
C91   C     C_R   0.501788 0.891560 0.698979 -0.125850
C92   C     C_3   0.730866 0.165192 0.852376 -0.092617
C93   C     C_3   0.801617 0.918934 0.214950 -0.092256
C94   C     C_3   0.751366 0.638356 0.842200 -0.132154
C95   C     C_3   0.795531 0.082816 0.226485 -0.101048
C96   C     C_3   0.218654 0.794958 0.353292 -0.117870
C97   C     C_3   0.304871 0.404895 0.643141 -0.124916
C98   C     C_3   0.580772 0.372918 0.008915 -0.125583
C99   C     C_3   0.406522 0.554667 0.702851 -0.121133
C100  C     C_3   0.376932 0.438352 0.846458 -0.038537
C101  C     C_R   0.358267 0.213772 0.285379 -0.100997
C102  C     C_3   0.239103 0.557599 0.798265 -0.031824
C103  C     C_3   0.402054 0.558893 0.940778 -0.100944
C104  C     C_3   0.161861 0.447316 0.859086 -0.120346
C105  C     C_3   0.884655 0.944151 0.602375 -0.116187
C106  C     C_3   0.936186 0.044626 0.403112 -0.057448
C107  C     C_3   0.907227 0.099367 0.545432 -0.099390
C108  C     C_3   0.898709 0.915074 0.395424 -0.058186
C109  C     C_R   0.390291 0.749081 0.860121 0.478812
C110  C     C_R   0.429198 0.844684 0.786699 -0.090244
C111  C     C_R   0.034716 0.300525 0.622496 -0.088956
C112  C     C_R   0.986088 0.658464 0.333573 -0.076422
C113  C     C_R   0.034133 0.785893 0.607120 -0.095901
C114  C     C_R   0.048706 0.273950 0.405573 -0.098824
C115  C     C_R   0.515948 0.730515 0.179231 0.016550
C116  C     C_R   0.477918 0.192869 0.783542 0.022537
C117  C     C_R   0.428677 0.232387 0.267398 0.018598
C118  C     C_R   0.464725 0.797381 0.768961 0.021049
C119  C     C_R   0.009057 0.282965 0.691631 0.010802
C120  C     C_R   0.389763 0.749849 0.139881 0.482252
C121  C     C_R   0.994340 0.706414 0.296334 0.016003
C122  C     C_R   0.016705 0.767297 0.678157 0.014174
C123  C     C_R   0.030028 0.256405 0.334705 0.019418
C124  C     C_R   0.051991 0.294872 0.752716 0.010638
C125  C     C_R   0.060447 0.716362 0.259932 0.009212
C126  C     C_R   0.071241 0.767150 0.732702 0.014913
C127  C     C_R   0.084944 0.256389 0.279742 0.016822
C128  C     C_R   0.570656 0.730876 0.233595 0.015890
C129  C     C_R   0.534085 0.192337 0.729869 0.022200
C130  C     C_R   0.483268 0.232342 0.321893 0.016574
C131  C     C_R   0.385855 0.246321 0.855328 0.496142
C132  C     C_R   0.519357 0.798115 0.714559 0.018135
C133  C     C_R   0.445739 0.749731 0.196173 0.020564
C134  C     C_R   0.429164 0.236087 0.786909 -0.009340
C135  C     C_R   0.445788 0.250132 0.196092 0.018599
C136  C     C_R   0.444223 0.749289 0.801103 0.011883
C137  C     C_R   0.941220 0.257003 0.703067 -0.002100
C138  C     C_R   0.938200 0.744045 0.294096 -0.015456
C139  C     C_R   0.945762 0.750144 0.696054 0.016658
C140  C     C_R   0.961416 0.232909 0.319849 -0.012920
C141  C     C_R   0.429169 0.769150 0.266629 -0.041490
C142  C     C_R   0.889793 0.750064 0.639803 0.480003
C143  C     C_R   0.419396 0.265877 0.720741 -0.047686
C144  C     C_R   0.516164 0.268721 0.178684 -0.044634
C145  C     C_R   0.475905 0.701849 0.776157 -0.050991
C146  C     C_R   0.919459 0.244958 0.776669 -0.042554
C147  C     C_R   0.941114 0.784816 0.241304 -0.045175
C148  C     C_R   0.928150 0.733304 0.767719 -0.044056
C149  C     C_R   0.961318 0.193004 0.265876 -0.043147
C150  C     C_R   0.972272 0.246296 0.833310 -0.027512
C151  C     C_R   0.007223 0.794782 0.205137 -0.026361
C152  C     C_R   0.982640 0.733066 0.822195 -0.035754
C153  C     C_R   0.894469 0.245266 0.364420 0.492889
C154  C     C_R   0.016252 0.192910 0.211030 -0.036861
C155  C     C_R   0.483742 0.769412 0.320942 -0.025776
C156  C     C_R   0.472564 0.261554 0.664580 -0.025131
C157  C     C_R   0.570667 0.268760 0.233146 -0.036824
C158  C     C_R   0.537063 0.704216 0.729920 -0.024038
C159  C     C_R   0.042589 0.265482 0.817218 -0.009698
C160  C     C_R   0.063078 0.756922 0.206895 -0.017647
C161  C     C_R   0.053843 0.749837 0.804175 0.018213
C162  C     C_R   0.070025 0.232875 0.211169 -0.013505
C163  C     C_R   0.554106 0.750341 0.303948 0.022488
C164  C     C_R   0.889634 0.250829 0.641331 0.479616
C165  C     C_R   0.537835 0.233538 0.678210 -0.007287
C166  C     C_R   0.553947 0.250146 0.304139 0.017912
C167  C     C_R   0.555465 0.751463 0.696409 0.021189
C168  C     C_R   0.359440 0.789495 0.283464 -0.120079
C169  C     C_R   0.356678 0.296982 0.705404 -0.122890
C170  C     C_R   0.532882 0.288391 0.108157 -0.100051
C171  C     C_R   0.448170 0.651841 0.793449 -0.125177
C172  C     C_R   0.846125 0.234737 0.796595 -0.116168
C173  C     C_R   0.879691 0.815231 0.221308 -0.105922
C174  C     C_R   0.857131 0.716135 0.786028 -0.102173
C175  C     C_R   0.886706 0.747252 0.356354 0.480970
C176  C     C_R   0.913425 0.150000 0.270067 -0.113023
C177  C     C_R   0.342864 0.808154 0.353825 0.321730
C178  C     C_R   0.347834 0.322833 0.638484 0.317457
C179  C     C_R   0.601918 0.308538 0.092029 0.299294
C180  C     C_R   0.481849 0.606838 0.766272 0.276080
C181  C     C_R   0.826972 0.219783 0.867903 0.312347
C182  C     C_R   0.887012 0.860387 0.179037 0.304676
C183  C     C_R   0.840162 0.699035 0.856905 0.294752
C184  C     C_R   0.914505 0.110087 0.218049 0.278486
C185  C     C_R   0.106277 0.254668 0.864546 0.495261
C186  C     C_R   0.601849 0.690802 0.093643 -0.114103
C187  C     C_R   0.113673 0.753069 0.143901 0.494870
C188  C     C_R   0.110031 0.749850 0.860298 0.482318
C189  C     C_R   0.114461 0.245347 0.144387 0.484271
C190  C     C_R   0.610222 0.750130 0.360108 0.483386
C191  C     C_R   0.605430 0.245143 0.635096 0.498136
C192  C     C_R   0.610139 0.249979 0.360217 0.481750
C193  C     C_R   0.609858 0.751064 0.639109 0.477533
C194  C     C_R   0.879722 0.219781 0.922963 0.130331
C195  C     C_R   0.955997 0.875216 0.154371 0.127586
C196  C     C_R   0.894204 0.699628 0.911112 0.123462
H1    H     H_    0.361578 0.456904 0.046321 0.154739
H2    H     H_    0.310297 0.300160 0.740627 0.183060
H3    H     H_    0.521272 0.366249 0.002599 0.116263
H4    H     H_    0.600770 0.389665 0.956649 0.147616
H5    H     H_    0.441853 0.558308 0.653608 0.118160
H6    H     H_    0.361862 0.583801 0.699620 0.106118
H7    H     H_    0.381828 0.515584 0.700679 0.098676
H8    H     H_    0.354722 0.399841 0.831125 0.162431
H9    H     H_    0.437149 0.434867 0.848327 0.118226
H10   H     H_    0.363265 0.467906 0.804672 0.164860
H11   H     H_    0.270469 0.524851 0.775002 0.139562
H12   H     H_    0.269939 0.594486 0.793882 0.170600
H13   H     H_    0.492759 0.288620 0.064761 0.137124
H14   H     H_    0.188933 0.562033 0.764894 0.101158
H15   H     H_    0.415466 0.523336 0.971931 0.137950
H16   H     H_    0.393180 0.593346 0.975774 0.084758
H17   H     H_    0.451776 0.567588 0.908898 0.164263
H18   H     H_    0.135673 0.482499 0.880649 0.147209
H19   H     H_    0.142050 0.412453 0.888355 0.116576
H20   H     H_    0.142476 0.444362 0.801765 0.113444
H21   H     H_    0.860628 0.979103 0.627393 0.148660
H22   H     H_    0.939427 0.939892 0.627437 0.147713
H23   H     H_    0.854656 0.908574 0.617355 0.146054
H24   H     H_    0.398513 0.646197 0.823603 0.182868
H25   H     H_    0.941579 0.025876 0.348797 0.174434
H26   H     H_    0.964841 0.019991 0.444195 0.162424
H27   H     H_    0.964507 0.082520 0.399920 0.084423
H28   H     H_    0.889395 0.123101 0.497872 0.135006
H29   H     H_    0.967663 0.099677 0.546405 0.111167
H30   H     H_    0.888264 0.118476 0.596302 0.153733
H31   H     H_    0.886458 0.880385 0.429395 0.162039
H32   H     H_    0.955116 0.928530 0.406320 0.127822
H33   H     H_    0.896533 0.903005 0.337399 0.107569
H34   H     H_    0.826275 0.237094 0.016170 0.249190
H35   H     H_    0.801347 0.241431 0.759652 0.164531
H36   H     H_    0.905134 0.205586 0.030801 0.223173
H37   H     H_    0.937923 0.918249 0.063766 0.264955
H38   H     H_    0.019313 0.929477 0.102399 0.222392
H39   H     H_    0.836665 0.707322 0.004668 0.264407
H40   H     H_    0.859074 0.645596 0.983080 0.235341
H41   H     H_    0.985194 0.033093 0.147706 0.269869
H42   H     H_    0.929487 0.063066 0.086854 0.266576
H43   H     H_    0.372824 0.869889 0.472134 0.243341
H44   H     H_    0.426565 0.825867 0.513230 0.208302
H45   H     H_    0.377412 0.303215 0.473435 0.231049
H46   H     H_    0.824893 0.803176 0.234265 0.164560
H47   H     H_    0.427292 0.356070 0.494585 0.228490
H48   H     H_    0.749218 0.305668 0.086874 0.261552
H49   H     H_    0.723356 0.365431 0.114620 0.237146
H50   H     H_    0.599818 0.543520 0.766192 0.239115
H51   H     H_    0.564103 0.542197 0.680791 0.251251
H52   H     H_    0.813680 0.716122 0.746030 0.134114
H53   H     H_    0.880045 0.143266 0.317460 0.176096
H54   H     H_    0.987969 0.239352 0.951456 0.150306
H55   H     H_    0.068963 0.855168 0.149734 0.133104
H56   H     H_    0.005037 0.714062 0.936819 0.156142
H57   H     H_    0.134458 0.543765 0.972780 0.156950
H58   H     H_    0.066825 0.142899 0.128378 0.180530
H59   H     H_    0.508420 0.791915 0.433126 0.120954
H60   H     H_    0.488029 0.271194 0.546503 0.148244
H61   H     H_    0.683790 0.289588 0.255991 0.151614
H62   H     H_    0.631019 0.660108 0.690253 0.141495
H63   H     H_    0.304174 0.048781 0.753591 0.111355
H64   H     H_    0.297585 0.953176 0.752012 0.106140
H65   H     H_    0.700779 0.548699 0.251899 0.108656
H66   H     H_    0.700194 0.452869 0.251957 0.113449
H67   H     H_    0.211242 0.095562 0.133231 0.105556
H68   H     H_    0.354429 0.546225 0.069531 0.103495
H69   H     H_    0.211223 0.903770 0.132994 0.109802
H70   H     H_    0.774960 0.595528 0.635989 0.108537
H71   H     H_    0.775427 0.403690 0.635729 0.119314
H72   H     H_    0.177309 0.047286 0.242576 0.106370
H73   H     H_    0.177485 0.951465 0.242509 0.119152
H74   H     H_    0.796758 0.547050 0.748523 0.095323
H75   H     H_    0.796875 0.451349 0.748459 0.111067
H76   H     H_    0.291487 0.452467 0.112306 0.144668
H77   H     H_    0.153495 0.547899 0.067459 0.131494
H78   H     H_    0.273237 0.538418 0.116111 0.151721
H79   H     H_    0.127194 0.453902 0.994115 0.094756
H80   H     H_    0.164967 0.460987 0.080636 0.143936
H81   H     H_    0.664608 0.959543 0.577371 0.125440
H82   H     H_    0.648494 0.044972 0.446804 0.110869
H83   H     H_    0.673597 0.046059 0.587502 0.122040
H84   H     H_    0.646076 0.956944 0.450203 0.106788
H85   H     H_    0.274686 0.904670 0.864209 0.103607
H86   H     H_    0.283290 0.096336 0.866392 0.109602
H87   H     H_    0.722660 0.404519 0.364444 0.119015
H88   H     H_    0.723782 0.596351 0.364326 0.110239
H89   H     H_    0.126562 0.353185 0.795315 0.140466
H90   H     H_    0.747143 0.953618 0.623579 0.130875
H91   H     H_    0.176691 0.696170 0.264645 0.141167
H92   H     H_    0.185132 0.787269 0.754791 0.120584
H93   H     H_    0.201960 0.269838 0.262554 0.147353
H94   H     H_    0.684045 0.709458 0.256554 0.113706
H95   H     H_    0.618126 0.142356 0.681112 0.147077
H96   H     H_    0.506223 0.211706 0.436125 0.109644
H97   H     H_    0.574642 0.848064 0.634460 0.126024
H98   H     H_    0.153220 0.392723 0.678179 0.131559
H99   H     H_    0.161175 0.616965 0.333968 0.113565
H100  H     H_    0.211913 0.816974 0.631474 0.128613
H101  H     H_    0.723416 0.043136 0.384134 0.171505
H102  H     H_    0.226112 0.305341 0.380945 0.134706
H103  H     H_    0.709417 0.676046 0.134997 0.113139
H104  H     H_    0.606839 0.072590 0.767345 0.107992
H105  H     H_    0.383675 0.182565 0.464174 0.112915
H106  H     H_    0.515882 0.927572 0.671877 0.103734
H107  H     H_    0.613648 0.675314 0.039896 0.123012
H108  H     H_    0.507815 0.072412 0.858172 0.124595
H109  H     H_    0.288040 0.182823 0.368846 0.112620
H110  H     H_    0.422857 0.927002 0.768740 0.116808
H111  H     H_    0.099928 0.357156 0.565387 0.118842
H112  H     H_    0.765225 0.041817 0.620128 0.161275
H113  H     H_    0.038815 0.590029 0.375698 0.117835
H114  H     H_    0.116484 0.817194 0.536034 0.120853
H115  H     H_    0.132547 0.303310 0.476254 0.122451
H116  H     H_    0.492240 0.708044 0.066086 0.117760
H117  H     H_    0.421724 0.142441 0.862552 0.147175
H118  H     H_    0.314931 0.212039 0.245291 0.107582
H119  H     H_    0.384599 0.846640 0.825042 0.129049
H120  H     H_    0.016243 0.284579 0.571659 0.131913
H121  H     H_    0.933482 0.645151 0.352392 0.139270
H122  H     H_    0.994005 0.787772 0.563754 0.125713
H123  H     H_    0.717374 0.955431 0.384664 0.177693
H124  H     H_    0.012942 0.268998 0.451494 0.132571
H125  H     H_    0.767338 0.131783 0.865266 0.120256
H126  H     H_    0.725757 0.170379 0.792120 0.125658
H127  H     H_    0.675995 0.155658 0.873873 0.166284
H128  H     H_    0.753517 0.941471 0.196154 0.143629
H129  H     H_    0.844085 0.947323 0.231621 0.174501
H130  H     H_    0.783976 0.894976 0.262521 0.127591
H131  H     H_    0.790888 0.607321 0.857540 0.100928
H132  H     H_    0.747596 0.642198 0.781645 0.106150
H133  H     H_    0.696931 0.626174 0.862153 0.148224
H134  H     H_    0.317677 0.792049 0.241858 0.116651
H135  H     H_    0.782445 0.112544 0.183983 0.128639
H136  H     H_    0.780859 0.097122 0.281833 0.152617
H137  H     H_    0.760954 0.048496 0.215431 0.130742
H138  H     H_    0.231502 0.754405 0.370322 0.117963
H139  H     H_    0.205067 0.796781 0.294048 0.099785
H140  H     H_    0.169144 0.806967 0.383698 0.140271
H141  H     H_    0.354936 0.418164 0.614173 0.127393
H142  H     H_    0.311191 0.409721 0.703232 0.103178
H143  H     H_    0.259741 0.430535 0.624894 0.125668
H144  H     H_    0.591238 0.401964 0.052701 0.098782
N1    N     N_3   0.859257 0.207032 0.996799 -0.583432
N2    N     N_3   0.964353 0.922763 0.114088 -0.604533
N3    N     N_3   0.878415 0.683681 0.984574 -0.625770
N4    N     N_3   0.977920 0.066820 0.116569 -0.609205
N5    N     N_3   0.381699 0.830052 0.478310 -0.590782
N6    N     N_3   0.382065 0.334060 0.510133 -0.595356
N7    N     N_3   0.727926 0.326638 0.130857 -0.629828
N8    N     N_3   0.593069 0.564950 0.717935 -0.635811
O1    O     O_3   0.249990 0.250010 0.000000 -0.436395
O2    O     O_R   0.835430 0.219350 0.353840 -0.555995
O3    O     O_R   0.835430 0.219350 0.646160 -0.567357
O4    O     O_R   0.835430 0.780650 0.353840 -0.572804
O5    O     O_R   0.164550 0.280640 0.853840 -0.560836
O6    O     O_R   0.164550 0.719360 0.146160 -0.557228
O7    O     O_R   0.164550 0.719360 0.853840 -0.545920
O8    O     O_R   0.164550 0.280640 0.146160 -0.550696
O9    O     O_R   0.664550 0.780640 0.353840 -0.550792
O10   O     O_R   0.664550 0.219360 0.646160 -0.561142
O11   O     O_R   0.664550 0.219360 0.353840 -0.545936
O12   O     O_3   0.249990 0.749990 0.000000 -0.439939
O13   O     O_R   0.664550 0.780640 0.646160 -0.547165
O14   O     O_R   0.396160 0.219380 0.914560 -0.543116
O15   O     O_R   0.396160 0.780620 0.085440 -0.533565
O16   O     O_R   0.396160 0.780620 0.914560 -0.541636
O17   O     O_R   0.396160 0.219380 0.085440 -0.534904
O18   O     O_R   0.896160 0.719380 0.414560 -0.545311
O19   O     O_R   0.896160 0.280620 0.585440 -0.558018
O20   O     O_R   0.896160 0.280620 0.414560 -0.547527
O21   O     O_R   0.896160 0.719380 0.585440 -0.542525
O22   O     O_R   0.103840 0.219370 0.085450 -0.564951
O23   O     O_3   0.749990 0.750010 0.500000 -0.434829
O24   O     O_R   0.103840 0.780630 0.914550 -0.538378
O25   O     O_R   0.103840 0.780630 0.085450 -0.539532
O26   O     O_R   0.103840 0.219370 0.914550 -0.539807
O27   O     O_R   0.603840 0.719370 0.585450 -0.543243
O28   O     O_R   0.603840 0.280630 0.414550 -0.555791
O29   O     O_R   0.603840 0.280630 0.585450 -0.546841
O30   O     O_R   0.603840 0.719370 0.414550 -0.540143
O31   O     O_R   0.310730 0.133160 0.000000 -0.553004
O32   O     O_R   0.310730 0.866840 0.000000 -0.540918
O33   O     O_R   0.810730 0.633160 0.500000 -0.551508
O34   O     O_3   0.749990 0.249990 0.500000 -0.429660
O35   O     O_R   0.810730 0.366840 0.500000 -0.536620
O36   O     O_R   0.249970 0.366860 0.060720 -0.556016
O37   O     O_R   0.249970 0.633140 0.939280 -0.489410
O38   O     O_R   0.249970 0.633140 0.060720 -0.560611
O39   O     O_R   0.249970 0.366860 0.939280 -0.505238
O40   O     O_R   0.749970 0.866860 0.560720 -0.564550
O41   O     O_R   0.749970 0.133140 0.439280 -0.542669
O42   O     O_R   0.749970 0.133140 0.560720 -0.571754
O43   O     O_R   0.749970 0.866860 0.439280 -0.545245
O44   O     O_R   0.189290 0.133150 0.000000 -0.541663
O45   O     O_R   0.335430 0.280650 0.146160 -0.555836
O46   O     O_R   0.189290 0.866850 0.000000 -0.552262
O47   O     O_R   0.689290 0.633150 0.500000 -0.538277
O48   O     O_R   0.689290 0.366850 0.500000 -0.540150
O49   O     O_3   0.754904 0.211081 0.886413 -0.536986
O50   O     O_3   0.826038 0.887803 0.156595 -0.552707
O51   O     O_3   0.769404 0.685932 0.875391 -0.565121
O52   O     O_3   0.869255 0.067201 0.223850 -0.575199
O53   O     O_3   0.275467 0.829751 0.370318 -0.556003
O54   O     O_3   0.286913 0.353151 0.626198 -0.548907
O55   O     O_3   0.618418 0.326056 0.022267 -0.550015
O56   O     O_R   0.335430 0.719350 0.853840 -0.567851
O57   O     O_3   0.446287 0.559787 0.768798 -0.561427
O58   O     O_3   0.351930 0.452842 0.916576 -0.596381
O59   O     O_3   0.218571 0.548295 0.871738 -0.579159
O60   O     O_3   0.343713 0.552122 0.891415 -0.534436
O61   O     O_3   0.238876 0.448557 0.857559 -0.567925
O62   O     O_3   0.894023 0.947608 0.525876 -0.586625
O63   O     O_3   0.861132 0.053197 0.417779 -0.559850
O64   O     O_3   0.883282 0.047113 0.545784 -0.598816
O65   O     O_3   0.847953 0.955867 0.406749 -0.575495
O66   O     O_R   0.335430 0.719350 0.146160 -0.557797
O67   O     O_R   0.335430 0.280650 0.853840 -0.565341
O68   O     O_R   0.835430 0.780650 0.646160 -0.546374
Zn1   Zn    Zn3+2 0.249990 0.293780 0.913250 0.921506
Zn2   Zn    Zn3+2 0.336760 0.793760 0.000000 0.924211
Zn3   Zn    Zn3+2 0.836760 0.706240 0.500000 0.911994
Zn4   Zn    Zn3+2 0.836760 0.293760 0.500000 0.915250
Zn5   Zn    Zn3+2 0.163250 0.206230 0.000000 0.913481
Zn6   Zn    Zn3+2 0.163250 0.793770 0.000000 0.921847
Zn7   Zn    Zn3+2 0.663250 0.706230 0.500000 0.922176
Zn8   Zn    Zn3+2 0.663250 0.293770 0.500000 0.917117
Zn9   Zn    Zn3+2 0.249990 0.706220 0.086750 0.903277
Zn10  Zn    Zn3+2 0.249990 0.706220 0.913250 0.926384
Zn11  Zn    Zn3+2 0.249990 0.293780 0.086750 0.908477
Zn12  Zn    Zn3+2 0.749990 0.793780 0.413250 0.896911
Zn13  Zn    Zn3+2 0.749990 0.206220 0.586750 0.881427
Zn14  Zn    Zn3+2 0.749990 0.206220 0.413250 0.906157
Zn15  Zn    Zn3+2 0.749990 0.793780 0.586750 0.910505
Zn16  Zn    Zn3+2 0.336760 0.206240 0.000000 0.925236

loop_
_geom_bond_atom_site_label_1
_geom_bond_atom_site_label_2
_ccdc_geom_bond_type
C66   O60   S    
C60   H79   S    
C46   C112  A    
C6    C179  A    
C175  O18   A    
C4    C177  A    
C110  C118  A    
C174  H52   S    
C47   H65   S    
O10   Zn13  S    
C9    H55   S    
C168  H134  S    
C122  C139  A    
O34   Zn8   S    
H51   N8    S    
C139  C142  S    
C58   C60   S    
C107  H30   S    
C29   C33   A    
C120  C133  S    
C61   C63   S    
C62   C64   S    
C11   C154  A    
C95   H136  S    
C146  C150  A    
C52   O39   A    
C98   H144  S    
C48   O44   A    
C9    C151  A    
C113  C122  A    
C91   H106  S    
C192  O11   A    
C90   C116  A    
C4    C12   A    
C3    C184  A    
C74   C83   A    
C171  H24   S    
C15   H61   S    
C51   O35   A    
C194  N1    S    
C58   H77   S    
C21   C22   A    
C113  H122  S    
C178  O54   S    
C97   H141  S    
O1    Zn5   S    
O20   Zn4   S    
C54   O43   A    
C20   H71   S    
C158  C167  A    
C78   H94   S    
C87   C186  A    
C45   C47   A    
H40   N3    S    
C150  C159  A    
C16   C158  A    
C137  C146  A    
C28   C32   A    
C64   H123  S    
C24   C110  A    
C104  H20   S    
H43   N5    S    
C153  O20   A    
C33   C50   S    
C85   H100  S    
O16   Zn2   S    
C17   C21   A    
C82   C91   A    
C8    C150  A    
C43   C44   A    
C37   C38   A    
C90   H117  S    
C16   H62   S    
C48   O31   A    
C183  C196  A    
C181  C194  A    
C69   O63   S    
O34   Zn13  S    
C191  O10   A    
C46   C84   A    
C94   O51   S    
C30   C49   S    
C173  C182  A    
C181  O49   S    
C31   C48   S    
C99   H6    S    
O23   Zn7   S    
C53   C71   S    
C118  C136  A    
C92   H125  S    
C176  C184  A    
O1    Zn11  S    
C141  C168  A    
C14   C156  A    
O42   Zn13  S    
C96   H138  S    
C63   H112  S    
O18   Zn3   S    
C9    C195  A    
C129  C165  A    
C33   C38   A    
C56   C59   S    
C185  O5    A    
C80   C88   A    
C57   C85   A    
C163  C190  S    
C10   H56   S    
C128  C163  A    
O3    Zn13  S    
C81   H96   S    
O45   Zn11  S    
C189  O8    A    
C3    C11   A    
C190  O30   A    
C116  C134  A    
O4    Zn12  S    
C41   C45   A    
C31   C36   A    
C97   H143  S    
C102  H12   S    
C76   C85   A    
C61   H90   S    
O12   Zn9   S    
C78   C87   A    
O48   Zn8   S    
C109  O16   A    
C23   H74   S    
C17   H67   S    
C79   C115  A    
C147  C151  A    
C192  O28   A    
O31   Zn16  S    
O17   Zn16  S    
C84   H99   S    
C164  O3    A    
C8    H54   S    
C98   H3    S    
C161  C188  S    
O12   Zn2   S    
C75   C84   A    
C109  O56   A    
O39   Zn1   S    
C65   C70   S    
C11   H58   S    
C111  C119  A    
C67   C72   S    
C189  O22   A    
C196  N3    S    
O6    Zn9   S    
C172  C181  A    
C185  O26   A    
C105  H23   S    
O56   Zn10  S    
O67   Zn1   S    
C68   H115  S    
C55   O42   A    
O41   Zn14  S    
C152  C161  A    
C77   C127  A    
C89   H105  S    
C92   H127  S    
C134  C143  A    
C177  O53   S    
C94   H133  S    
O8    Zn11  S    
C167  C193  S    
O24   Zn6   S    
O33   Zn3   S    
O34   Zn4   S    
C43   H64   S    
H38   N2    S    
C139  C148  A    
C188  O24   A    
C30   C34   A    
C34   C39   A    
C17   C27   A    
C187  O25   A    
C103  H15   S    
C57   C113  A    
C53   O38   A    
C155  C163  A    
O43   Zn12  S    
C115  C128  A    
H42   N4    S    
C121  C125  A    
H37   N2    S    
C10   C196  A    
C97   O54   S    
C123  C127  A    
C106  H27   S    
O15   Zn2   S    
C14   H60   S    
C32   C37   A    
C8    C194  A    
C25   H75   S    
O2    Zn14  S    
C114  C123  A    
C22   H73   S    
C193  O13   A    
C26   C30   A    
C127  C162  A    
C131  O14   A    
C110  H119  S    
C6    N7    S    
C184  O52   S    
H45   N6    S    
C107  H28   S    
C65   O58   S    
O29   Zn8   S    
C96   H139  S    
O30   Zn7   S    
C60   H80   S    
C99   H7    S    
C18   C22   A    
C61   H81   S    
C154  C162  A    
C148  C152  A    
O23   Zn12  S    
C100  H9    S    
H47   N6    S    
O1    Zn16  S    
C56   C70   S    
C107  O64   S    
C102  O59   S    
C51   O48   A    
C159  C185  S    
C105  O62   S    
C95   O52   S    
C49   O46   A    
C120  O66   A    
C63   H83   S    
C111  H120  S    
C64   H84   S    
C107  H29   S    
C7    C180  A    
H49   N7    S    
C34   C36   A    
O23   Zn3   S    
C80   C129  A    
C5    C178  A    
C118  C132  A    
C95   H135  S    
C101  H118  S    
C55   C73   S    
C40   C44   A    
C94   H131  S    
C75   H91   S    
C138  C175  S    
C62   H101  S    
C76   H92   S    
C182  C195  A    
C160  C187  S    
C100  O58   S    
C144  C157  A    
C1    C135  S    
C140  C149  A    
C180  O57   S    
C74   C124  A    
C79   C186  A    
C76   C126  A    
C18   C26   A    
C132  C167  A    
C131  C134  S    
C78   C128  A    
C93   H130  S    
C26   C27   A    
C103  O60   S    
C13   H109  S    
C28   C29   A    
H36   N1    S    
C35   H111  S    
C83   H98   S    
C58   C71   S    
C106  H25   S    
C183  O51   S    
C20   C25   A    
C168  C177  A    
C59   H78   S    
C144  C170  A    
C187  O6    A    
O23   Zn15  S    
C21   H72   S    
C10   C152  A    
C63   C73   S    
C173  H46   S    
C142  O68   A    
C69   C73   S    
C88   H104  S    
C126  C161  A    
O34   Zn14  S    
C140  C153  S    
C188  O7    A    
C81   C89   A    
C66   O59   S    
C12   H59   S    
C99   H5    S    
C172  H35   S    
C92   H126  S    
C125  C160  A    
O37   Zn10  S    
C106  O63   S    
C176  H53   S    
C50   O33   A    
C35   C83   A    
C141  C155  A    
C115  C133  A    
C74   H89   S    
C86   H102  S    
C27   C31   A    
C93   O50   S    
C75   C125  A    
O40   Zn15  S    
C157  C166  A    
C175  O4    A    
C32   C51   S    
O21   Zn3   S    
C130  C166  A    
C66   C71   S    
O1    Zn1   S    
O25   Zn6   S    
C40   H86   S    
H39   N3    S    
C153  O2    A    
O66   Zn9   S    
O47   Zn7   S    
C96   O53   S    
C99   O57   S    
C5    C14   A    
C67   O62   S    
C61   C72   S    
C7    C16   A    
C191  O29   A    
O5    Zn1   S    
C56   H76   S    
H50   N8    S    
O68   Zn15  S    
C114  H124  S    
C97   H142  S    
C82   C132  A    
C19   C29   A    
O27   Zn7   S    
O28   Zn8   S    
O22   Zn5   S    
O12   Zn10  S    
C56   H1    S    
C5    N6    S    
C104  H19   S    
C82   H97   S    
C174  C183  A    
C18   H69   S    
C42   H88   S    
C147  C173  A    
C15   C157  A    
C108  H31   S    
C20   C28   A    
C170  C179  A    
C133  C141  A    
C98   H4    S    
C149  C176  A    
C101  C117  A    
C193  O27   A    
C145  C158  A    
C100  H8    S    
C81   C130  A    
C156  C165  A    
C165  C191  S    
C166  C192  S    
C120  O15   A    
C24   H110  S    
C148  C174  A    
C69   O64   S    
C112  C121  A    
C2    C90   A    
C105  H22   S    
O13   Zn15  S    
O14   Zn16  S    
C195  N2    S    
C55   O41   A    
C49   O32   A    
C162  C189  S    
C1    O17   A    
C145  C171  A    
O35   Zn4   S    
C146  C172  A    
C142  O21   A    
C68   C86   A    
H34   N1    S    
C19   C23   A    
C186  H107  S    
C149  C154  A    
H41   N4    S    
C45   H66   S    
C67   O65   S    
O7    Zn10  S    
C119  C124  A    
H48   N7    S    
C131  O67   A    
C92   O49   S    
O9    Zn12  S    
C57   H114  S    
C38   C42   A    
C77   H93   S    
C53   O37   A    
O38   Zn9   S    
C124  C159  A    
C1    O45   A    
C58   H57   S    
C4    N5    S    
C6    C15   A    
C116  C129  A    
H44   N5    S    
C2    C88   A    
O44   Zn5   S    
C54   O40   A    
C102  H11   S    
C103  H17   S    
C136  C145  A    
C23   C25   A    
C3    N4    S    
C109  C136  S    
C37   C41   A    
C7    N8    S    
C46   H113  S    
C182  O50   S    
O32   Zn2   S    
C108  H33   S    
C96   H140  S    
C119  C137  A    
C59   H68   S    
C36   C40   A    
C79   H116  S    
C143  C169  A    
C100  H10   S    
C102  H14   S    
C39   C43   A    
C112  H121  S    
C123  C140  A    
O11   Zn14  S    
C67   C69   S    
C121  C138  A    
C122  C126  A    
C60   C70   S    
C138  C147  A    
C190  O9    A    
C52   O36   A    
C62   C73   S    
C117  C130  A    
C135  C144  A    
C77   C86   A    
C94   H132  S    
C19   H70   S    
C171  C180  A    
C98   O55   S    
C12   C155  A    
C13   C101  A    
C24   C91   A    
C169  C178  A    
C35   C111  A    
C65   O61   S    
C13   C89   A    
O19   Zn4   S    
C41   H87   S    
C103  H16   S    
C95   H137  S    
C137  C164  S    
C93   H129  S    
C80   H95   S    
C179  O55   S    
C104  O61   S    
O26   Zn5   S    
C105  H21   S    
O46   Zn6   S    
C87   H103  S    
C151  C160  A    
C164  O19   A    
C104  H18   S    
C44   H63   S    
C143  C156  A    
C106  H26   S    
C170  H13   S    
C39   H85   S    
C42   C47   A    
C64   C72   S    
C93   H128  S    
C52   C70   S    
O12   Zn6   S    
C54   C72   S    
O36   Zn11  S    
C108  H32   S    
C65   C66   S    
C68   C114  A    
C50   O47   A    
C108  O65   S    
C62   H82   S    
C2    H108  S    
C59   C71   S    
C169  H2    S    
C117  C135  A    
