data_mof_unit_54560.cif
_audit_creation_date              2012-12-10T17:48:23-0500
_audit_creation_method            fapswitch 2.2
_symmetry_space_group_name_H-M    P1
_symmetry_Int_Tables_number       1
_space_group_crystal_system       triclinic
_cell_length_a                    13.877878
_cell_length_b                    14.683959
_cell_length_c                    15.05285
_cell_angle_alpha                 115.273837
_cell_angle_beta                  107.040928
_cell_angle_gamma                 72.744176
_cell_volume                      2599.37553442

loop_
_atom_site_label
_atom_site_type_symbol
_atom_type_description
_atom_site_fract_x
_atom_site_fract_y
_atom_site_fract_z
_atom_type_partial_charge
C1    C     C_R   0.518359 0.118562 0.687198 0.818339
C2    C     C_R   0.487259 0.881124 0.312957 0.810276
C3    C     C_R   0.524830 0.357495 0.922621 -0.020917
C4    C     C_R   0.496720 0.640589 0.078782 -0.011226
C5    C     C_R   0.575882 0.313713 0.996400 -0.046384
C6    C     C_R   0.437768 0.683083 0.005393 -0.049519
C7    C     C_R   0.493600 0.466253 0.951161 0.029445
C8    C     C_R   0.524765 0.531444 0.051504 0.033087
C9    C     C_R   0.578804 0.485192 0.122086 -0.341575
C10   C     C_R   0.428498 0.511252 0.882848 -0.277019
C11   C     C_R   0.597405 0.379246 0.097080 0.456382
C12   C     C_R   0.402391 0.617146 0.908064 0.427009
C13   C     C_R   0.302244 0.316279 0.360090 0.340201
C14   C     C_R   0.670667 0.707441 0.675378 0.340032
C15   C     C_R   0.342522 0.221901 0.373737 0.494560
C16   C     C_R   0.645919 0.788164 0.640390 0.491950
C17   C     C_R   0.491276 0.284697 0.484269 0.590020
C18   C     C_R   0.509155 0.715198 0.515289 0.608097
C19   C     C_R   0.447282 0.386375 0.484415 -0.172812
C20   C     C_R   0.522538 0.638577 0.555746 -0.184590
C21   C     C_R   0.351587 0.400026 0.420354 -0.148282
C22   C     C_R   0.606369 0.634913 0.635391 -0.150873
C23   C     C_R   0.686801 0.987030 0.504112 0.817040
C24   C     C_R   0.313087 0.012776 0.495484 0.829290
C25   C     C_R   0.494758 0.474250 0.543700 -0.031085
C26   C     C_R   0.457970 0.564364 0.519231 -0.042004
C27   C     C_R   0.354764 0.580954 0.467669 0.483093
C28   C     C_R   0.568952 0.480453 0.632859 0.494602
C29   C     C_R   0.302745 0.498516 0.421122 -0.261290
C30   C     C_R   0.621609 0.562674 0.678488 -0.282458
C31   C     C_1   0.207531 0.019479 0.491601 -0.153063
C32   C     C_1   0.791994 0.979701 0.506460 -0.194928
C33   C     C_2   0.010908 0.032075 0.484093 0.403901
C34   C     C_2   0.988089 0.965556 0.510969 0.407037
C35   C     C_1   0.880801 0.973082 0.508588 -0.059930
C36   C     C_1   0.118400 0.025564 0.487969 -0.057147
C37   C     C_R   0.534811 0.184700 0.793641 -0.132158
C38   C     C_R   0.481259 0.814457 0.206381 -0.113059
C39   C     C_R   0.605387 0.205263 0.967073 0.494249
C40   C     C_R   0.414025 0.791236 0.031937 0.529254
C41   C     C_R   0.580835 0.142232 0.866716 -0.286443
C42   C     C_R   0.433657 0.855197 0.132541 -0.299994
C43   C     C_R   0.508799 0.291090 0.821572 -0.232677
C44   C     C_R   0.521001 0.709304 0.178323 -0.241092
Cu1   Cu    Cu3+1 0.526370 0.916390 0.524860 1.015635
Cu2   Cu    Cu3+1 0.473630 0.083610 0.475140 1.017128
H1    H     H_    0.568746 0.683821 0.236786 0.151979
H2    H     H_    0.479196 0.320491 0.762368 0.199821
H3    H     H_    0.409730 0.937026 0.152739 0.159836
H4    H     H_    0.601710 0.059633 0.845984 0.205782
H5    H     H_    0.606558 0.528465 0.198954 0.145719
H6    H     H_    0.391516 0.466276 0.809699 0.163259
H7    H     H_    0.222720 0.511206 0.385783 0.185206
H8    H     H_    0.673704 0.571905 0.749555 0.187138
N1    N     N_R   0.433980 0.209250 0.437830 -0.297068
N2    N     N_R   0.566020 0.790750 0.562170 -0.297447
O1    O     O_R   0.534760 0.019630 0.662610 -0.545690
O2    O     O_R   0.465240 0.980370 0.337390 -0.571190
O3    O     O_R   0.490220 0.160840 0.620610 -0.565997
O4    O     O_R   0.509780 0.839160 0.379390 -0.554356
O5    O     O_R   0.663260 0.919400 0.523940 -0.570483
O6    O     O_R   0.336740 0.080600 0.476060 -0.531371
O7    O     O_R   0.618720 0.060610 0.481950 -0.535120
O8    O     O_R   0.381280 0.939390 0.518050 -0.535253
O9    O     O_3   0.068089 0.893524 0.540469 -0.590707
C45   C     C_3   0.032745 0.826184 0.562492 -0.320786
H9    H     H_    0.980659 0.782132 0.496344 0.153369
H10   H     H_    0.994671 0.868646 0.628425 0.159458
H11   H     H_    0.099778 0.769762 0.581642 0.204135
O10   O     O_3   0.930676 0.103818 0.454331 -0.617992
C46   C     C_3   0.964971 0.167856 0.426999 -0.314046
H12   H     H_    0.004001 0.122175 0.361901 0.184213
H13   H     H_    0.016093 0.214840 0.491556 0.174876
H14   H     H_    0.897086 0.221631 0.404067 0.186952
O11   O     O_3   0.208974 0.328939 0.295980 -0.561233
C47   C     C_3   0.226987 0.330108 0.208667 -0.372666
H15   H     H_    0.155737 0.321012 0.150698 0.192914
H16   H     H_    0.289478 0.266031 0.177024 0.143986
H17   H     H_    0.245339 0.404246 0.222673 0.167370
O12   O     O_3   0.751854 0.706237 0.754947 -0.558009
C48   C     C_3   0.836030 0.629446 0.718487 -0.352522
H18   H     H_    0.905620 0.641239 0.778331 0.196630
H19   H     H_    0.852359 0.633188 0.652103 0.137580
H20   H     H_    0.824060 0.551306 0.699512 0.166595
O13   O     O_3   0.302438 0.681433 0.479903 -0.554447
C49   C     C_3   0.226913 0.688167 0.395117 -0.179413
H21   H     H_    0.153292 0.675271 0.398230 0.139566
H22   H     H_    0.252244 0.634631 0.323387 0.124370
H23   H     H_    0.212251 0.767286 0.396689 0.216980
O14   O     O_3   0.570434 0.419962 0.684071 -0.571355
C50   C     C_3   0.668451 0.395524 0.740686 -0.258476
H24   H     H_    0.732049 0.380270 0.701966 0.153286
H25   H     H_    0.678715 0.457138 0.816163 0.143047
H26   H     H_    0.672844 0.324183 0.751539 0.202895
O15   O     O_3   0.642098 0.340048 0.171958 -0.548853
C51   C     C_3   0.568921 0.358719 0.229791 0.080322
H27   H     H_    0.491984 0.404182 0.208438 0.105682
H28   H     H_    0.600041 0.401862 0.309366 0.140819
C52   C     C_3   0.552391 0.257288 0.221635 -0.756603
H29   H     H_    0.627412 0.207943 0.239084 0.264101
H30   H     H_    0.503775 0.271956 0.275047 0.161221
H31   H     H_    0.512507 0.216636 0.144775 0.253941
O16   O     O_3   0.330017 0.655984 0.840977 -0.546035
C53   C     C_3   0.377492 0.647416 0.766039 0.100905
H32   H     H_    0.390051 0.566574 0.712340 0.158981
H33   H     H_    0.452424 0.673501 0.798281 0.145923
C54   C     C_3   0.307060 0.714636 0.709551 -0.693524
H34   H     H_    0.271300 0.789028 0.761831 0.275252
H35   H     H_    0.352038 0.731174 0.670278 0.231525
H36   H     H_    0.245526 0.674501 0.654392 0.222195
O17   O     O_3   0.655549 0.159608 0.036214 -0.553267
C55   C     C_3   0.761015 0.128252 0.031861 -0.246019
H37   H     H_    0.794926 0.193970 0.045269 0.159594
H38   H     H_    0.774166 0.065410 0.959138 0.152026
H39   H     H_    0.802019 0.097928 0.091895 0.188712
O18   O     O_3   0.363502 0.834809 0.961033 -0.550265
C56   C     C_3   0.429124 0.886465 0.951908 -0.331700
H40   H     H_    0.506127 0.836715 0.940588 0.161471
H41   H     H_    0.437214 0.959041 0.017766 0.159760
H42   H     H_    0.394363 0.907415 0.885115 0.194782
O19   O     O_3   0.440978 0.714883 0.427676 -0.501314
C57   C     C_3   0.478399 0.630603 0.346901 -0.325298
H43   H     H_    0.465192 0.558123 0.342447 0.127645
H44   H     H_    0.561692 0.623668 0.351793 0.127918
H45   H     H_    0.434460 0.641194 0.276427 0.193386
O20   O     O_3   0.591546 0.259922 0.530375 -0.514579
C58   C     C_3   0.657284 0.244222 0.467106 -0.290813
H46   H     H_    0.650791 0.315045 0.454019 0.130415
H47   H     H_    0.642349 0.179357 0.394607 0.166914
H48   H     H_    0.737789 0.223521 0.504143 0.220981
O21   O     O_3   0.693444 0.871991 0.692223 -0.534608
C59   C     C_3   0.796460 0.845314 0.679818 -0.249445
H49   H     H_    0.818436 0.914859 0.686101 0.163576
H50   H     H_    0.808841 0.785136 0.605339 0.119520
H51   H     H_    0.848531 0.821987 0.741313 0.189960
O22   O     O_3   0.283918 0.146793 0.334540 -0.530418
C60   C     C_3   0.263352 0.107066 0.229000 -0.237197
H52   H     H_    0.254089 0.026641 0.202681 0.170458
H53   H     H_    0.326092 0.106721 0.196563 0.109560
H54   H     H_    0.188756 0.149104 0.200074 0.200955

loop_
_geom_bond_atom_site_label_1
_geom_bond_atom_site_label_2
_ccdc_geom_bond_type
C7    C10   A    
C45   H10   S    
Cu1   O4    S    
O20   C58   S    
Cu2   O3    S    
C27   C29   A    
O15   C51   S    
C9    H5    S    
C47   H17   S    
C4    C8    A    
C10   H6    S    
C55   H38   S    
C48   H18   S    
C7    C8    A    
C39   C41   A    
Cu1   Cu2   S    
C25   C28   A    
C60   H53   S    
C3    C43   A    
C26   C27   A    
C29   H7    S    
Cu2   O6    S    
C19   C21   A    
C47   H16   S    
C5    C11   A    
C3    C7    A    
C56   H41   S    
C6    C12   A    
C2    O4    A    
C17   O20   S    
C45   H11   S    
C51   C52   S    
C33   C36   S    
O18   C56   S    
C34   C35   S    
C27   O13   S    
C16   O21   S    
C18   O19   S    
C53   H32   S    
C13   O11   S    
Cu1   N2    S    
C8    C9    A    
C51   H28   S    
Cu2   N1    S    
C54   H34   S    
O10   C46   S    
C14   C16   A    
C14   O12   S    
C43   H2    S    
C17   N1    A    
C44   H1    S    
C18   N2    A    
C40   C42   A    
C45   H9    S    
C24   O8    A    
Cu2   O2    S    
C54   H35   S    
C16   N2    A    
C34   O9    S    
C53   H33   S    
C55   H37   S    
C48   H19   S    
C60   H54   S    
C49   H22   S    
C32   C35   T    
C47   H15   S    
C12   O16   S    
C4    C6    A    
C56   H42   S    
C50   H24   S    
C46   H13   S    
C49   H21   S    
O22   C60   S    
C15   O22   S    
C4    C44   A    
C25   C26   A    
O13   C49   S    
C21   C29   A    
C15   N1    A    
C37   C43   A    
O11   C47   S    
C58   H47   S    
C38   C44   A    
C1    O1    A    
C50   H25   S    
C30   H8    S    
C2    C38   S    
C52   H29   S    
Cu1   O1    S    
C51   H27   S    
C33   C34   D    
C13   C21   A    
C9    C11   A    
O19   C57   S    
C10   C12   A    
C33   O10   S    
C52   H30   S    
C1    O3    A    
C20   C22   A    
C13   C15   A    
C54   H36   S    
C6    C40   A    
C57   H44   S    
O21   C59   S    
C41   H4    S    
C48   H20   S    
C11   O15   S    
C5    C39   A    
C24   O6    A    
C22   C30   A    
O17   C55   S    
O12   C48   S    
C3    C5    A    
C49   H23   S    
C46   H14   S    
C2    O2    A    
C38   C42   A    
C1    C37   S    
C60   H52   S    
Cu1   O8    S    
Cu2   O7    S    
C23   O7    A    
C23   C32   S    
C14   C22   A    
C57   H45   S    
C28   C30   A    
C24   C31   S    
C46   H12   S    
C56   H40   S    
C50   H26   S    
C39   O17   S    
O14   C50   S    
C40   O18   S    
C20   C26   A    
C59   H51   S    
Cu1   O5    S    
C17   C19   A    
C59   H49   S    
C18   C20   A    
C53   C54   S    
C37   C41   A    
C19   C25   A    
C58   H48   S    
C42   H3    S    
C23   O5    A    
C52   H31   S    
C59   H50   S    
O9    C45   S    
O16   C53   S    
C31   C36   T    
C28   O14   S    
C57   H43   S    
C55   H39   S    
C58   H46   S    
