data_mof_unit_27870.cif
_audit_creation_date              2013-03-05T16:48:44-0500
_audit_creation_method            fapswitch 2.2
_symmetry_space_group_name_H-M    P1
_symmetry_Int_Tables_number       1
_space_group_crystal_system       triclinic
_cell_length_a                    27.802078
_cell_length_b                    8.912365
_cell_length_c                    8.095246
_cell_angle_alpha                 90.042462
_cell_angle_beta                  90.404752
_cell_angle_gamma                 90.165129
_cell_volume                      2005.79944344

loop_
_atom_site_label
_atom_site_type_symbol
_atom_site_description
_atom_site_fract_x
_atom_site_fract_y
_atom_site_fract_z
_atom_type_partial_charge
O1    O     O_R   0.500000 0.285350 0.636850 -0.614597
O2    O     O_R   0.500000 0.714650 0.363150 -0.614591
O3    O     O_R   0.500000 0.714650 0.636850 -0.613480
O4    O     O_R   0.500000 0.285350 0.363150 -0.613484
C1    C     C_R   0.499987 0.217991 0.499961 0.946737
C2    C     C_R   0.500013 0.782009 0.500039 0.946751
O5    O     O_R   0.428760 0.500000 0.636860 -0.623370
O6    O     O_R   0.571240 0.500000 0.363140 -0.623333
O7    O     O_R   0.571240 0.500000 0.636860 -0.624401
O8    O     O_R   0.428760 0.500000 0.363140 -0.624450
C3    C     C_R   0.405784 0.499946 0.499348 0.872154
C4    C     C_R   0.594215 0.500044 0.500651 0.872067
Zn1   Zn    Zn3+2 0.500000 0.500000 0.682780 0.996265
Zn2   Zn    Zn3+2 0.500000 0.500000 0.317220 0.996263
C5    C     C_R   0.177728 0.384363 0.423660 0.517966
C6    C     C_R   0.822244 0.615439 0.576465 0.518065
C7    C     C_R   0.178584 0.626604 0.549399 0.500253
C8    C     C_R   0.821389 0.373490 0.450041 0.500328
O9    O     O_2   0.203081 0.266284 0.367139 -0.523334
O10   O     O_2   0.796877 0.733257 0.633572 -0.523269
O11   O     O_2   0.205077 0.742199 0.607796 -0.570590
O12   O     O_2   0.794889 0.258087 0.391210 -0.570571
N1    N     N_R   0.201757 0.504112 0.488711 -0.358488
N2    N     N_R   0.798222 0.495809 0.511144 -0.358585
C9    C     C_R   0.278425 0.513833 0.343748 -0.096670
C10   C     C_R   0.721574 0.484287 0.656033 -0.096814
C11   C     C_R   0.277618 0.489122 0.642360 -0.093615
C12   C     C_R   0.722372 0.512554 0.357739 -0.093932
C13   C     C_R   0.328353 0.512680 0.346251 -0.207444
C14   C     C_R   0.671645 0.485449 0.653566 -0.207321
C15   C     C_R   0.327599 0.488538 0.645326 -0.209329
C16   C     C_R   0.672392 0.513172 0.354800 -0.209173
C17   C     C_R   0.253061 0.501999 0.491645 0.320828
C18   C     C_R   0.746926 0.497895 0.508276 0.321326
C19   C     C_R   0.101994 0.506254 0.486865 -0.115013
C20   C     C_R   0.897979 0.493784 0.512701 -0.115005
C21   C     C_R   0.127216 0.383279 0.418137 -0.021172
C22   C     C_R   0.872759 0.616652 0.581686 -0.021229
C23   C     C_R   0.127903 0.631513 0.550427 -0.050931
C24   C     C_R   0.872069 0.368581 0.449002 -0.050983
C25   C     C_R   0.101320 0.264277 0.344746 0.140776
C26   C     C_R   0.898662 0.735683 0.654997 0.140795
C27   C     C_R   0.102093 0.756949 0.610080 0.107599
C28   C     C_R   0.897876 0.243204 0.389195 0.107654
C29   C     C_R   0.353264 0.500301 0.497146 -0.041249
C30   C     C_R   0.646732 0.499641 0.502838 -0.041211
H1    H     H_    0.346063 0.478584 0.763064 0.164555
H2    H     H_    0.653923 0.524603 0.237209 0.164582
H3    H     H_    0.347370 0.522203 0.230395 0.165272
H4    H     H_    0.652627 0.474473 0.769292 0.165271
H5    H     H_    0.257891 0.479712 0.756800 0.141008
H6    H     H_    0.742101 0.523353 0.243427 0.140884
H7    H     H_    0.259354 0.524338 0.227214 0.140639
H8    H     H_    0.740656 0.472388 0.772407 0.140477
C31   C     C_R   0.974285 0.373249 0.439266 0.016935
C32   C     C_R   0.025686 0.626863 0.560101 0.016939
C33   C     C_R   0.974742 0.621516 0.571799 0.042045
C34   C     C_R   0.025231 0.378566 0.427644 0.042044
C35   C     C_R   0.949128 0.496316 0.507556 0.072056
C36   C     C_R   0.050844 0.503763 0.491899 0.072046
C37   C     C_R   0.947683 0.246293 0.388177 -0.205070
C38   C     C_R   0.052284 0.753862 0.611075 -0.205102
C39   C     C_R   0.948580 0.736011 0.650835 -0.276274
C40   C     C_R   0.051400 0.264035 0.348695 -0.276271
H9    H     H_    0.964412 0.143989 0.348012 0.154250
H10   H     H_    0.035550 0.856197 0.651124 0.154261
H11   H     H_    0.965610 0.827695 0.715186 0.138402
H12   H     H_    0.034378 0.172370 0.284290 0.138390
C41   C     C_1   0.499996 0.065227 0.499944 -0.183846
C42   C     C_1   0.500004 0.934773 0.500056 -0.183850
N3    N     N_1   0.500000 0.500000 0.073640 -0.035362
N4    N     N_1   0.500000 0.500000 0.926360 -0.035361
N5    N     N_3   0.125153 0.143648 0.261379 -0.375561
H13   H     H_    0.113614 0.142739 0.138128 0.184271
H14   H     H_    0.114395 0.042518 0.315336 0.184220
N6    N     N_3   0.874838 0.856315 0.738391 -0.375504
H15   H     H_    0.886462 0.857422 0.861557 0.184286
H16   H     H_    0.885516 0.957424 0.684179 0.184200
N7    N     N_3   0.124658 0.891265 0.670832 -0.452942
H17   H     H_    0.145751 0.938725 0.578094 0.247688
H18   H     H_    0.145456 0.865912 0.775117 0.238871
N8    N     N_3   0.875307 0.108904 0.328412 -0.453003
H19   H     H_    0.854519 0.134272 0.224109 0.238959
H20   H     H_    0.854204 0.061453 0.421131 0.247399

loop_
_geom_bond_atom_site_label_1
_geom_bond_atom_site_label_2
_geom_bond_distance
_ccdc_geom_bond_type
C31   C35   1.416616 A    
C16   H2    1.083386 S    
Zn2   N3    1.971840 S    
C20   C35   1.423067 A    
C13   H3    1.083166 S    
C11   C17   1.398840 A    
C5    O9    1.349733 S    
C7    N1    1.362332 A    
O1    C1    1.259919 A    
C40   H12   1.075576 S    
C19   C21   1.418268 A    
N6    H16   1.045768 S    
C22   C26   1.408841 A    
C28   N8    1.434885 S    
C33   C35   1.418448 A    
C34   C36   1.418449 A    
C32   C33   1.420841 A    
C7    C23   1.409925 A    
O7    Zn1   2.017779 S    
C5    C21   1.404737 A    
C1    C41   1.361487 S    
C10   C18   1.397801 A    
N1    C17   1.426580 S    
C8    N2    1.362239 A    
C24   C28   1.416512 A    
O3    Zn1   1.949107 S    
C6    O10   1.349751 S    
O3    C2    1.260152 A    
C5    N1    1.361140 A    
C14   H4    1.083343 S    
C12   C18   1.398972 A    
C6    N2    1.361055 A    
C15   H1    1.083179 S    
C21   C25   1.408830 A    
N5    H14   1.045697 S    
O2    C2    1.259919 A    
C10   H8    1.083332 S    
C11   H5    1.083091 S    
C33   C39   1.410518 A    
N5    H13   1.045915 S    
C9    C13   1.388169 A    
C39   H11   1.075587 S    
C38   H10   1.075890 S    
C11   C15   1.389649 A    
C20   C24   1.420991 A    
N6    H15   1.045984 S    
C4    C30   1.460084 S    
O8    Zn2   2.017782 S    
N7    H18   1.045103 S    
C23   C27   1.416544 A    
C34   C40   1.410523 A    
N2    C18   1.426358 S    
C32   C36   1.416584 A    
C13   C29   1.404520 A    
C19   C36   1.423060 A    
C19   C23   1.420964 A    
O5    C3    1.279531 A    
C12   C16   1.389638 A    
O6    C4    1.279503 A    
C10   C14   1.388198 A    
N8    H20   1.044845 S    
C32   C38   1.410105 A    
C3    C29   1.460155 S    
O1    Zn1   1.948566 S    
C2    C42   1.361487 S    
O6    Zn2   2.012617 S    
C8    O12   1.348118 S    
C16   C30   1.404083 A    
C14   C30   1.404771 A    
C9    H7    1.083150 S    
O4    C1    1.260152 A    
Zn1   N4    1.971840 S    
C28   C37   1.385040 A    
C26   N6    1.435158 S    
C20   C22   1.418330 A    
N3    N4    1.192267 T    
C12   H6    1.083256 S    
C31   C37   1.410115 A    
O4    Zn2   1.949107 S    
C41   C42   1.162658 T    
O2    Zn2   1.948566 S    
O7    C4    1.278190 A    
C7    O11   1.348104 S    
O8    C3    1.278200 A    
C25   N5    1.435163 S    
N7    H17   1.044836 S    
C37   H9    1.075874 S    
O5    Zn1   2.012620 S    
C8    C24   1.409893 A    
N8    H19   1.045096 S    
C15   C29   1.403886 A    
C31   C34   1.420857 A    
C9    C17   1.397681 A    
C25   C40   1.388455 A    
C27   N7    1.434886 S    
C26   C39   1.388466 A    
C27   C38   1.385057 A    
C6    C22   1.404770 A    
