data_mof_unit_22296.cif
_audit_creation_date              2012-12-10T16:52:41-0500
_audit_creation_method            fapswitch 2.2
_symmetry_space_group_name_H-M    P1
_symmetry_Int_Tables_number       1
_space_group_crystal_system       triclinic
_cell_length_a                    7.820321
_cell_length_b                    8.618326
_cell_length_c                    13.68899
_cell_angle_alpha                 93.226212
_cell_angle_beta                  94.019976
_cell_angle_gamma                 93.776296
_cell_volume                      916.623211839

loop_
_atom_site_label
_atom_site_type_symbol
_atom_type_description
_atom_site_fract_x
_atom_site_fract_y
_atom_site_fract_z
_atom_type_partial_charge
C1    C     C_R   0.044758 0.794404 0.499078 0.883085
C2    C     C_R   0.935646 0.490608 0.317161 0.911547
C3    C     C_R   0.106891 0.562002 0.785010 -0.225135
C4    C     C_R   0.906616 0.490809 0.210347 -0.134890
C5    C     C_R   0.126662 0.777802 0.906844 -0.142914
C6    C     C_R   0.983925 0.403135 0.049103 -0.159807
C7    C     C_R   0.041087 0.697131 0.824785 -0.235559
C8    C     C_R   0.021934 0.421484 0.150034 -0.282082
C9    C     C_R   0.251050 0.502057 0.831360 0.464083
C10   C     C_R   0.760028 0.554667 0.168422 0.466135
C11   C     C_R   0.356423 0.599811 0.899199 0.050472
C12   C     C_R   0.955274 0.205614 0.501125 0.854541
C13   C     C_R   0.734513 0.555227 0.065371 -0.006556
C14   C     C_R   0.286733 0.732289 0.942977 0.036492
C15   C     C_R   0.835885 0.462848 0.007044 0.070115
C16   C     C_R   0.526017 0.565855 0.928067 -0.044547
C17   C     C_R   0.598643 0.630509 0.019435 -0.104277
C18   C     C_R   0.535147 0.768439 0.060395 0.476219
C19   C     C_R   0.628638 0.476187 0.867908 0.534135
C20   C     C_R   0.379718 0.819069 0.020508 -0.318957
C21   C     C_R   0.785088 0.428152 0.908161 -0.327389
C22   C     C_2   0.068152 0.958495 0.512438 0.179786
C23   C     C_2   0.931787 0.041524 0.487967 0.189237
C24   C     C_R   0.065087 0.514829 0.682310 0.848074
H1    H     H_    0.329799 0.924056 0.051310 0.149744
H2    H     H_    0.188775 0.290774 0.775319 0.324446
H3    H     H_    0.570351 0.949295 0.153589 0.333852
H4    H     H_    0.664488 0.381228 0.738952 0.345033
H5    H     H_    0.297066 0.946253 0.579052 0.346505
H6    H     H_    0.702657 0.053695 0.421527 0.345595
H7    H     H_    0.863857 0.359002 0.863151 0.135845
H8    H     H_    0.135657 0.372144 0.181448 0.177203
H9    H     H_    0.929002 0.744176 0.789649 0.181279
H10   H     H_    0.073658 0.881032 0.937871 0.158794
H11   H     H_    0.067459 0.338701 0.004417 0.160323
H12   H     H_    0.487150 0.374643 0.427688 0.191504
H13   H     H_    0.512868 0.625292 0.572369 0.208276
H14   H     H_    0.521667 0.570656 0.195805 0.321875
N1    N     N_2   0.440860 0.456490 0.474790 -0.137382
N2    N     N_2   0.559140 0.543510 0.525210 -0.126303
O1    O     O_R   0.891570 0.738930 0.506190 -0.550538
O2    O     O_3   0.288337 0.348803 0.812801 -0.728113
O3    O     O_3   0.632348 0.856925 0.134306 -0.713825
O4    O     O_3   0.583388 0.450584 0.768592 -0.715035
O5    O     O_3   0.219383 0.027616 0.560083 -0.759740
O6    O     O_3   0.780458 0.972390 0.440424 -0.737536
O7    O     O_R   0.108430 0.261070 0.493810 -0.551905
O8    O     O_R   0.174650 0.711050 0.490030 -0.640620
O9    O     O_R   0.825350 0.288950 0.509970 -0.650445
O10   O     O_R   0.909850 0.521900 0.644940 -0.622888
O11   O     O_R   0.090150 0.478100 0.355060 -0.632432
O12   O     O_R   0.192930 0.494020 0.628780 -0.565129
O13   O     O_R   0.807070 0.505980 0.371220 -0.552802
O14   O     O_3   0.636542 0.601997 0.228957 -0.696331
Zn1   Zn    Zn3+2 0.810990 0.518620 0.510790 1.011144
Zn2   Zn    Zn3+2 0.189010 0.481380 0.489210 1.007798

loop_
_geom_bond_atom_site_label_1
_geom_bond_atom_site_label_2
_ccdc_geom_bond_type
C24   O12   A    
C2    C4    S    
C10   C13   A    
C1    O8    A    
C3    C9    A    
H3    O3    S    
C9    C11   A    
C11   C16   A    
C18   C20   A    
O10   Zn1   S    
H14   O14   S    
C13   C17   A    
C4    C8    A    
N2    Zn1   S    
C5    H10   S    
C13   C15   A    
C12   O9    A    
C3    C24   S    
C1    C22   S    
C23   O6    S    
C18   O3    S    
C6    H11   S    
C21   H7    S    
C12   C23   S    
C9    O2    S    
C16   C17   A    
O12   Zn2   S    
C12   O7    A    
C1    O1    A    
C19   C21   A    
H4    O4    S    
C17   C18   A    
H13   N2    S    
C3    C7    A    
O13   Zn1   S    
C24   O10   A    
C10   O14   S    
C11   C14   A    
C2    O11   A    
C7    H9    S    
C4    C10   A    
C8    H8    S    
C14   C20   A    
C15   C21   A    
C22   O5    S    
C19   O4    S    
H2    O2    S    
C5    C7    A    
O11   Zn2   S    
C20   H1    S    
N1    N2    D    
O8    Zn2   S    
C22   C23   D    
O1    Zn1   S    
C6    C8    A    
C6    C15   A    
O9    Zn1   S    
C5    C14   A    
H6    O6    S    
H12   N1    S    
N1    Zn2   S    
H5    O5    S    
O7    Zn2   S    
C2    O13   A    
C16   C19   A    
