data_mof_unit_18886.cif
_audit_creation_date              2012-10-26T18:39:11-0400
_audit_creation_method            fapswitch 2.2
_symmetry_space_group_name_H-M    P1
_symmetry_Int_Tables_number       1
_space_group_crystal_system       triclinic
_cell_length_a                    9.459035
_cell_length_b                    10.626643
_cell_length_c                    17.256659
_cell_angle_alpha                 90.782561
_cell_angle_beta                  86.599253
_cell_angle_gamma                 89.393866
_cell_volume                      1731.2724384

loop_
_atom_site_label
_atom_site_type_symbol
_atom_type_description
_atom_site_fract_x
_atom_site_fract_y
_atom_site_fract_z
_atom_type_partial_charge
C1    C     C_R   0.499310 0.740267 0.499810 0.598647
C2    C     C_3   0.562784 0.956958 0.434345 0.271774
C3    C     C_3   0.959249 0.433243 0.443635 0.348889
C4    C     C_3   0.040748 0.566805 0.556361 0.304155
C5    C     C_3   0.051880 0.386866 0.506976 -0.014949
C6    C     C_3   0.948112 0.613137 0.493001 -0.045438
C7    C     C_3   0.057746 0.545839 0.436124 -0.021428
C8    C     C_3   0.942261 0.454170 0.563875 -0.031025
C9    C     C_R   0.482815 0.499081 0.649828 0.578281
C10   C     C_R   0.517185 0.500757 0.350174 0.579146
C11   C     C_R   0.481099 0.491298 0.734345 0.037928
C12   C     C_R   0.500693 0.259728 0.500221 0.599328
C13   C     C_R   0.518884 0.507926 0.265641 0.037897
C14   C     C_R   0.602787 0.526968 0.771535 -0.102266
C15   C     C_R   0.397404 0.471409 0.228549 -0.105315
C16   C     C_R   0.614972 0.505998 0.850460 0.034305
C17   C     C_R   0.385052 0.491795 0.149574 0.035476
C18   C     C_R   0.497303 0.456191 0.893722 0.046523
C19   C     C_R   0.502431 0.541847 0.106177 0.046223
C20   C     C_R   0.376200 0.419674 0.856503 -0.105932
C21   C     C_R   0.623376 0.579100 0.143298 -0.108942
C22   C     C_R   0.368471 0.436136 0.777024 -0.039680
C23   C     C_3   0.364127 0.961243 0.506046 -0.120977
C24   C     C_R   0.631231 0.563222 0.222818 -0.041792
C25   C     C_2   0.493542 0.447130 0.978090 -0.152811
C26   C     C_2   0.505997 0.550778 0.021804 -0.151914
C27   C     C_3   0.244476 0.462890 0.115291 -0.284127
C28   C     C_3   0.126245 0.549734 0.149607 -0.404890
C29   C     C_3   0.755623 0.534133 0.884875 -0.280774
C30   C     C_3   0.873486 0.447013 0.850438 -0.398533
C31   C     C_3   0.635904 0.038737 0.494036 -0.127528
C32   C     C_3   0.430243 0.042663 0.439517 -0.147558
C33   C     C_3   0.569793 0.957312 0.560560 -0.156609
C34   C     C_3   0.502157 0.123004 0.500306 -0.014631
C35   C     C_3   0.497874 0.876980 0.499768 -0.016285
C36   C     C_3   0.437257 0.043026 0.565734 0.273983
Cu1   Cu    Cu3+1 0.356850 0.500010 0.499980 1.084608
Cu2   Cu    Cu3+1 0.643150 0.499990 0.500020 1.078071
H1    H     H_    0.691040 0.568530 0.738475 0.163045
H2    H     H_    0.712431 0.619567 0.110377 0.108766
H3    H     H_    0.374815 0.079805 0.389545 0.172120
H4    H     H_    0.625251 0.920154 0.610518 0.160668
H5    H     H_    0.252873 0.928798 0.511261 0.183309
H6    H     H_    0.747178 0.071121 0.488867 0.186789
H7    H     H_    0.098419 0.291216 0.511858 0.175310
H8    H     H_    0.901525 0.708681 0.487757 0.152650
H9    H     H_    0.039782 0.208244 0.285845 0.372931
H10   H     H_    0.926552 0.809859 0.624772 0.334851
H11   H     H_    0.109276 0.536585 0.213164 0.192016
H12   H     H_    0.309405 0.429673 0.261728 0.157932
H13   H     H_    0.153111 0.649566 0.138219 0.166504
H14   H     H_    0.025783 0.528031 0.122261 0.150191
H15   H     H_    0.248098 0.474346 0.051561 0.153886
H16   H     H_    0.216432 0.363426 0.127219 0.155054
H17   H     H_    0.846043 0.347219 0.861536 0.165014
H18   H     H_    0.890737 0.460564 0.786929 0.194561
H19   H     H_    0.973968 0.468056 0.877941 0.151765
H20   H     H_    0.784169 0.633553 0.873177 0.171376
H21   H     H_    0.751805 0.522323 0.948583 0.150722
H22   H     H_    0.252973 0.019304 0.756755 0.368201
H23   H     H_    0.109939 0.583354 0.382055 0.136770
H24   H     H_    0.747011 0.980884 0.243323 0.362615
H25   H     H_    0.890067 0.416654 0.617943 0.137668
H26   H     H_    0.722962 0.597210 0.250933 0.198623
H27   H     H_    0.276587 0.402703 0.748823 0.196514
H28   H     H_    0.531074 0.640600 0.995180 0.141468
H29   H     H_    0.468534 0.357270 0.004678 0.139913
H30   H     H_    0.286907 0.379400 0.889322 0.108474
N1    N     N_3   0.141720 0.500030 0.499940 -0.284955
N2    N     N_3   0.858280 0.499970 0.500060 -0.284853
O1    O     O_R   0.379130 0.683150 0.499960 -0.472903
O2    O     O_2   0.882826 0.421438 0.295956 -0.331955
O3    O     O_3   0.063930 0.252160 0.334225 -0.557222
O4    O     O_2   0.116963 0.578524 0.704098 -0.292212
O5    O     O_2   0.202476 0.747853 0.619404 -0.237475
O6    O     O_3   0.937214 0.748464 0.666768 -0.521394
O7    O     O_2   0.463157 0.174441 0.697615 -0.313710
O8    O     O_2   0.233187 0.186332 0.638777 -0.308008
O9    O     O_3   0.298375 0.980211 0.708997 -0.458044
O10   O     O_2   0.767102 0.813908 0.361310 -0.306506
O11   O     O_2   0.537116 0.825428 0.302472 -0.313573
O12   O     O_R   0.620870 0.316850 0.500040 -0.472041
O13   O     O_3   0.701535 0.019917 0.291080 -0.471038
O14   O     O_R   0.620910 0.683140 0.500000 -0.497340
O15   O     O_R   0.379090 0.316860 0.500000 -0.491101
O16   O     O_R   0.365090 0.500030 0.613580 -0.430526
O17   O     O_R   0.634910 0.499970 0.386420 -0.428248
O18   O     O_R   0.606870 0.500020 0.613610 -0.534637
O19   O     O_R   0.393130 0.499980 0.386390 -0.532106
O20   O     O_2   0.798599 0.251622 0.381277 -0.233991
S1    S     S_3+6 0.919056 0.338393 0.361708 0.022285
S2    S     S_3+6 0.081175 0.661649 0.638342 0.036446
S3    S     S_3+6 0.355996 0.101759 0.654903 0.012995
S4    S     S_3+6 0.644137 0.898292 0.345178 0.010575

loop_
_geom_bond_atom_site_label_1
_geom_bond_atom_site_label_2
_ccdc_geom_bond_type
C2    C35   S    
H24   O13   S    
Cu2   N2    S    
H22   O9    S    
Cu1   N1    S    
H10   O6    S    
C25   H29   S    
C4    C8    S    
C27   H16   S    
C1    O14   A    
C29   C30   S    
C12   O15   A    
C33   H4    S    
C2    C32   S    
C19   C21   A    
O9    S3    S    
C3    C7    S    
C9    O18   A    
C28   H13   S    
O8    S3    D    
C30   H19   S    
C33   C36   S    
C23   H5    S    
C3    S1    S    
C15   H12   S    
O4    S2    D    
C19   C26   S    
C7    H23   S    
C5    N1    S    
C33   C35   S    
C14   H1    S    
C36   S3    S    
C29   H21   S    
C10   O19   A    
C32   H3    S    
C31   C33   S    
C17   C27   S    
C18   C20   A    
C24   H26   S    
Cu2   O12   S    
C18   C25   S    
C4    N1    S    
C10   O17   A    
C31   H6    S    
C26   H28   S    
Cu1   O16   S    
C2    S4    S    
C3    N2    S    
O3    S1    S    
C4    C6    S    
O2    S1    D    
C17   C19   A    
C16   C29   S    
O13   S4    S    
C30   H18   S    
C13   C24   A    
Cu2   O18   S    
C2    C31   S    
C32   C34   S    
C22   H27   S    
Cu1   Cu2   S    
C9    O16   A    
C28   H11   S    
C31   C34   S    
C12   O12   A    
C1    O1    A    
C9    C11   S    
H9    O3    S    
O5    S2    D    
O6    S2    S    
C20   C22   A    
C23   C35   S    
C13   C15   A    
C14   C16   A    
C12   C34   S    
C1    C35   S    
Cu1   O15   S    
C6    N2    S    
C6    H8    S    
Cu2   O14   S    
C20   H30   S    
C3    C5    S    
C10   C13   S    
C7    N1    S    
C5    C8    S    
C27   H15   S    
C15   C17   A    
C6    C7    S    
C30   H17   S    
C11   C22   A    
C8    N2    S    
Cu1   O19   S    
Cu2   O17   S    
C23   C32   S    
Cu1   O1    S    
C25   C26   D    
O11   S4    D    
C28   H14   S    
O20   S1    D    
C21   H2    S    
C5    H7    S    
O7    S3    D    
C11   C14   A    
C34   C36   S    
C8    H25   S    
C29   H20   S    
C16   C18   A    
C23   C36   S    
C21   C24   A    
C27   C28   S    
O10   S4    D    
C4    S2    S    
