data_mof_unit_53182.cif
_audit_creation_date              2013-03-05T16:04:20-0500
_audit_creation_method            fapswitch 2.2
_symmetry_space_group_name_H-M    P1
_symmetry_Int_Tables_number       1
_space_group_crystal_system       triclinic
_cell_length_a                    9.655606
_cell_length_b                    10.79673
_cell_length_c                    13.538817
_cell_angle_alpha                 91.255483
_cell_angle_beta                  73.06242
_cell_angle_gamma                 89.825893
_cell_volume                      1349.79505746

loop_
_atom_site_label
_atom_site_type_symbol
_atom_site_description
_atom_site_fract_x
_atom_site_fract_y
_atom_site_fract_z
_atom_type_partial_charge
O1    O     O_R   0.381250 0.680340 0.500010 -0.552989
O2    O     O_R   0.618820 0.680370 0.500010 -0.601101
C1    C     C_R   0.500992 0.737301 0.497104 0.822049
O3    O     O_R   0.323240 0.499950 0.650980 -0.500408
O4    O     O_R   0.560810 0.499980 0.650980 -0.607505
C2    C     C_R   0.422410 0.512338 0.699570 0.821433
Cu1   Cu    Cu3+1 0.359340 0.499980 0.500000 1.050309
Cu2   Cu    Cu3+1 0.640660 0.500020 0.500000 1.013997
O5    O     O_R   0.381180 0.319630 0.499990 -0.573992
O6    O     O_R   0.618750 0.319660 0.499990 -0.544941
O7    O     O_R   0.439190 0.500020 0.349020 -0.603262
O8    O     O_R   0.676760 0.500050 0.349020 -0.542466
C3    C     C_R   0.500092 0.262657 0.499941 0.825203
C4    C     C_R   0.577894 0.500967 0.300595 0.852618
C5    C     C_R   0.795815 0.475692 0.018639 -0.179127
H1    H     H_    0.841203 0.547368 0.825966 0.228951
H2    H     H_    0.904108 0.454653 0.971325 0.193620
C6    C     C_R   0.621740 0.502497 0.187112 -0.149273
C7    C     C_R   0.228435 0.544490 0.869803 0.287975
C8    C     C_R   0.185319 0.541644 0.977034 -0.185086
C9    C     C_R   0.283530 0.515337 0.030695 0.372141
C10   C     C_R   0.434352 0.524621 0.979882 -0.022670
C11   C     C_R   0.479107 0.542529 0.871082 -0.006195
C12   C     C_R   0.543279 0.516742 0.031542 0.082852
C13   C     C_R   0.689611 0.505946 0.972350 0.080741
C14   C     C_R   0.729726 0.537150 0.869249 -0.155740
C15   C     C_R   0.625819 0.567098 0.822648 -0.132994
C16   C     C_R   0.513982 0.525611 0.139059 -0.266625
C17   C     C_R   0.764614 0.475999 0.125419 0.392128
C18   C     C_R   0.376567 0.535206 0.814171 -0.214504
H3    H     H_    0.408923 0.556448 0.186479 0.244061
H4    H     H_    0.072497 0.548938 0.019119 0.190134
H5    H     H_    0.663410 0.611101 0.749125 0.166690
C19   C     C_R   0.590231 0.936142 0.542207 -0.193496
H6    H     H_    0.657206 0.887557 0.580870 0.165177
C20   C     C_R   0.589626 0.064293 0.544544 -0.089454
H7    H     H_    0.656339 0.112997 0.584331 0.183294
C21   C     C_R   0.500606 0.128752 0.498140 -0.085355
C22   C     C_R   0.413272 0.065046 0.448301 -0.195356
H8    H     H_    0.347978 0.115543 0.409622 0.220008
C23   C     C_R   0.415363 0.936212 0.443070 0.336388
C24   C     C_R   0.502676 0.871398 0.492713 -0.136397
C25   C     C_R   0.907799 0.595687 0.544289 -0.115406
H9    H     H_    0.838665 0.673099 0.579997 0.155309
C26   C     C_R   0.055183 0.595087 0.545100 0.017979
H10   H     H_    0.094561 0.671940 0.581465 0.191970
N1    N     N_R   0.147940 0.499970 0.499970 -0.234190
C27   C     C_R   0.092514 0.404924 0.453965 0.462230
C28   C     C_R   0.944381 0.402939 0.457028 0.419486
N2    N     N_R   0.852060 0.500060 0.499990 -0.257833
O9    O     O_3   0.876555 0.453672 0.166149 -0.643649
H11   H     H_    0.884756 0.528657 0.207542 0.352693
N3    N     N_R   0.334547 0.873755 0.383265 0.127847
O10   O     O_R   0.396231 0.787453 0.316114 -0.360798
O11   O     O_R   0.208592 0.916762 0.383026 -0.305044
O12   O     O_3   0.178302 0.308760 0.401631 -0.680513
H12   H     H_    0.272601 0.343351 0.364261 0.352045
N4    N     N_R   0.894260 0.296430 0.413471 0.160259
O13   O     O_R   0.910880 0.187187 0.447386 -0.317677
O14   O     O_R   0.863447 0.304461 0.326674 -0.270722
N5    N     N_R   0.118976 0.549575 0.818639 0.096564
O15   O     O_R   0.084370 0.655454 0.787874 -0.402819
O16   O     O_R   0.073538 0.446941 0.787028 -0.385363
O17   O     O_3   0.226669 0.471669 0.128860 -0.690161
H13   H     H_    0.287487 0.400019 0.135656 0.336964

loop_
_geom_bond_atom_site_label_1
_geom_bond_atom_site_label_2
_geom_bond_distance
_ccdc_geom_bond_type
O4    Cu2   1.963292 S    
C25   H9    1.081085 S    
C25   N2    1.371007 A    
Cu1   O5    1.957931 S    
C11   C15   1.405617 A    
C23   C24   1.413985 A    
C4    C6    1.470466 S    
C7    C8    1.389893 A    
C19   C24   1.401954 A    
C7    C18   1.411115 A    
Cu2   O8    1.970961 S    
C13   C14   1.385042 A    
O17   H13   0.991760 S    
C28   N2    1.377670 A    
N5    O16   1.301976 A    
O2    C1    1.302543 A    
C14   C15   1.372936 A    
C6    C16   1.402882 A    
Cu1   Cu2   2.716317 S    
C22   C23   1.391025 A    
C6    C17   1.413636 A    
O1    Cu1   1.959397 S    
N3    O10   1.301339 A    
C12   C13   1.409722 A    
Cu1   O7    1.963293 S    
C25   C26   1.426310 A    
C23   N3    1.437578 S    
C3    C21   1.445374 S    
O4    C2    1.311187 A    
C7    N5    1.423989 S    
O3    Cu1   1.970960 S    
C5    H2    1.075726 S    
C20   C21   1.395716 A    
C20   H7    1.083244 S    
C2    C18   1.498871 S    
O8    C4    1.306172 A    
C5    C17   1.388078 A    
C19   C20   1.383238 A    
N3    O11   1.301395 A    
H1    C14   1.072473 S    
N5    O15   1.300611 A    
O7    C4    1.308574 A    
C10   C12   1.425941 A    
C5    C13   1.390116 A    
O3    C2    1.315868 A    
O12   H12   0.983071 S    
C17   O9    1.371856 S    
N4    O14   1.298073 A    
O9    H11   0.991026 S    
C11   C18   1.422152 A    
Cu2   N2    2.041157 S    
C1    C24   1.450271 S    
C21   C22   1.397935 A    
C8    C9    1.384392 A    
Cu2   O6    1.959397 S    
C19   H6    1.083780 S    
C8    H4    1.073977 S    
C26   N1    1.370467 A    
O2    Cu2   1.957933 S    
C22   H8    1.082464 S    
C27   O12   1.373582 S    
O5    C3    1.300737 A    
C10   C11   1.426893 A    
C27   C28   1.419023 A    
C9    O17   1.376210 S    
O1    C1    1.302080 A    
C9    C10   1.422751 A    
C26   H10   1.080995 S    
N4    O13   1.301249 A    
C16   H3    1.077575 S    
C15   H5    1.076825 S    
C28   N4    1.429784 S    
C12   C16   1.400676 A    
N1    C27   1.377301 A    
O6    C3    1.302359 A    
Cu1   N1    2.041314 S    
