data_mof_unit_38607.cif
_audit_creation_date              2012-12-11T16:24:11-0500
_audit_creation_method            fapswitch 2.2
_symmetry_space_group_name_H-M    P1
_symmetry_Int_Tables_number       1
_space_group_crystal_system       triclinic
_cell_length_a                    14.741653
_cell_length_b                    14.737266
_cell_length_c                    33.321434
_cell_angle_alpha                 96.092486
_cell_angle_beta                  96.283517
_cell_angle_gamma                 61.215425
_cell_volume                      6294.65385405

loop_
_atom_site_label
_atom_site_type_symbol
_atom_type_description
_atom_site_fract_x
_atom_site_fract_y
_atom_site_fract_z
_atom_type_partial_charge
C1    C     C_R   0.390911 0.699767 0.446060 0.565889
C2    C     C_R   0.330865 0.348668 0.308319 0.062149
C3    C     C_R   0.398522 0.259599 0.328995 0.118323
C4    C     C_R   0.417829 0.268515 0.371400 0.104830
C5    C     C_R   0.395188 0.253118 0.165520 -0.103147
C6    C     C_R   0.385691 0.234616 0.123770 -0.125516
C7    C     C_R   0.210287 0.378188 0.121674 -0.125115
C8    C     C_R   0.220007 0.396413 0.163466 -0.109577
C9    C     C_R   0.311253 0.331818 0.185476 0.038696
C10   C     C_1   0.316133 0.340334 0.228708 -0.003197
C11   C     C_1   0.321414 0.344597 0.264994 0.032225
C12   C     C_R   0.405637 0.386204 0.433990 0.566927
C13   C     C_R   0.291707 0.294525 0.101660 0.019367
C14   C     C_R   0.757611 0.371980 0.409597 0.065996
C15   C     C_R   0.791613 0.433953 0.392646 0.069072
C16   C     C_R   0.815060 0.415126 0.352011 -0.109662
C17   C     C_R   0.808069 0.334386 0.328188 -0.007911
C18   C     C_R   0.788050 0.265110 0.346304 -0.112403
C19   C     C_R   0.763756 0.282133 0.386832 0.065759
C20   C     C_R   0.821965 0.315764 0.202668 0.369293
C21   C     C_R   0.816296 0.325923 0.284144 0.343743
C22   C     C_R   0.802357 0.393407 0.136499 0.141247
C23   C     C_R   0.701423 0.409490 0.447424 0.561743
C24   C     C_R   0.837140 0.381647 0.097623 0.093876
C25   C     C_R   0.929172 0.194410 0.102590 -0.163410
C26   C     C_R   0.895181 0.206399 0.140958 -0.163723
C27   C     C_R   0.836524 0.305579 0.159096 0.044467
C28   C     C_R   0.905602 0.281315 0.081398 0.010995
C29   C     C_R   0.371907 0.754310 0.408812 0.058112
C30   C     C_R   0.274032 0.797560 0.387069 0.087978
C31   C     C_R   0.265768 0.825042 0.347364 -0.114343
C32   C     C_R   0.353594 0.810253 0.329010 0.013930
C33   C     C_R   0.448176 0.776982 0.352084 -0.131868
C34   C     C_R   0.393394 0.701662 0.561240 0.564624
C35   C     C_R   0.457168 0.749551 0.391562 -0.159388
C36   C     C_R   0.342200 0.826526 0.203845 0.370404
C37   C     C_R   0.348350 0.821035 0.285246 0.340683
C38   C     C_R   0.261101 0.823936 0.133509 0.097309
C39   C     C_R   0.242366 0.856208 0.094061 -0.126378
C40   C     C_R   0.378377 0.905296 0.105789 -0.141454
C41   C     C_R   0.397471 0.873462 0.145105 -0.149747
C42   C     C_R   0.335579 0.837832 0.160040 0.074399
C43   C     C_R   0.297094 0.901867 0.080692 0.001539
C44   C     C_R   0.370652 0.370378 0.585248 0.061798
C45   C     C_R   0.407162 0.388701 0.548952 0.564488
C46   C     C_R   0.293821 0.456171 0.606255 -0.163791
C47   C     C_R   0.274652 0.448497 0.645302 -0.132842
C48   C     C_R   0.330992 0.354592 0.664093 0.017420
C49   C     C_R   0.400200 0.266019 0.641885 -0.113457
C50   C     C_R   0.420676 0.273148 0.602601 0.092700
C51   C     C_R   0.321232 0.346431 0.788421 0.383784
C52   C     C_R   0.323808 0.351322 0.707529 0.332658
C53   C     C_R   0.221366 0.407769 0.850498 0.077718
C54   C     C_R   0.208840 0.389663 0.889774 0.087407
C55   C     C_R   0.385321 0.247299 0.892694 -0.151108
C56   C     C_R   0.702202 0.413147 0.562767 0.559003
C57   C     C_R   0.399085 0.265653 0.854101 0.065346
C58   C     C_R   0.314863 0.342260 0.831951 0.079244
C59   C     C_R   0.289329 0.304422 0.909856 0.016715
C60   C     C_R   0.756895 0.379125 0.603233 0.065784
C61   C     C_R   0.777294 0.448610 0.630967 0.069174
C62   C     C_R   0.802708 0.427123 0.671900 -0.099052
C63   C     C_R   0.810343 0.337489 0.685530 -0.005907
C64   C     C_R   0.800243 0.264210 0.658158 -0.105867
C65   C     C_R   0.774943 0.283100 0.616947 0.072890
C66   C     C_R   0.882256 0.213560 0.823553 -0.145596
C67   C     C_R   0.369614 0.367236 0.392292 0.041927
C68   C     C_R   0.910928 0.202186 0.864755 -0.140213
C69   C     C_R   0.870647 0.382870 0.873798 -0.111790
C70   C     C_R   0.841523 0.394927 0.832376 0.114455
C71   C     C_R   0.850688 0.308544 0.807126 0.068737
C72   C     C_1   0.835815 0.315022 0.764017 0.010880
C73   C     C_1   0.824864 0.323230 0.728082 -0.013858
C74   C     C_R   0.908994 0.285747 0.889982 -0.001783
C75   C     C_R   0.377337 0.754426 0.602230 0.055375
C76   C     C_R   0.278636 0.804378 0.618344 0.092995
C77   C     C_R   0.270705 0.832329 0.659892 -0.100511
C78   C     C_R   0.296090 0.453293 0.371117 -0.169501
C79   C     C_R   0.359542 0.811501 0.685332 0.020984
C80   C     C_R   0.456161 0.768538 0.669171 -0.122917
C81   C     C_R   0.465003 0.740742 0.627905 -0.157468
C82   C     C_R   0.394419 0.885916 0.832495 -0.140952
C83   C     C_R   0.374984 0.913994 0.873190 -0.137164
C84   C     C_R   0.229703 0.878011 0.863516 -0.109960
C85   C     C_R   0.248712 0.849794 0.822464 0.119108
C86   C     C_R   0.330048 0.856623 0.806888 0.068921
C87   C     C_1   0.343749 0.840115 0.764219 0.009653
C88   C     C_1   0.352032 0.827764 0.728292 -0.011550
C89   C     C_R   0.277401 0.444058 0.329517 -0.157368
C90   C     C_R   0.290336 0.913639 0.888797 -0.002584
C91   C     C_R   0.962580 0.264605 0.045284 0.541727
C92   C     C_R   0.272800 0.259529 0.060007 0.542251
C93   C     C_R   0.259282 0.959534 0.043753 0.546303
C94   C     C_R   0.962326 0.267727 0.930785 0.541618
C95   C     C_R   0.270642 0.264415 0.945283 0.566208
C96   C     C_R   0.256095 0.964974 0.928957 0.544547
Cr1   Cr    Cr6+3 0.576280 0.580550 0.506370 1.033885
Cr2   Cr    Cr6+3 0.346780 0.572400 0.496520 1.036097
Cr3   Cr    Cr6+3 0.576960 0.347070 0.497150 1.074607
Cr4   Cr    Cr6+3 0.087320 0.083240 0.984860 1.011420
Cr5   Cr    Cr6+3 0.087720 0.316210 0.996740 1.030011
Cr6   Cr    Cr6+3 0.317350 0.090340 0.995890 1.013349
H1    H     H_    0.835764 0.465965 0.338655 0.137247
H2    H     H_    0.786889 0.199787 0.328448 0.136181
H3    H     H_    0.921154 0.137768 0.157524 0.147201
H4    H     H_    0.533103 0.717914 0.407537 0.155441
H5    H     H_    0.466242 0.203039 0.182447 0.128128
H6    H     H_    0.422497 0.939371 0.096136 0.138806
H7    H     H_    0.456006 0.883682 0.164660 0.139735
H8    H     H_    0.253072 0.531632 0.593682 0.141561
H9    H     H_    0.219039 0.517568 0.661411 0.143208
H10   H     H_    0.442692 0.192100 0.655594 0.132557
H11   H     H_    0.448729 0.184373 0.908540 0.134607
H12   H     H_    0.889179 0.146932 0.804185 0.111485
H13   H     H_    0.809522 0.193329 0.669102 0.109519
H14   H     H_    0.868180 0.448074 0.892958 0.121564
H15   H     H_    0.813832 0.481972 0.693480 0.125599
H16   H     H_    0.422969 0.941266 0.891850 0.137666
H17   H     H_    0.457332 0.890955 0.820639 0.121872
H18   H     H_    0.164387 0.877053 0.875146 0.121562
H19   H     H_    0.154808 0.457728 0.178793 0.119444
H20   H     H_    0.224579 0.512651 0.313596 0.125600
N1    N     N_R   0.818712 0.398745 0.225691 -0.180120
N2    N     N_R   0.277856 0.440616 0.731048 -0.225953
N3    N     N_R   0.368929 0.259541 0.725271 -0.237904
N4    N     N_R   0.367085 0.257172 0.764923 -0.188246
N5    N     N_R   0.815366 0.403999 0.265595 -0.226514
N6    N     N_R   0.819441 0.242855 0.261118 -0.231030
N7    N     N_R   0.823054 0.237485 0.221174 -0.236968
N8    N     N_R   0.257701 0.841644 0.222066 -0.175908
N9    N     N_R   0.260858 0.838370 0.261907 -0.232252
N10   N     N_R   0.432826 0.806571 0.267082 -0.226077
N11   N     N_R   0.429585 0.810021 0.227180 -0.232983
N12   N     N_R   0.276326 0.438247 0.770731 -0.180585
O1    O     O_R   0.679450 0.499830 0.463150 -0.486324
O2    O     O_R   0.356040 0.477400 0.534170 -0.522147
O3    O     O_R   0.495910 0.323070 0.537100 -0.455088
O4    O     O_R   0.663920 0.359620 0.542290 -0.472777
O5    O     O_3   0.500010 0.500010 0.500010 -0.266223
O6    O     O_R   0.170070 0.978950 0.027680 -0.521271
O7    O     O_R   0.001760 0.175230 0.026640 -0.501748
O8    O     O_R   0.984760 0.333570 0.037150 -0.523040
O9    O     O_R   0.183410 0.309240 0.041890 -0.502647
O10   O     O_R   0.340240 0.172500 0.045430 -0.520378
O11   O     O_R   0.309670 0.000990 0.032050 -0.499493
O12   O     O_R   0.480650 0.664000 0.464630 -0.512478
O13   O     O_R   0.168330 0.982130 0.939200 -0.520800
O14   O     O_R   0.000140 0.178170 0.944610 -0.502002
O15   O     O_R   0.983010 0.336750 0.948660 -0.510732
O16   O     O_R   0.181800 0.312190 0.959860 -0.452061
O17   O     O_R   0.338500 0.175680 0.956950 -0.532035
O18   O     O_R   0.308050 0.003930 0.950020 -0.499940
O19   O     O_3   0.164130 0.163270 0.992500 -0.240281
O20   O     O_R   0.323930 0.675950 0.455370 -0.472205
O21   O     O_R   0.354700 0.475360 0.451930 -0.520015
O22   O     O_R   0.494470 0.320860 0.448390 -0.454273
O23   O     O_R   0.662580 0.357570 0.460050 -0.475456
O24   O     O_R   0.680900 0.502040 0.551870 -0.491284
O25   O     O_R   0.481990 0.666040 0.546870 -0.511298
O26   O     O_R   0.325370 0.678160 0.544080 -0.473095
H21   H     H_    0.449781 0.169756 0.109241 0.130974
N13   N     N_3   0.741335 0.210473 0.404247 -0.583674
H22   H     H_    0.801663 0.171998 0.425885 0.223481
H23   H     H_    0.741606 0.153575 0.382575 0.212971
N14   N     N_3   0.802235 0.472479 0.075573 -0.645434
H24   H     H_    0.776609 0.458794 0.046177 0.239020
H25   H     H_    0.863903 0.488057 0.074474 0.254700
N15   N     N_3   0.733748 0.494638 0.153384 -0.583300
H26   H     H_    0.666416 0.526992 0.134148 0.253324
H27   H     H_    0.769876 0.540996 0.154360 0.253065
H28   H     H_    0.980323 0.116658 0.090752 0.145909
N16   N     N_3   0.183602 0.810424 0.404492 -0.600940
H29   H     H_    0.128036 0.888715 0.404035 0.225283
H30   H     H_    0.153739 0.767585 0.386122 0.225368
H31   H     H_    0.181137 0.850370 0.074687 0.126279
H32   H     H_    0.191142 0.853784 0.330446 0.134567
H33   H     H_    0.516919 0.766525 0.339005 0.147629
N17   N     N_3   0.202520 0.779631 0.146714 -0.600792
H34   H     H_    0.215074 0.714160 0.127627 0.228400
H35   H     H_    0.123800 0.833569 0.143264 0.232486
N18   N     N_3   0.494823 0.182407 0.581190 -0.591560
H36   H     H_    0.470023 0.126365 0.578988 0.223951
H37   H     H_    0.565684 0.153589 0.598398 0.236539
N19   N     N_3   0.113090 0.454712 0.908461 -0.597652
H38   H     H_    0.099964 0.531298 0.910644 0.217645
H39   H     H_    0.052487 0.450304 0.890470 0.233267
N20   N     N_3   0.449614 0.161630 0.306509 -0.626396
H40   H     H_    0.529751 0.133464 0.310900 0.229671
H41   H     H_    0.430829 0.109447 0.317586 0.235657
N21   N     N_3   0.137022 0.488093 0.828283 -0.604904
H42   H     H_    0.116127 0.559354 0.844425 0.231051
H43   H     H_    0.073663 0.473736 0.825131 0.240744
N22   N     N_3   0.497487 0.204362 0.836645 -0.601071
H44   H     H_    0.528065 0.253977 0.833479 0.232770
H45   H     H_    0.550084 0.148403 0.856197 0.222104
H46   H     H_    0.940521 0.126327 0.876303 0.134298
N23   N     N_3   0.764836 0.206111 0.589312 -0.587661
H47   H     H_    0.773959 0.143676 0.604702 0.214576
H48   H     H_    0.825789 0.176631 0.570183 0.220227
N24   N     N_3   0.768776 0.542558 0.617980 -0.609346
H49   H     H_    0.831273 0.521328 0.600363 0.236132
H50   H     H_    0.776461 0.589016 0.642678 0.215965
N25   N     N_3   0.807929 0.492783 0.815436 -0.631958
H51   H     H_    0.810874 0.546985 0.837759 0.217372
H52   H     H_    0.729953 0.521033 0.805277 0.233267
N26   N     N_3   0.487406 0.178763 0.393105 -0.597271
H53   H     H_    0.459685 0.124939 0.388684 0.223630
H54   H     H_    0.560414 0.145686 0.381477 0.236029
H55   H     H_    0.525327 0.752534 0.688698 0.122746
H56   H     H_    0.541748 0.702553 0.616627 0.162164
N27   N     N_3   0.186799 0.824369 0.592986 -0.603333
H57   H     H_    0.151252 0.786449 0.604134 0.225497
H58   H     H_    0.135997 0.904080 0.595422 0.222639
N28   N     N_3   0.183905 0.817589 0.796247 -0.609039
H59   H     H_    0.131738 0.810527 0.812913 0.224219
H60   H     H_    0.139376 0.876605 0.776592 0.222811
H61   H     H_    0.195523 0.867003 0.672459 0.109547
H62   H     H_    0.257552 0.529816 0.386239 0.147645
H63   H     H_    0.136908 0.425622 0.105512 0.129990
N29   N     N_3   0.798887 0.518109 0.416215 -0.599476
H64   H     H_    0.818774 0.559521 0.398500 0.220062
H65   H     H_    0.859800 0.485507 0.438288 0.230096

loop_
_geom_bond_atom_site_label_1
_geom_bond_atom_site_label_2
_ccdc_geom_bond_type
Cr4   O19   S    
C7    C13   A    
C66   C68   A    
C87   C88   T    
Cr2   O20   S    
C69   H14   S    
C40   C41   A    
N14   H24   S    
C38   N17   S    
C55   C59   A    
C52   N2    A    
C41   C42   A    
C74   C94   S    
C36   C42   S    
C20   N7    A    
N25   H51   S    
N6    N7    A    
N29   H65   S    
N17   H34   S    
C7    C8    A    
N18   H36   S    
N16   H29   S    
C25   C28   A    
N25   H52   S    
C26   C27   A    
N21   H42   S    
C84   C90   A    
Cr1   O25   S    
C83   H16   S    
Cr6   O17   S    
C38   C42   A    
C2    C3    A    
Cr4   O7    S    
Cr6   O11   S    
C5    H5    S    
C5    C6    A    
C51   N12   A    
N26   H54   S    
C8    H19   S    
C89   H20   S    
Cr4   O13   S    
C68   C74   A    
C15   C16   A    
C96   O18   A    
Cr2   O2    S    
Cr5   O16   S    
C20   N1    A    
N19   H38   S    
C26   H3    S    
C18   C19   A    
Cr1   O12   S    
N23   H48   S    
C92   O9    A    
C79   C88   S    
C62   H15   S    
C56   O24   A    
Cr4   O6    S    
C43   C93   S    
Cr2   O21   S    
C40   C43   A    
C35   H4    S    
C47   C48   A    
C53   C54   A    
C44   C46   A    
N24   H49   S    
N22   H45   S    
Cr3   O4    S    
C93   O11   A    
C70   C71   A    
N26   H53   S    
C21   N5    A    
N10   N11   A    
C53   N21   S    
C61   C62   A    
C34   C75   S    
C40   H6    S    
C91   O8    A    
C7    H63   S    
C34   O25   A    
C25   H28   S    
N15   H27   S    
C81   H56   S    
N14   H25   S    
C64   H13   S    
C41   H7    S    
C52   N3    A    
C36   N11   A    
Cr3   O5    S    
C1    O12   A    
C1    O20   A    
C67   C78   A    
Cr6   O10   S    
C82   H17   S    
C12   O22   A    
C2    C11   S    
C61   N24   S    
C1    C29   S    
N29   H64   S    
N16   H30   S    
N13   H23   S    
C54   C59   A    
N18   H37   S    
C78   C89   A    
C94   O14   A    
C38   C39   A    
C12   C67   S    
C63   C64   A    
C33   H33   S    
C76   C77   A    
C72   C73   T    
C39   H31   S    
C95   O16   A    
N28   H59   S    
C8    C9    A    
C39   C43   A    
C55   H11   S    
C25   C26   A    
C85   C86   A    
C83   C90   A    
C17   C21   S    
C37   N9    A    
C57   N22   S    
C60   C61   A    
C94   O15   A    
C19   N13   S    
C14   C23   S    
C2    C89   A    
C75   C76   A    
N27   H57   S    
C5    C9    A    
C29   C30   A    
C36   N8    A    
C56   O4    A    
Cr5   O8    S    
C16   H1    S    
N1    N5    A    
C66   C71   A    
C6    H21   S    
Cr5   O19   S    
C30   C31   A    
C84   H18   S    
Cr3   O22   S    
C62   C63   A    
C45   O3    A    
C17   C18   A    
C77   C79   A    
C69   C74   A    
C68   H46   S    
C51   C58   S    
C18   H2    S    
C32   C37   S    
C84   C85   A    
C21   N6    A    
C4    N26   S    
Cr6   O19   S    
C30   N16   S    
C59   C95   S    
C49   H10   S    
C65   N23   S    
C76   N27   S    
C48   C49   A    
N27   H58   S    
Cr2   O26   S    
C60   C65   A    
C49   C50   A    
C22   C27   A    
C55   C57   A    
C13   C92   S    
N3    N4    A    
C54   N19   S    
C50   N18   S    
C95   O17   A    
Cr1   O1    S    
C12   O21   A    
C31   H32   S    
C44   C45   S    
N13   H22   S    
C9    C10   S    
C44   C50   A    
C70   N25   S    
C96   O13   A    
C46   C47   A    
N15   H26   S    
C45   O2    A    
N21   H43   S    
C66   H12   S    
C86   C87   S    
C51   N4    A    
C14   C19   A    
C31   C32   A    
C75   C81   A    
C24   C28   A    
C80   C81   A    
C3    N20   S    
C91   O7    A    
C4    C67   A    
N17   H35   S    
C53   C58   A    
C90   C96   S    
C20   C27   S    
N2    N12   A    
C63   C73   S    
C29   C35   A    
C37   N10   A    
C23   O1    A    
Cr2   O5    S    
C32   C33   A    
Cr3   O23   S    
N8    N9    A    
N28   H60   S    
C22   N15   S    
N20   H40   S    
C46   H8    S    
C82   C86   A    
C85   N28   S    
C64   C65   A    
Cr1   O24   S    
Cr5   O9    S    
C77   H61   S    
C57   C58   A    
C16   C17   A    
Cr4   O14   S    
C47   H9    S    
C23   O23   A    
Cr5   O15   S    
C33   C35   A    
N19   H39   S    
C24   N14   S    
C28   C91   S    
C22   C24   A    
N23   H47   S    
C92   O10   A    
C69   C70   A    
N20   H41   S    
C10   C11   T    
C79   C80   A    
C56   C60   S    
C48   C52   S    
C71   C72   S    
N24   H50   S    
N22   H44   S    
C93   O6    A    
C14   C15   A    
Cr3   O3    S    
C82   C83   A    
C15   N29   S    
Cr1   O5    S    
C78   H62   S    
C3    C4    A    
Cr6   O18   S    
C80   H55   S    
C6    C13   A    
C34   O26   A    
