data_mof_unit_57570.cif
_audit_creation_date              2013-03-05T15:43:42-0500
_audit_creation_method            fapswitch 2.2
_symmetry_space_group_name_H-M    P1
_symmetry_Int_Tables_number       1
_space_group_crystal_system       triclinic
_cell_length_a                    14.991757
_cell_length_b                    10.735362
_cell_length_c                    10.057099
_cell_angle_alpha                 89.783133
_cell_angle_beta                  90.33439
_cell_angle_gamma                 90.649033
_cell_volume                      1618.46640238

loop_
_atom_site_label
_atom_site_type_symbol
_atom_site_description
_atom_site_fract_x
_atom_site_fract_y
_atom_site_fract_z
_atom_type_partial_charge
O1    O     O_R   0.499990 0.319060 0.613040 -0.616456
O2    O     O_R   0.500010 0.319100 0.386900 -0.597366
C1    C     C_R   0.496911 0.262785 0.500068 0.930576
O3    O     O_R   0.367830 0.499950 0.613080 -0.672671
O4    O     O_R   0.367860 0.499990 0.386940 -0.568459
C2    C     C_R   0.326826 0.495720 0.499514 0.917333
Zn1   Zn    Zn3+2 0.499980 0.499970 0.650990 1.029975
Zn2   Zn    Zn3+2 0.500020 0.500030 0.349010 1.001639
O5    O     O_R   0.499990 0.680900 0.613100 -0.580110
O6    O     O_R   0.500010 0.680940 0.386960 -0.623560
O7    O     O_R   0.632140 0.500010 0.613060 -0.575275
O8    O     O_R   0.632170 0.500050 0.386920 -0.632263
C3    C     C_R   0.501264 0.737253 0.499717 0.946053
C4    C     C_R   0.673116 0.499197 0.500336 0.901963
C5    C     C_R   0.816117 0.540812 0.610476 -0.225390
C6    C     C_R   0.768741 0.494775 0.501001 -0.076943
C7    C     C_R   0.812510 0.443053 0.392537 -0.249361
C8    C     C_R   0.904712 0.437749 0.392446 0.122629
C9    C     C_R   0.953082 0.486835 0.501281 0.089988
C10   C     C_R   0.908352 0.538338 0.610960 0.099864
C11   C     C_R   0.949046 0.384084 0.285601 -0.225353
C12   C     C_R   0.041553 0.380200 0.285347 -0.146050
C13   C     C_R   0.091026 0.432169 0.391144 -0.008602
C14   C     C_R   0.046051 0.484891 0.500347 0.017343
C15   C     C_R   0.093747 0.535652 0.608997 0.122948
C16   C     C_R   0.048909 0.586050 0.717677 -0.183625
C17   C     C_R   0.956365 0.587074 0.718829 -0.200395
C18   C     C_R   0.184315 0.431625 0.391367 0.282857
C19   C     C_R   0.230823 0.486959 0.498733 -0.183956
C20   C     C_R   0.185727 0.536619 0.606955 -0.302560
H1    H     H_    0.781397 0.580208 0.694273 0.205744
H2    H     H_    0.774762 0.405606 0.309106 0.167067
H3    H     H_    0.912171 0.344973 0.202318 0.158165
H4    H     H_    0.073614 0.336905 0.201528 0.199065
H5    H     H_    0.222447 0.578412 0.689079 0.178700
H6    H     H_    0.085426 0.624908 0.801436 0.158169
H7    H     H_    0.922394 0.626616 0.803378 0.163341
C21   C     C_2   0.486751 0.932925 0.388960 -0.160067
C22   C     C_2   0.507147 0.869169 0.499012 -0.307667
H8    H     H_    0.468195 0.886468 0.296850 0.195425
H9    H     H_    0.530442 0.912524 0.590172 0.183095
C23   C     C_2   0.491512 0.067081 0.387650 -0.110009
C24   C     C_2   0.485829 0.131260 0.500640 -0.303361
H10   H     H_    0.500175 0.112849 0.291942 0.191146
H11   H     H_    0.470769 0.088315 0.595765 0.155659
C25   C     C_2   0.543497 0.581163 0.927702 0.426458
N1    N     N_2   0.500970 0.501330 0.852150 -0.000349
C26   C     C_2   0.556637 0.562681 0.075035 -0.137395
N2    N     N_2   0.500990 0.501360 0.147810 -0.190123
H12   H     H_    0.612349 0.609936 0.123213 0.168594
H13   H     H_    0.440930 0.477362 0.105123 0.222855
N3    N     N_R   0.578001 0.694646 0.871980 0.184594
O9    O     O_R   0.561134 0.799733 0.930177 -0.421094
O10   O     O_R   0.641993 0.691132 0.785659 -0.404089
O11   O     O_3   0.488853 0.387267 0.906359 -0.561117
C27   C     C_3   0.399136 0.351956 0.883727 0.165902
H14   H     H_    0.387199 0.327686 0.778440 0.191592
H15   H     H_    0.352704 0.427673 0.912033 0.137325
C28   C     C_3   0.377269 0.237296 0.967317 -0.766411
H16   H     H_    0.388404 0.257410 0.074397 0.286860
H17   H     H_    0.306344 0.209721 0.951989 0.228330
H18   H     H_    0.420386 0.158741 0.937747 0.253919
N4    N     N_R   0.231516 0.371810 0.285872 0.200232
O12   O     O_R   0.231942 0.420260 0.167074 -0.438368
O13   O     O_R   0.278521 0.273131 0.310560 -0.416958

loop_
_geom_bond_atom_site_label_1
_geom_bond_atom_site_label_2
_geom_bond_distance
_ccdc_geom_bond_type
O4    Zn2   2.019880 S    
Zn1   O7    2.019877 S    
C13   C14   1.415329 A    
N4    O13   1.301289 A    
C5    H1    1.082987 S    
C19   C20   1.395368 A    
C10   C17   1.398354 A    
C8    C11   1.396441 A    
C18   N4    1.436295 S    
C27   H14   1.104520 S    
C9    C10   1.412008 A    
C27   C28   1.521712 S    
Zn2   O8    2.015323 S    
O11   C27   1.410700 S    
C26   H12   1.085012 S    
C7    C8    1.384089 A    
O8    C4    1.292215 A    
N1    O11   1.349336 S    
C28   H16   1.110442 S    
C22   H9    1.083945 S    
O1    Zn1   1.980701 S    
C11   C12   1.387948 A    
C14   C15   1.410251 A    
C21   H8    1.087012 S    
C24   H11   1.084240 S    
C1    C24   1.419834 S    
C16   C17   1.387682 A    
O4    C2    1.292067 A    
C23   H10   1.086833 S    
C20   H5    1.085545 S    
C17   H7    1.084114 S    
O3    Zn1   2.015326 S    
O3    C2    1.294607 A    
C18   C19   1.411250 A    
N3    O10   1.298557 A    
C21   C23   1.441186 S    
O2    C1    1.287551 A    
C5    C10   1.383297 A    
C12   H4    1.081865 S    
O7    C4    1.292671 A    
C4    C6    1.434880 S    
C28   H17   1.110530 S    
C11   H3    1.084180 S    
C23   C24   1.334780 D    
N4    O12   1.301288 A    
C25   C26   1.506313 S    
C25   N3    1.431700 S    
C2    C19   1.441241 S    
C21   C22   1.334925 D    
N3    O9    1.300934 A    
Zn2   O6    1.980700 S    
C8    C9    1.409974 A    
C25   N1    1.305847 D    
C16   H6    1.084163 S    
C15   C20   1.379135 A    
Zn1   O5    1.977960 S    
C7    H2    1.085240 S    
O5    C3    1.288956 A    
C12   C13   1.406912 A    
C26   N2    1.286878 D    
C28   H18   1.110824 S    
N2    H13   1.025906 S    
C15   C16   1.400188 A    
C13   C18   1.398636 A    
C9    C14   1.394247 A    
Zn2   N2    2.023621 S    
O2    Zn2   1.977958 S    
C3    C22   1.417910 S    
C5    C6    1.395692 A    
C27   H15   1.114993 S    
C6    C7    1.396423 A    
O1    C1    1.289165 A    
O6    C3    1.287048 A    
Zn1   N1    2.023160 S    
