data_mof_unit_49631.cif
_audit_creation_date              2012-10-26T21:13:39-0400
_audit_creation_method            fapswitch 2.2
_symmetry_space_group_name_H-M    P1
_symmetry_Int_Tables_number       1
_space_group_crystal_system       triclinic
_cell_length_a                    9.077398
_cell_length_b                    10.826497
_cell_length_c                    9.556248
_cell_angle_alpha                 89.762963
_cell_angle_beta                  90.043334
_cell_angle_gamma                 90.169961
_cell_volume                      939.141434328

loop_
_atom_site_label
_atom_site_type_symbol
_atom_type_description
_atom_site_fract_x
_atom_site_fract_y
_atom_site_fract_z
_atom_type_partial_charge
C1    C     C_R   0.502184 0.262418 0.500268 0.540241
C2    C     C_R   0.619569 0.542623 0.926140 0.210765
C3    C     C_3   0.684552 0.669208 0.919532 0.089572
C4    C     C_R   0.220705 0.500008 0.499953 0.554630
C5    C     C_3   0.682032 0.670396 0.078514 -0.234561
C6    C     C_R   0.501827 0.737714 0.499894 0.555137
C7    C     C_R   0.779291 0.500121 0.500051 0.571356
C8    C     C_1   0.065548 0.500106 0.499961 -0.028512
C9    C     C_1   0.934437 0.500145 0.500056 -0.013179
C10   C     C_R   0.500296 0.063297 0.625966 0.029201
C11   C     C_R   0.515295 0.129406 0.501144 0.009781
C12   C     C_R   0.548184 0.936588 0.377597 -0.152936
C13   C     C_R   0.548792 0.065296 0.377738 -0.155190
C14   C     C_R   0.514158 0.871047 0.500652 0.015058
C15   C     C_R   0.499586 0.936046 0.625774 0.027695
C16   C     C_3   0.380179 0.929617 0.733260 -0.258410
C17   C     C_3   0.381515 0.069782 0.733684 -0.267130
C18   C     C_R   0.618944 0.543348 0.073417 0.135911
C19   C     C_R   0.389492 0.445328 0.074530 -0.004950
C20   C     C_R   0.389427 0.445394 0.925772 -0.011298
Cl1   Cl    Cl    0.867033 0.668107 0.850057 -0.616668
Cu1   Cu    Cu3+1 0.499990 0.499980 0.640670 0.992807
Cu2   Cu    Cu3+1 0.500010 0.500020 0.359330 0.948247
H1    H     H_    0.569261 0.113982 0.280394 0.140955
H2    H     H_    0.298839 0.402652 0.130095 0.129846
H3    H     H_    0.298725 0.402775 0.870478 0.133133
H4    H     H_    0.610631 0.738439 0.870495 0.137305
H5    H     H_    0.792647 0.672128 0.128478 0.174389
H6    H     H_    0.602428 0.738175 0.120470 0.107326
H7    H     H_    0.568343 0.889316 0.280342 0.128146
H8    H     H_    0.276148 0.889483 0.691630 0.160834
H9    H     H_    0.418690 0.888920 0.833659 0.136840
H10   H     H_    0.278160 0.111320 0.692580 0.139834
H11   H     H_    0.421891 0.109515 0.833768 0.143143
N1    N     N_R   0.500920 0.500930 0.147930 -0.241635
N2    N     N_R   0.500930 0.500890 0.852020 -0.256058
O1    O     O_R   0.500000 0.319640 0.618810 -0.504535
O2    O     O_R   0.500020 0.319680 0.381230 -0.510632
O3    O     O_R   0.288380 0.499980 0.618770 -0.493199
O4    O     O_R   0.288400 0.500020 0.381190 -0.504376
O5    O     O_R   0.499980 0.680320 0.618770 -0.495137
O6    O     O_R   0.500000 0.680360 0.381190 -0.509319
O7    O     O_R   0.711600 0.499980 0.618810 -0.447251
O8    O     O_R   0.711620 0.500020 0.381230 -0.507175

loop_
_geom_bond_atom_site_label_1
_geom_bond_atom_site_label_2
_ccdc_geom_bond_type
C7    O7    A    
C6    C14   S    
C5    H5    S    
Cu1   N2    S    
C18   N1    A    
Cu2   N1    S    
C19   C20   A    
C1    C11   S    
C4    O3    A    
C1    O1    A    
C4    C8    S    
C3    C5    S    
C3    H4    S    
C2    C3    S    
C19   N1    A    
C7    O8    A    
C16   H8    S    
C11   C13   A    
C17   H11   S    
Cu2   O6    S    
C17   H10   S    
C1    O2    A    
Cu1   O3    S    
C12   C14   A    
C5    H6    S    
C10   C15   A    
Cu1   Cu2   S    
C19   H2    S    
C3    Cl1   S    
Cu1   O5    S    
C2    C18   A    
C10   C11   A    
C10   C17   S    
Cu2   O4    S    
Cu2   O2    S    
C4    O4    A    
C12   C13   A    
C6    O6    A    
C2    N2    A    
C7    C9    S    
C16   H9    S    
C8    C9    T    
C5    C18   S    
C12   H7    S    
C14   C15   A    
Cu1   O1    S    
C15   C16   S    
Cu2   O8    S    
Cu1   O7    S    
C13   H1    S    
C16   C17   S    
C20   H3    S    
C6    O5    A    
C20   N2    A    
