data_mof_unit_39129.cif
_audit_creation_date              2012-12-10T18:12:35-0500
_audit_creation_method            fapswitch 2.2
_symmetry_space_group_name_H-M    P1
_symmetry_Int_Tables_number       1
_space_group_crystal_system       triclinic
_cell_length_a                    12.675412
_cell_length_b                    13.042703
_cell_length_c                    15.653305
_cell_angle_alpha                 92.560746
_cell_angle_beta                  102.904599
_cell_angle_gamma                 81.546363
_cell_volume                      2494.87520283

loop_
_atom_site_label
_atom_site_type_symbol
_atom_type_description
_atom_site_fract_x
_atom_site_fract_y
_atom_site_fract_z
_atom_type_partial_charge
C1    C     C_R   0.438267 0.691842 0.491178 0.958034
C2    C     C_3   0.497794 0.516503 0.917518 0.063523
C3    C     C_3   0.439116 0.440599 0.015099 -0.371260
C4    C     C_3   0.485275 0.522967 0.081556 0.064462
C5    C     C_3   0.546464 0.429999 0.983054 0.489961
C6    C     C_3   0.593772 0.509975 0.050523 -0.241193
C7    C     C_1   0.502483 0.510018 0.827074 0.070484
C8    C     C_1   0.483687 0.521813 0.172368 -0.018419
C9    C     C_R   0.683125 0.078426 0.646464 -0.148509
C10   C     C_R   0.599703 0.200780 0.531411 -0.114003
C11   C     C_R   0.301571 0.837294 0.419745 0.445731
C12   C     C_R   0.501809 0.499614 0.661960 0.919712
C13   C     C_R   0.278251 0.943615 0.400142 -0.222843
C14   C     C_R   0.351263 0.010760 0.438140 -0.087675
C15   C     C_R   0.449095 0.974659 0.497741 0.037336
C16   C     C_R   0.460652 0.874868 0.532264 -0.062397
C17   C     C_R   0.531583 0.037556 0.529154 0.027222
C18   C     C_R   0.609124 0.010680 0.608258 0.053645
C19   C     C_R   0.608047 0.919306 0.650604 -0.259505
C20   C     C_R   0.534396 0.851782 0.613891 0.372963
C21   C     C_R   0.539318 0.127208 0.485539 0.300736
C22   C     C_R   0.675166 0.175315 0.610043 -0.204139
C23   C     C_R   0.561400 0.308707 0.510363 0.913353
C24   C     C_R   0.396683 0.802804 0.484235 -0.170382
C25   C     C_R   0.115088 0.307790 0.424380 0.364663
C26   C     C_R   0.792445 0.643930 0.590385 0.037040
C27   C     C_R   0.894195 0.677434 0.609992 -0.250792
C28   C     C_R   0.981018 0.619604 0.581234 -0.132284
C29   C     C_R   0.966904 0.526253 0.533852 -0.026677
C30   C     C_R   0.861750 0.493119 0.516488 0.103129
C31   C     C_R   0.051671 0.466331 0.499565 -0.117706
C32   C     C_R   0.038591 0.364338 0.467928 -0.047443
C33   C     C_R   0.945283 0.325082 0.475892 0.224165
C34   C     C_R   0.496268 0.505055 0.338156 0.916760
C35   C     C_R   0.849580 0.395370 0.473409 0.384494
C36   C     C_R   0.149059 0.502962 0.495221 -0.017467
C37   C     C_R   0.206603 0.350862 0.418783 -0.054284
C38   C     C_3   0.435239 0.612310 0.017275 -0.217144
C39   C     C_3   0.543292 0.598161 0.983945 -0.238793
C40   C     C_1   0.503671 0.504453 0.751631 -0.087546
C41   C     C_1   0.487764 0.515582 0.248270 -0.168311
C42   C     C_3   0.391797 0.529777 0.950259 0.493713
H1    H     H_    0.585805 0.661410 0.968803 0.184598
H2    H     H_    0.328264 0.091842 0.422429 0.223442
H3    H     H_    0.206900 0.974960 0.352047 0.188902
H4    H     H_    0.268332 0.307791 0.388227 0.191528
H5    H     H_    0.169541 0.576358 0.523271 0.142815
H6    H     H_    0.725177 0.689362 0.612613 0.171974
H7    H     H_    0.388809 0.686748 0.033672 0.153997
H8    H     H_    0.058823 0.648064 0.598838 0.150148
H9    H     H_    0.905637 0.748436 0.647248 0.160588
H10   H     H_    0.676544 0.501673 0.094201 0.148882
H11   H     H_    0.396590 0.377061 0.029664 0.156975
H12   H     H_    0.723047 0.232207 0.645646 0.176267
H13   H     H_    0.662923 0.901393 0.713552 0.174816
H14   H     H_    0.741222 0.059699 0.707744 0.153094
N1    N     N_R   0.222180 0.444680 0.455580 -0.130332
N2    N     N_R   0.776980 0.554790 0.543960 -0.108738
O1    O     O_R   0.366730 0.627160 0.478790 -0.566187
O2    O     O_R   0.544830 0.662520 0.507160 -0.620471
O3    O     O_R   0.410960 0.482330 0.609040 -0.609457
O4    O     O_R   0.589060 0.517690 0.637410 -0.595516
O5    O     O_R   0.455170 0.337480 0.492840 -0.607311
O6    O     O_R   0.633270 0.372840 0.521210 -0.568779
O7    O     O_R   0.410940 0.482310 0.362590 -0.601219
O8    O     O_R   0.589040 0.517670 0.390960 -0.547030
Zn1   Zn    Zn3+2 0.381080 0.476390 0.481050 0.999092
Zn2   Zn    Zn3+2 0.618920 0.523610 0.518950 1.012446
Cl1   Cl    Cl    0.490143 0.144414 0.370962 -0.676428
O9    O     O_3   0.240883 0.763745 0.372846 -0.605385
C43   C     C_3   0.128780 0.802025 0.343529 0.106218
H15   H     H_    0.116472 0.847664 0.282904 0.155793
H16   H     H_    0.095710 0.850199 0.394850 0.165528
C44   C     C_3   0.064226 0.711305 0.320988 -0.782552
H17   H     H_    0.069194 0.667145 0.380950 0.247784
H18   H     H_    0.977042 0.740444 0.292936 0.211423
H19   H     H_    0.097342 0.659074 0.272287 0.258501
Cl2   Cl    Cl    0.521995 0.752752 0.682384 -0.671336
Cl3   Cl    Cl    0.949981 0.193847 0.502853 -0.577164
Cl4   Cl    Cl    0.094091 0.191300 0.365718 -0.635527
O10   O     O_3   0.750579 0.379661 0.417388 -0.568188
C45   C     C_3   0.757332 0.292699 0.359400 0.159129
H20   H     H_    0.754804 0.220999 0.394096 0.221586
H21   H     H_    0.831286 0.285172 0.331031 0.170439
C46   C     C_3   0.660770 0.302736 0.281699 -0.831419
H22   H     H_    0.665861 0.232380 0.239322 0.224511
H23   H     H_    0.663006 0.370722 0.242436 0.233382
H24   H     H_    0.583194 0.309966 0.304332 0.282350
O11   O     O_3   0.604410 0.336678 0.958513 -0.603981
C47   C     C_3   0.643494 0.272642 0.032386 0.103217
H25   H     H_    0.575102 0.255507 0.060939 0.152588
H26   H     H_    0.702968 0.309552 0.083273 0.141347
C48   C     C_3   0.701856 0.170420 0.004840 -0.775510
H27   H     H_    0.771713 0.184547 0.977083 0.257280
H28   H     H_    0.733175 0.119414 0.062601 0.211641
H29   H     H_    0.644364 0.130820 0.954645 0.259716
O12   O     O_3   0.289587 0.540286 0.890503 -0.595958
C49   C     C_3   0.205202 0.551233 0.936943 0.108236
H30   H     H_    0.208065 0.621425 0.980106 0.137791
H31   H     H_    0.210822 0.481507 0.977107 0.145540
C50   C     C_3   0.095499 0.563193 0.871780 -0.772717
H32   H     H_    0.089407 0.493715 0.828216 0.264347
H33   H     H_    0.028132 0.571920 0.907477 0.204195
H34   H     H_    0.086742 0.632903 0.831139 0.256749

loop_
_geom_bond_atom_site_label_1
_geom_bond_atom_site_label_2
_ccdc_geom_bond_type
O8    Zn2   S    
C3    C42   S    
C48   H27   S    
C25   Cl4   S    
C11   C13   A    
C19   C20   A    
C4    C8    S    
C34   O8    A    
O12   C49   S    
C35   O10   S    
C11   O9    S    
C22   H12   S    
C38   H7    S    
C46   H22   S    
C10   C22   A    
C26   C27   A    
C50   H32   S    
C44   H18   S    
C30   C35   A    
O6    Zn2   S    
C28   C29   A    
C38   C42   S    
C1    O1    A    
C5    C6    S    
C9    C22   A    
C15   C16   A    
C11   C24   A    
C36   H5    S    
C18   C19   A    
C48   H28   S    
C25   C37   A    
C28   H8    S    
C2    C39   S    
C2    C7    S    
O7    Zn1   S    
C44   H19   S    
C7    C40   T    
O9    C43   S    
C26   H6    S    
O1    Zn1   S    
C25   C32   A    
C23   O5    A    
C16   C24   A    
C13   C14   A    
C34   C41   S    
N1    Zn1   S    
C34   O7    A    
C27   H9    S    
O10   C45   S    
C46   H23   S    
C10   C21   A    
O5    Zn1   S    
C44   H17   S    
C8    C41   T    
C4    C6    S    
C36   N1    A    
C42   O12   S    
C43   H16   S    
C33   Cl3   S    
C39   H1    S    
C17   C21   A    
C21   Cl1   S    
C12   C40   S    
C29   C30   A    
C12   O4    A    
O3    Zn1   S    
C47   H26   S    
C31   C32   A    
C16   C20   A    
C6    C39   S    
C17   C18   A    
C9    H14   S    
C26   N2    A    
N2    Zn2   S    
C23   O6    A    
C4    C38   S    
C45   H20   S    
C50   H34   S    
C45   H21   S    
C1    O2    A    
C2    C5    S    
C3    C4    S    
C49   C50   S    
C47   C48   S    
C14   H2    S    
C46   H24   S    
C19   H13   S    
C15   C17   A    
C14   C15   A    
C3    C5    S    
C43   C44   S    
O4    Zn2   S    
C10   C23   S    
C48   H29   S    
C45   C46   S    
C49   H31   S    
C20   Cl2   S    
C32   C33   A    
O11   C47   S    
C43   H15   S    
C29   C31   A    
C13   H3    S    
C12   O3    A    
C3    H11   S    
C47   H25   S    
C38   C39   S    
C2    C42   S    
C30   N2    A    
C33   C35   A    
C37   N1    A    
C9    C18   A    
O2    Zn2   S    
C1    C24   S    
C50   H33   S    
C49   H30   S    
C27   C28   A    
C31   C36   A    
C6    H10   S    
C37   H4    S    
C5    O11   S    
