data_mof_unit_21002.cif
_audit_creation_date              2012-10-26T21:04:47-0400
_audit_creation_method            fapswitch 2.2
_symmetry_space_group_name_H-M    P1
_symmetry_Int_Tables_number       1
_space_group_crystal_system       triclinic
_cell_length_a                    11.67548
_cell_length_b                    12.342098
_cell_length_c                    13.093608
_cell_angle_alpha                 116.506944
_cell_angle_beta                  77.786689
_cell_angle_gamma                 101.233626
_cell_volume                      1639.32690827

loop_
_atom_site_label
_atom_site_type_symbol
_atom_type_description
_atom_site_fract_x
_atom_site_fract_y
_atom_site_fract_z
_atom_type_partial_charge
C1    C     C_R   0.507580 0.855071 0.286417 0.572135
C2    C     C_R   0.377986 0.479927 0.176823 -0.003011
C3    C     C_R   0.383933 0.601848 0.196239 0.283749
C4    C     C_R   0.715784 0.999473 0.499475 0.531034
C5    C     C_R   0.486179 0.352071 0.868723 -0.117766
C6    C     C_R   0.459599 0.187313 0.927332 -0.037291
C7    C     C_R   0.510763 0.772933 0.162746 -0.066872
C8    C     C_R   0.694875 0.348467 0.331743 0.287516
C9    C     C_R   0.343004 0.759706 0.646626 0.093797
C10   C     C_R   0.310392 0.664307 0.680010 -0.131887
C11   C     C_R   0.371108 0.561733 0.625535 -0.084832
C12   C     C_R   0.476522 0.227495 0.838827 -0.041374
C13   C     C_R   0.465889 0.553030 0.536111 0.019823
C14   C     C_R   0.496134 0.653485 0.505624 0.154607
C15   C     C_R   0.531498 0.449190 0.476315 -0.088106
C16   C     C_R   0.486214 0.145037 0.714430 0.533187
C17   C     C_R   0.626116 0.447936 0.387020 0.010232
C18   C     C_R   0.650404 0.544893 0.353483 0.242637
C19   C     C_R   0.588711 0.646708 0.416395 -0.095103
C20   C     C_R   0.505683 0.344912 0.500308 0.011041
C21   C     C_R   0.658814 0.244882 0.354393 0.440353
C22   C     C_R   0.284245 0.000169 0.500003 0.549458
C23   C     C_R   0.572840 0.817140 0.082673 -0.184582
C24   C     C_1   0.837488 0.998834 0.498972 -0.042656
C25   C     C_1   0.940122 0.998858 0.498718 -0.057620
C26   C     C_1   0.060035 0.999436 0.498894 -0.051761
C27   C     C_1   0.162619 0.000003 0.499367 -0.022834
C28   C     C_R   0.434754 0.271383 0.043542 -0.021749
C29   C     C_1   0.466968 0.061237 0.900836 0.224673
C30   C     C_3   0.796184 0.638432 0.255455 -0.134161
C31   C     C_3   0.889732 0.419286 0.309868 -0.098379
C32   C     C_1   0.302376 0.442266 0.261077 0.239784
C33   C     C_1   0.421567 0.229888 0.133642 0.216918
C34   C     C_R   0.612449 0.736752 0.969803 0.299504
C35   C     C_3   0.752136 0.514624 0.851802 -0.105595
C36   C     C_3   0.765180 0.872186 0.932927 -0.106963
C37   C     C_3   0.217913 0.692429 0.236980 -0.122496
C38   C     C_3   0.822047 0.139176 0.291809 -0.086851
C39   C     C_R   0.587730 0.610874 0.937244 0.300717
C40   C     C_R   0.510194 0.564412 0.012747 -0.056188
C41   C     C_R   0.467952 0.647500 0.124906 -0.042955
C42   C     C_R   0.478651 0.437794 0.983167 -0.005942
C43   C     C_R   0.432148 0.396199 0.070385 -0.030802
Cu1   Cu    Cu3+1 0.526510 0.098270 0.475420 1.000997
Cu2   Cu    Cu3+1 0.473490 0.901730 0.524580 0.988120
H1    H     H_    0.435737 0.338654 0.566390 0.134821
H2    H     H_    0.875621 0.612835 0.190019 0.135164
H3    H     H_    0.873287 0.515552 0.364534 0.133359
H4    H     H_    0.968141 0.419340 0.245004 0.148727
H5    H     H_    0.912163 0.381516 0.364848 0.085973
H6    H     H_    0.736213 0.470100 0.911890 0.128120
H7    H     H_    0.812238 0.600853 0.884913 0.121750
H8    H     H_    0.797358 0.452092 0.768341 0.143602
H9    H     H_    0.811164 0.858333 0.991892 0.085005
H10   H     H_    0.728518 0.961104 0.976820 0.154627
H11   H     H_    0.832450 0.875651 0.860292 0.145671
H12   H     H_    0.295739 0.839157 0.689761 0.125498
H13   H     H_    0.172074 0.603934 0.180892 0.097839
H14   H     H_    0.254786 0.748579 0.188159 0.117438
H15   H     H_    0.150773 0.742433 0.308147 0.138862
H16   H     H_    0.838508 0.045859 0.272233 0.118901
H17   H     H_    0.844333 0.199462 0.380084 0.109213
H18   H     H_    0.881708 0.165252 0.226359 0.148226
H19   H     H_    0.341896 0.491147 0.655429 0.098307
H20   H     H_    0.237928 0.669989 0.748560 0.095864
H21   H     H_    0.614718 0.719200 0.391722 0.175010
H22   H     H_    0.493406 0.382233 0.801720 0.192155
H23   H     H_    0.596236 0.914218 0.110128 0.179888
H24   H     H_    0.827407 0.693626 0.340796 0.096336
H25   H     H_    0.749519 0.693396 0.232920 0.108220
N1    N     N_R   0.566700 0.246290 0.438210 -0.246152
N2    N     N_R   0.434010 0.754320 0.561170 -0.219526
N3    N     N_1   0.473091 0.960905 0.880312 -0.265913
N4    N     N_1   0.241670 0.413102 0.328894 -0.301435
N5    N     N_1   0.411677 0.196251 0.204990 -0.268413
O1    O     O_R   0.533340 0.972510 0.318140 -0.451796
O2    O     O_3   0.793312 0.348175 0.251204 -0.521288
O3    O     O_3   0.645473 0.535285 0.832747 -0.553567
O4    O     O_3   0.675934 0.776220 0.887487 -0.514259
O5    O     O_3   0.306228 0.674885 0.284995 -0.528388
O6    O     O_3   0.703186 0.135115 0.281694 -0.531369
O7    O     O_R   0.488570 0.806530 0.359650 -0.477220
O8    O     O_R   0.685190 0.083000 0.479260 -0.482827
O9    O     O_R   0.640410 0.917020 0.520770 -0.519597
O10   O     O_R   0.511430 0.193470 0.640350 -0.514794
O11   O     O_R   0.466660 0.027490 0.681860 -0.494059
O12   O     O_R   0.359590 0.082980 0.479230 -0.494352
O13   O     O_R   0.314810 0.917000 0.520740 -0.481198
O14   O     O_3   0.723671 0.530421 0.249981 -0.514932

loop_
_geom_bond_atom_site_label_1
_geom_bond_atom_site_label_2
_ccdc_geom_bond_type
C5    C42   A    
C35   H8    S    
Cu2   O7    S    
C9    N2    A    
C5    H22   S    
Cu1   O8    S    
C26   C27   T    
C21   N1    A    
C32   N4    T    
C4    C24   S    
C29   N3    T    
C19   H21   S    
C2    C32   S    
C18   C19   A    
Cu1   O1    S    
C33   N5    T    
C6    C28   A    
C12   C16   S    
C20   N1    A    
C22   O13   A    
Cu1   O12   S    
C9    C10   A    
C37   H13   S    
C38   H16   S    
C40   C42   A    
C13   C14   A    
Cu2   N2    S    
C16   O11   A    
C18   O14   S    
C31   H4    S    
C30   O14   S    
C3    O5    S    
C30   H25   S    
C31   O2    S    
C15   C20   A    
C37   O5    S    
C34   C39   A    
C39   O3    S    
C30   H2    S    
Cu2   O13   S    
C24   C25   T    
C5    C12   A    
C11   H19   S    
C39   C40   A    
C1    O7    A    
Cu1   N1    S    
C23   H23   S    
C36   H11   S    
C34   O4    S    
C4    O9    A    
C2    C43   A    
C23   C34   A    
C17   C18   A    
C22   O12   A    
C37   H14   S    
C40   C41   A    
C21   O6    S    
C28   C33   S    
C31   H3    S    
C13   C15   A    
C38   O6    S    
C35   H6    S    
C8    O2    S    
Cu2   O9    S    
C42   C43   A    
C31   H5    S    
Cu1   O10   S    
C30   H24   S    
Cu1   Cu2   S    
C38   H18   S    
C10   H20   S    
C15   C17   A    
C3    C41   A    
C35   O3    S    
C1    C7    S    
C1    O1    A    
C14   N2    A    
C14   C19   A    
C36   O4    S    
C8    C21   A    
C28   C43   A    
C8    C17   A    
C22   C27   S    
Cu2   O11   S    
C25   C26   S    
C36   H10   S    
C6    C12   A    
C11   C13   A    
C16   O10   A    
C4    O8    A    
C7    C23   A    
C2    C3    A    
C9    H12   S    
C7    C41   A    
C37   H15   S    
C36   H9    S    
C10   C11   A    
C6    C29   S    
C35   H7    S    
C20   H1    S    
C38   H17   S    
