data_mof_unit_49119.cif
_audit_creation_date              2012-12-11T15:48:10-0500
_audit_creation_method            fapswitch 2.2
_symmetry_space_group_name_H-M    P1
_symmetry_Int_Tables_number       1
_space_group_crystal_system       triclinic
_cell_length_a                    6.925153
_cell_length_b                    17.615624
_cell_length_c                    19.448885
_cell_angle_alpha                 108.540734
_cell_angle_beta                  89.523997
_cell_angle_gamma                 90.657076
_cell_volume                      2249.26930701

loop_
_atom_site_label
_atom_site_type_symbol
_atom_type_description
_atom_site_fract_x
_atom_site_fract_y
_atom_site_fract_z
_atom_type_partial_charge
O1    O     O_R   0.494330 0.415710 0.413720 -0.539037
O2    O     O_R   0.819360 0.430070 0.560210 -0.537161
O3    O     O_R   0.994320 0.584290 0.586280 -0.516054
C1    C     C_R   0.649246 0.413203 0.580416 0.770598
O4    O     O_R   0.823740 0.406290 0.412670 -0.550173
O5    O     O_R   0.998730 0.560340 0.437690 -0.543447
C2    C     C_R   0.654594 0.383262 0.384736 0.705565
O6    O     O_R   0.489920 0.439660 0.562310 -0.516244
O7    O     O_3   0.662330 0.550570 0.508380 -0.350251
V1    V     V_3+5 0.935370 0.490620 0.498440 1.547882
O8    O     O_R   0.328720 0.569930 0.439790 -0.543083
C3    C     C_R   0.160698 0.585135 0.418166 0.698991
O9    O     O_R   0.324340 0.593710 0.587330 -0.535229
C4    C     C_R   0.154521 0.618231 0.614396 0.734421
V2    V     V_3+5 0.435940 0.509380 0.501560 1.557944
O10   O     O_3   0.159110 0.449430 0.491620 -0.350977
C5    C     C_R   0.299665 0.707116 0.730123 -0.163177
H1    H     H_    0.430628 0.672310 0.717397 0.169916
C6    C     C_R   0.290000 0.770403 0.795500 -0.141159
H2    H     H_    0.414519 0.783250 0.830824 0.133229
C7    C     C_R   0.120668 0.815511 0.815684 -0.110255
C8    C     C_R   0.963017 0.797117 0.768252 -0.186680
H3    H     H_    0.832780 0.832416 0.781884 0.153463
C9    C     C_R   0.972814 0.735205 0.701886 0.378943
C10   C     C_R   0.141745 0.687953 0.682397 -0.125389
C11   C     C_R   0.993287 0.627419 0.322492 -0.151212
C12   C     C_R   0.152384 0.634382 0.368741 -0.095121
C13   C     C_R   0.302776 0.688079 0.367221 -0.104010
C14   C     C_R   0.294356 0.734942 0.320814 0.085636
C15   C     C_R   0.135404 0.727081 0.273976 0.016271
C16   C     C_R   0.983704 0.672607 0.274379 0.036054
C17   C     C_R   0.443027 0.789551 0.320588 -0.175081
C18   C     C_R   0.436876 0.836133 0.274216 0.370420
C19   C     C_R   0.280410 0.828049 0.226115 0.027562
C20   C     C_R   0.128725 0.773581 0.226542 0.016991
C21   C     C_R   0.969828 0.765662 0.179667 0.090370
C22   C     C_R   0.820969 0.711185 0.179988 -0.192018
C23   C     C_R   0.827071 0.664640 0.226374 0.364864
C24   C     C_R   0.271045 0.873029 0.177815 -0.130960
C25   C     C_R   0.112300 0.865758 0.131347 -0.099004
C26   C     C_R   0.961702 0.812262 0.133055 -0.123133
H4    H     H_    0.878539 0.585615 0.323666 0.174459
H5    H     H_    0.425667 0.694100 0.402818 0.134784
H6    H     H_    0.565020 0.796116 0.356663 0.165450
H7    H     H_    0.385734 0.914840 0.176608 0.183603
H8    H     H_    0.838920 0.806139 0.097390 0.118425
H9    H     H_    0.698915 0.704648 0.143932 0.156037
C27   C     C_R   0.784253 0.180503 0.864862 -0.216939
C28   C     C_R   0.622951 0.132160 0.867322 -0.080504
C29   C     C_R   0.466310 0.129076 0.820908 -0.203730
C30   C     C_R   0.469705 0.173201 0.772339 0.091471
C31   C     C_R   0.629582 0.222912 0.771018 0.079256
C32   C     C_R   0.787283 0.226780 0.817737 0.095106
C33   C     C_R   0.315486 0.168344 0.725064 -0.197880
C34   C     C_R   0.317873 0.212962 0.677212 -0.110115
C35   C     C_R   0.474654 0.264225 0.675605 0.018397
C36   C     C_R   0.631675 0.268829 0.723022 0.000321
C37   C     C_R   0.791301 0.319018 0.722586 0.094366
C38   C     C_R   0.946458 0.323015 0.769699 -0.159803
C39   C     C_R   0.944664 0.277201 0.816714 -0.188417
C40   C     C_R   0.478519 0.310560 0.627837 0.320676
C41   C     C_R   0.638458 0.361994 0.628364 -0.151316
C42   C     C_R   0.793538 0.364781 0.675449 -0.231080
H10   H     H_    0.905376 0.183335 0.900585 0.128621
H11   H     H_    0.342228 0.091299 0.821875 0.127647
H12   H     H_    0.191740 0.130194 0.725313 0.143553
H13   H     H_    0.194248 0.207297 0.642284 0.197451
H14   H     H_    0.916368 0.403746 0.676085 0.155395
H15   H     H_    0.070156 0.361326 0.769897 0.133601
H16   H     H_    0.066797 0.281103 0.852190 0.136591
C43   C     C_R   0.793313 0.258899 0.297138 -0.151808
H17   H     H_    0.917204 0.265681 0.332298 0.157088
C44   C     C_R   0.783839 0.192858 0.233795 0.166289
C45   C     C_R   0.623021 0.182455 0.186525 -0.092972
C46   C     C_R   0.471982 0.238120 0.206959 -0.149987
H18   H     H_    0.346607 0.232185 0.172662 0.144314
C47   C     C_R   0.481085 0.302757 0.271379 -0.105996
H19   H     H_    0.362302 0.344467 0.285095 0.127471
C48   C     C_R   0.643051 0.314356 0.316738 -0.074630
O11   O     O_R   0.774940 0.060470 0.937800 -0.542536
O12   O     O_R   0.440880 0.093730 0.087350 -0.535588
O13   O     O_R   0.266130 0.939630 0.062280 -0.541537
C49   C     C_R   0.610080 0.115310 0.116637 0.738062
O14   O     O_R   0.445480 0.069960 0.939820 -0.546278
O15   O     O_R   0.270770 0.915690 0.913690 -0.543188
C50   C     C_R   0.614828 0.084716 0.917987 0.707850
O16   O     O_R   0.770300 0.084410 0.086380 -0.525801
O17   O     O_3   0.602600 0.949510 0.991670 -0.375707
V3    V     V_3+5 0.329470 0.009370 0.001550 1.448428
O18   O     O_R   0.940760 0.906160 0.912560 -0.548894
C51   C     C_R   0.109991 0.883110 0.884710 0.693794
O19   O     O_R   0.936150 0.929930 0.060100 -0.531898
C52   C     C_R   0.104207 0.914585 0.081587 0.743023
V4    V     V_3+5 0.828930 0.990450 0.998310 1.455324
O20   O     O_3   0.105670 0.050490 0.008320 -0.363973
Cl1   Cl    Cl    0.635855 0.596128 0.221270 -0.692334
Cl2   Cl    Cl    0.288247 0.300465 0.564961 -0.646451
I1    I     I_    0.014176 0.110337 0.220191 -0.314203
Cl3   Cl    Cl    0.772427 0.723459 0.643949 -0.667790
Cl4   Cl    Cl    0.627870 0.904776 0.279376 -0.625764

loop_
_geom_bond_atom_site_label_1
_geom_bond_atom_site_label_2
_ccdc_geom_bond_type
C49   O16   A    
C34   C35   A    
C9    Cl3   S    
C44   C45   A    
C20   C21   A    
C45   C49   S    
C1    O6    A    
C43   C48   A    
O15   C51   A    
C47   H19   S    
C13   C14   A    
C11   C12   A    
C41   C42   A    
O13   V3    S    
C15   C20   A    
C21   C22   A    
C6    C7    A    
C22   C23   A    
O14   C50   A    
C14   C17   A    
O5    C3    A    
C15   C16   A    
C27   H10   S    
V2    O10   S    
O16   V4    S    
C1    C41   S    
C35   C36   A    
C19   C20   A    
O11   C50   A    
C42   H14   S    
O8    V2    S    
C6    H2    S    
C26   H8    S    
O18   V4    S    
O1    V2    S    
C22   H9    S    
O7    V1    S    
C25   C52   S    
C24   H7    S    
O12   V3    S    
C38   C39   A    
O13   C52   A    
O9    C4    A    
C21   C26   A    
C44   I1    S    
O4    V1    S    
O12   C49   A    
C32   C39   A    
C29   C30   A    
C36   C37   A    
C47   C48   A    
C27   C32   A    
O17   V4    S    
C45   C46   A    
C3    C12   S    
C30   C31   A    
C9    C10   A    
C24   C25   A    
O4    C2    A    
O15   V3    S    
C37   C38   A    
C19   C24   A    
V3    O20   S    
O2    C1    A    
C46   H18   S    
C14   C15   A    
C39   H16   S    
O19   V4    S    
C5    H1    S    
C17   H6    S    
V4    O20   S    
C46   C47   A    
O3    C4    A    
C38   H15   S    
C27   C28   A    
O6    V2    S    
O9    V2    S    
C8    C9    A    
O14   V3    S    
C23   Cl1   S    
O2    V1    S    
C31   C32   A    
C11   H4    S    
C2    C48   S    
C7    C51   S    
C37   C42   A    
C33   C34   A    
C25   C26   A    
O1    C2    A    
C28   C50   S    
C8    H3    S    
C40   Cl2   S    
O5    V1    S    
C34   H13   S    
O8    C3    A    
C33   H12   S    
C13   H5    S    
C16   C23   A    
C30   C33   A    
C5    C10   A    
C17   C18   A    
C18   Cl4   S    
O7    V2    S    
C43   H17   S    
O3    V1    S    
V1    O10   S    
O18   C51   A    
O19   C52   A    
C5    C6    A    
C18   C19   A    
C4    C10   S    
C40   C41   A    
C29   H11   S    
C31   C36   A    
C11   C16   A    
O17   V3    S    
C28   C29   A    
C43   C44   A    
C12   C13   A    
C35   C40   A    
C7    C8    A    
O11   V4    S    
