data_mof_unit_40547.cif
_audit_creation_date              2012-12-10T19:15:17-0500
_audit_creation_method            fapswitch 2.2
_symmetry_space_group_name_H-M    P1
_symmetry_Int_Tables_number       1
_space_group_crystal_system       triclinic
_cell_length_a                    10.721843
_cell_length_b                    9.812388
_cell_length_c                    23.301401
_cell_angle_alpha                 90.456297
_cell_angle_beta                  91.02988
_cell_angle_gamma                 89.900212
_cell_volume                      2450.99090686

loop_
_atom_site_label
_atom_site_type_symbol
_atom_type_description
_atom_site_fract_x
_atom_site_fract_y
_atom_site_fract_z
_atom_type_partial_charge
C1    C     C_R   0.257605 0.500317 0.499648 1.025958
C2    C     C_R   0.363603 0.342129 0.974062 -0.144108
C3    C     C_R   0.370235 0.338543 0.033695 -0.135250
C4    C     C_R   0.472516 0.396425 0.063273 -0.032445
C5    C     C_R   0.571078 0.453901 0.032547 -0.018822
C6    C     C_R   0.673850 0.512821 0.061962 -0.023350
C7    C     C_R   0.772671 0.567341 0.030852 -0.139764
C8    C     C_R   0.767820 0.566976 0.971071 -0.143274
C9    C     C_R   0.476870 0.402954 0.123054 0.537158
C10   C     C_R   0.672487 0.519832 0.121890 0.515285
C11   C     C_R   0.641956 0.413532 0.247758 -0.079427
C12   C     C_R   0.506538 0.499686 0.389763 1.021476
C13   C     C_R   0.624119 0.419433 0.306503 -0.142016
C14   C     C_R   0.527522 0.498984 0.328561 -0.121088
C15   C     C_R   0.454642 0.580359 0.292277 -0.058127
C16   C     C_R   0.473824 0.578782 0.233500 0.481440
C17   C     C_R   0.565568 0.490237 0.211027 0.138683
C18   C     C_R   0.526078 0.361900 0.759939 -0.083506
C19   C     C_R   0.514653 0.370950 0.700895 -0.188561
C20   C     C_R   0.518791 0.498367 0.673661 -0.148482
C21   C     C_R   0.536266 0.618150 0.707445 0.412879
C22   C     C_R   0.541089 0.607742 0.766989 -0.076140
C23   C     C_R   0.741706 0.499583 0.498392 0.931644
C24   C     C_R   0.538145 0.480041 0.793150 0.202605
C25   C     C_3   0.067744 0.624334 0.459830 0.729666
C26   C     C_3   0.070814 0.516779 0.562626 0.699878
C27   C     C_3   0.922796 0.617854 0.459655 -0.622202
C28   C     C_3   0.926348 0.522391 0.559671 -0.435521
C29   C     C_3   0.070642 0.365703 0.471227 -0.523784
C30   C     C_3   0.120144 0.501871 0.498562 -0.282996
C31   C     C_3   0.877537 0.498481 0.497473 -0.134395
C32   C     C_3   0.927358 0.357856 0.474351 0.820664
C33   C     C_3   0.426876 0.068564 0.448488 0.316708
C34   C     C_3   0.464269 0.915778 0.441133 0.305778
C35   C     C_3   0.627539 0.080716 0.505033 -0.262778
C36   C     C_3   0.625381 0.920510 0.513575 -0.255613
C37   C     C_3   0.433962 0.082857 0.549891 -0.328355
C38   C     C_3   0.416915 0.920864 0.544030 -0.380614
C39   C     C_R   0.505859 0.500486 0.610801 0.910987
C40   C     C_R   0.653646 0.517711 0.881640 0.519007
C41   C     C_R   0.452616 0.412415 0.883414 0.527328
C42   C     C_R   0.459942 0.402023 0.943065 -0.026964
C43   C     C_R   0.565296 0.455495 0.972290 -0.015934
C44   C     C_R   0.663485 0.513362 0.941468 -0.021182
H1    H     H_    0.282273 0.299280 0.952434 0.199978
H2    H     H_    0.503038 0.277071 0.676672 0.189890
H3    H     H_    0.551375 0.699075 0.793068 0.175308
H4    H     H_    0.883748 0.715894 0.475462 0.212400
H5    H     H_    0.892733 0.623383 0.575337 0.192736
H6    H     H_    0.880867 0.608441 0.416048 0.239742
H7    H     H_    0.884029 0.446433 0.588698 0.206680
H8    H     H_    0.099357 0.356994 0.425976 0.256907
H9    H     H_    0.113299 0.275587 0.492399 0.256812
H10   H     H_    0.293676 0.293409 0.056512 0.201354
H11   H     H_    0.327180 0.062508 0.461493 0.070974
H12   H     H_    0.380929 0.858004 0.425607 0.169954
H13   H     H_    0.684903 0.111028 0.468567 0.251092
H14   H     H_    0.700987 0.872756 0.488991 0.220959
H15   H     H_    0.485952 0.107705 0.590427 0.193701
H16   H     H_    0.437699 0.873006 0.586167 0.241478
H17   H     H_    0.341260 0.132577 0.554276 0.232624
H18   H     H_    0.317890 0.896039 0.533569 0.212303
H19   H     H_    0.675400 0.128113 0.542946 0.189146
H20   H     H_    0.650910 0.896864 0.558984 0.153976
H21   H     H_    0.853007 0.612188 0.052546 0.202460
H22   H     H_    0.844744 0.611270 0.948227 0.201243
H23   H     H_    0.712640 0.346505 0.230547 0.187425
H24   H     H_    0.683511 0.359409 0.334684 0.212792
H25   H     H_    0.382424 0.645238 0.309415 0.258062
H26   H     H_    0.524752 0.262786 0.780052 0.171881
N1    N     N_R   0.548422 0.469940 0.854108 -0.349183
N2    N     N_R   0.573375 0.468444 0.150705 -0.364436
N3    N     N_3   0.499750 0.138610 0.498760 -0.128149
N4    N     N_3   0.499750 0.861390 0.498760 -0.137807
O1    O     O_R   0.314910 0.616040 0.499990 -0.585870
O2    O     O_R   0.314910 0.383960 0.499990 -0.585099
O3    O     O_R   0.500080 0.616070 0.416130 -0.569498
O4    O     O_R   0.500080 0.383930 0.416130 -0.539496
O5    O     O_R   0.685320 0.616040 0.499970 -0.640676
O6    O     O_R   0.685320 0.383960 0.499970 -0.583823
O7    O     O_R   0.500150 0.616010 0.583820 -0.637896
O8    O     O_R   0.500150 0.383990 0.583820 -0.613686
O9    O     O_2   0.748264 0.569053 0.851120 -0.534327
O10   O     O_2   0.349774 0.367501 0.854877 -0.520589
O11   O     O_2   0.384179 0.347342 0.153534 -0.499731
O12   O     O_2   0.767364 0.580282 0.151116 -0.516033
Zn1   Zn    Zn3+2 0.500150 0.654960 0.499970 0.999318
Zn2   Zn    Zn3+2 0.500150 0.345040 0.499970 1.035684
O13   O     O_3   0.550873 0.745586 0.684331 -0.755906
H27   H     H_    0.614311 0.737249 0.654114 0.334683
S1    S     S_3+6 0.121056 0.620361 0.385759 0.059332
O14   O     O_2   0.240826 0.543019 0.381336 -0.310193
O15   O     O_2   0.028611 0.556341 0.344554 -0.309917
O16   O     O_3   0.146581 0.781082 0.364482 -0.441122
H28   H     H_    0.063541 0.825468 0.364853 0.383892
S2    S     S_3+6 0.118300 0.381602 0.612135 0.025428
O17   O     O_2   0.257471 0.374495 0.617480 -0.314534
O18   O     O_2   0.068728 0.417202 0.670368 -0.250607
O19   O     O_3   0.065893 0.225966 0.593278 -0.550600
H29   H     H_    0.995466 0.207352 0.618998 0.389677
O20   O     O_3   0.109941 0.751301 0.482022 -0.737613
H30   H     H_    0.053711 0.786472 0.511988 0.355007
O21   O     O_3   0.112368 0.640416 0.587563 -0.758720
H31   H     H_    0.202882 0.632527 0.596437 0.363008
O22   O     O_3   0.872944 0.324256 0.420353 -0.759030
H32   H     H_    0.901200 0.389808 0.391502 0.348761
O23   O     O_3   0.895339 0.254150 0.512771 -0.744398
H33   H     H_    0.916303 0.165387 0.494473 0.361680
S3    S     S_3+6 0.384182 0.145001 0.380391 0.097508
O24   O     O_2   0.299337 0.264708 0.389073 -0.288123
O25   O     O_2   0.493752 0.184159 0.345136 -0.231903
O26   O     O_3   0.301255 0.028566 0.342649 -0.485553
H34   H     H_    0.278630 0.073913 0.306078 0.409946
S4    S     S_3+6 0.583978 0.892935 0.384963 0.065711
O27   O     O_2   0.664039 0.016909 0.378511 -0.275642
O28   O     O_2   0.671064 0.775694 0.395982 -0.327192
O29   O     O_3   0.510088 0.865790 0.321790 -0.488297
H35   H     H_    0.576950 0.863008 0.293008 0.391787
O30   O     O_3   0.399987 0.662350 0.199657 -0.696650
H36   H     H_    0.433505 0.664643 0.160380 0.336549

loop_
_geom_bond_atom_site_label_1
_geom_bond_atom_site_label_2
_ccdc_geom_bond_type
C27   H4    S    
C33   H11   S    
C34   H12   S    
O20   H30   S    
C40   N1    A    
C41   C42   A    
C19   C20   A    
C9    N2    A    
O5    Zn1   S    
S4    O27   D    
C19   H2    S    
C7    C8    A    
C21   O13   S    
C8    H22   S    
C37   C38   S    
C18   C24   A    
C29   C32   S    
C36   H14   S    
S3    O25   D    
C5    C6    A    
C3    H10   S    
S1    O15   D    
O4    Zn2   S    
C15   C16   A    
S2    O19   S    
C18   C19   A    
C9    O11   S    
C35   N3    S    
C35   C36   S    
C16   C17   A    
C32   O23   S    
S2    O18   D    
O23   H33   S    
N4    Zn1   S    
O2    Zn2   S    
C27   H6    S    
C41   N1    A    
C22   H3    S    
C5    C43   A    
C13   C14   A    
C12   O3    A    
C40   O9    S    
O26   H34   S    
C11   H23   S    
C2    H1    S    
C26   S2    S    
C34   S4    S    
C15   H25   S    
C25   S1    S    
C27   C31   S    
C1    O1    A    
C39   O7    A    
S3    O26   S    
S1    O14   D    
C20   C39   S    
C41   O10   S    
C12   O4    A    
C23   C31   S    
C43   C44   A    
N3    Zn2   S    
C29   C30   S    
C26   O21   S    
C7    H21   S    
C28   H5    S    
C37   H17   S    
C31   C32   S    
S2    O17   D    
C33   C34   S    
O7    Zn1   S    
C37   H15   S    
C36   N4    S    
C34   N4    S    
C38   H16   S    
C33   N3    S    
C12   C14   S    
C26   C30   S    
C32   O22   S    
C23   O6    A    
C22   C24   A    
C16   O30   S    
C33   S3    S    
C42   C43   A    
C3    C4    A    
C38   N4    S    
O1    Zn1   S    
C25   C30   S    
C37   N3    S    
C10   O12   S    
C1    O2    A    
C28   C31   S    
C8    C44   A    
C39   O8    A    
C4    C5    A    
C11   C17   A    
C6    C10   A    
S4    O28   D    
O30   H36   S    
C6    C7    A    
C25   C27   S    
O22   H32   S    
C26   C28   S    
C18   H26   S    
O19   H29   S    
C35   H13   S    
C2    C3    A    
O13   H27   S    
O6    Zn2   S    
C36   H20   S    
O29   H35   S    
S1    O16   S    
C11   C13   A    
C25   O20   S    
C29   H9    S    
C2    C42   A    
O8    Zn2   S    
C1    C30   S    
C28   H7    S    
O16   H28   S    
S4    O29   S    
C40   C44   A    
C20   C21   A    
O3    Zn1   S    
C17   N2    S    
S3    O24   D    
O21   H31   S    
C14   C15   A    
C35   H19   S    
C23   O5    A    
C4    C9    A    
C21   C22   A    
C29   H8    S    
C24   N1    S    
C38   H18   S    
C13   H24   S    
C10   N2    A    
