data_mof_unit_10579.cif
_audit_creation_date              2012-10-26T19:02:36-0400
_audit_creation_method            fapswitch 2.2
_symmetry_space_group_name_H-M    P1
_symmetry_Int_Tables_number       1
_space_group_crystal_system       triclinic
_cell_length_a                    17.289888
_cell_length_b                    8.688915
_cell_length_c                    7.439957
_cell_angle_alpha                 102.920647
_cell_angle_beta                  90.180226
_cell_angle_gamma                 92.992339
_cell_volume                      1087.79642078

loop_
_atom_site_label
_atom_site_type_symbol
_atom_type_description
_atom_site_fract_x
_atom_site_fract_y
_atom_site_fract_z
_atom_type_partial_charge
C1    C     C_R   0.497633 0.199748 0.453655 0.552864
C2    C     C_R   0.775429 0.454939 0.604136 -0.132672
C3    C     C_R   0.145013 0.553582 0.407400 -0.148147
C4    C     C_R   0.854986 0.446419 0.592600 -0.148147
C5    C     C_R   0.106953 0.532553 0.566985 0.043719
C6    C     C_R   0.893047 0.467447 0.433015 0.043719
C7    C     C_R   0.150114 0.512461 0.719457 0.399292
C8    C     C_R   0.849886 0.487540 0.280543 0.399292
C9    C     C_R   0.230351 0.505010 0.708146 -0.088721
C10   C     C_R   0.769649 0.494990 0.291854 -0.088721
C11   C     C_2   0.022286 0.529725 0.575045 -0.102728
C12   C     C_R   0.502367 0.800252 0.546344 0.552864
C13   C     C_2   0.977714 0.470276 0.424955 -0.102728
C14   C     C_2   0.496506 0.031912 0.427502 -0.149806
C15   C     C_2   0.503494 0.968088 0.572498 -0.149806
C16   C     C_R   0.351274 0.505393 0.526668 0.551579
C17   C     C_R   0.648726 0.494607 0.473332 0.551579
C18   C     C_R   0.267683 0.518103 0.544720 -0.045440
C19   C     C_R   0.732317 0.481897 0.455280 -0.045440
C20   C     C_R   0.224571 0.545062 0.395864 -0.132672
Cu1   Cu    Cu3+1 0.508700 0.517250 0.683000 0.967263
Cu2   Cu    Cu3+1 0.491300 0.482750 0.317000 0.967263
F1    F     F_    0.114425 0.494671 0.876434 -0.641480
F2    F     F_    0.885575 0.505330 0.123566 -0.641480
H1    H     H_    0.252251 0.559948 0.269951 0.165149
H2    H     H_    0.510077 0.039501 0.712312 0.136291
H3    H     H_    0.439167 0.379281 0.958171 0.240060
H4    H     H_    0.560833 0.620719 0.041829 0.240060
H5    H     H_    0.747749 0.440052 0.730049 0.165149
H6    H     H_    0.737116 0.513990 0.174756 0.142875
H7    H     H_    0.262884 0.486010 0.825244 0.142875
H8    H     H_    0.003583 0.425950 0.291887 0.196002
H9    H     H_    0.996417 0.574051 0.708114 0.196002
H10   H     H_    0.886457 0.423189 0.708867 0.186490
H11   H     H_    0.113543 0.576812 0.291133 0.186490
H12   H     H_    0.489923 0.960499 0.287688 0.136291
N1    N     N_2   0.478180 0.456750 0.041980 -0.259019
N2    N     N_2   0.521820 0.543250 0.958020 -0.259019
O1    O     O_R   0.505650 0.286040 0.618880 -0.506834
O2    O     O_R   0.494350 0.713960 0.381120 -0.506834
O3    O     O_R   0.490960 0.256910 0.309800 -0.494986
O4    O     O_R   0.509040 0.743090 0.690200 -0.494986
O5    O     O_R   0.394600 0.516230 0.672450 -0.510412
O6    O     O_R   0.605400 0.483770 0.327550 -0.510412
O7    O     O_R   0.379910 0.487100 0.363380 -0.501341
O8    O     O_R   0.620090 0.512900 0.636620 -0.501341

loop_
_geom_bond_atom_site_label_1
_geom_bond_atom_site_label_2
_ccdc_geom_bond_type
C16   O7    A    
C12   O2    A    
C2    C4    A    
N1    N2    D    
C3    H11   S    
C10   H6    S    
C13   H8    S    
Cu1   O1    S    
C12   C15   S    
H4    N2    S    
C10   C19   A    
Cu2   O2    S    
C17   O6    A    
C3    C20   A    
Cu1   Cu2   S    
C6    C13   S    
C11   C13   D    
C16   O5    A    
H3    N1    S    
C2    H5    S    
C7    F1    S    
C6    C8    A    
C1    O3    A    
C17   C19   S    
C5    C11   S    
C18   C20   A    
C14   H12   S    
C4    H10   S    
Cu2   O3    S    
C20   H1    S    
C1    O1    A    
Cu1   O4    S    
Cu1   O8    S    
C7    C9    A    
C9    C18   A    
C11   H9    S    
Cu2   O7    S    
C17   O8    A    
C16   C18   S    
C4    C6    A    
C5    C7    A    
C9    H7    S    
C14   C15   D    
C15   H2    S    
C12   O4    A    
C1    C14   S    
C8    F2    S    
C2    C19   A    
Cu1   O5    S    
Cu2   N1    S    
C8    C10   A    
Cu2   O6    S    
Cu1   N2    S    
C3    C5    A    
