data_mof_unit_44503.cif
_audit_creation_date              2012-12-10T20:45:31-0500
_audit_creation_method            fapswitch 2.2
_symmetry_space_group_name_H-M    P1
_symmetry_Int_Tables_number       1
_space_group_crystal_system       triclinic
_cell_length_a                    10.680682
_cell_length_b                    10.686299
_cell_length_c                    9.90335
_cell_angle_alpha                 88.926209
_cell_angle_beta                  91.377824
_cell_angle_gamma                 89.904859
_cell_volume                      1129.8105007

loop_
_atom_site_label
_atom_site_type_symbol
_atom_type_description
_atom_site_fract_x
_atom_site_fract_y
_atom_site_fract_z
_atom_type_partial_charge
C1    C     C_R   0.507982 0.260187 0.501729 0.946939
C2    C     C_R   0.204551 0.901215 0.187983 -0.077190
C3    C     C_R   0.928803 0.589147 0.430109 -0.188818
C4    C     C_R   0.871663 0.495371 0.504764 -0.088926
C5    C     C_R   0.939760 0.400669 0.573719 -0.043687
C6    C     C_R   0.070337 0.404024 0.568829 0.398711
C7    C     C_R   0.127061 0.500232 0.493565 -0.127819
C8    C     C_R   0.056762 0.590672 0.417700 -0.044030
C9    C     C_R   0.828968 0.317822 0.775044 -0.271565
C10   C     C_R   0.776703 0.218703 0.850047 0.399830
C11   C     C_R   0.776431 0.096711 0.796569 0.527487
C12   C     C_R   0.260184 0.503251 0.497886 0.931324
C13   C     C_R   0.823687 0.077791 0.667907 -0.231247
C14   C     C_R   0.872865 0.177363 0.593173 -0.250256
C15   C     C_R   0.876053 0.297684 0.646654 0.028789
C16   C     C_R   0.497784 0.060588 0.622659 0.016924
C17   C     C_R   0.532828 0.128763 0.508348 -0.335506
C18   C     C_R   0.596761 0.067115 0.405415 0.273326
C19   C     C_R   0.596704 0.936347 0.403796 0.386216
C20   C     C_R   0.527562 0.871020 0.502867 -0.335319
C21   C     C_R   0.488915 0.933982 0.616181 0.104660
C22   C     C_3   0.369178 0.930163 0.692001 0.099645
C23   C     C_R   0.505994 0.739725 0.499492 0.891825
C24   C     C_3   0.386500 0.070333 0.710769 0.086109
C25   C     C_R   0.430887 0.414390 0.070694 0.210544
C26   C     C_R   0.579137 0.574342 0.073271 -0.087739
C27   C     C_R   0.580602 0.573553 0.929877 0.340404
C28   C     C_R   0.428246 0.417165 0.928656 0.091825
C29   C     C_3   0.289439 0.402817 0.919580 -0.385046
C30   C     C_3   0.292592 0.394545 0.072965 0.703556
C31   C     C_R   0.739383 0.496118 0.501724 0.903495
C32   C     C_R   0.246185 0.876841 0.320229 -0.121566
C33   C     C_R   0.200801 0.773221 0.392050 -0.182830
C34   C     C_R   0.111560 0.693396 0.333463 0.096212
C35   C     C_R   0.067243 0.720905 0.199578 0.319631
C36   C     C_R   0.115564 0.823450 0.127858 -0.088570
H1    H     H_    0.240357 0.981178 0.132444 0.214528
H2    H     H_    0.823051 0.984916 0.625973 0.195334
H3    H     H_    0.911156 0.160281 0.494922 0.211337
H4    H     H_    0.286467 0.911701 0.626049 0.062316
H5    H     H_    0.309693 0.128315 0.664969 0.133476
H6    H     H_    0.640643 0.636516 0.128493 0.211532
H7    H     H_    0.312578 0.939526 0.367311 0.134956
H8    H     H_    0.241906 0.488282 0.877753 0.216721
H9    H     H_    0.260073 0.314639 0.871139 0.234173
H10   H     H_    0.232977 0.755970 0.494792 0.118460
H11   H     H_    0.082996 0.843818 0.025398 0.191270
H12   H     H_    0.872359 0.662173 0.381286 0.167564
H13   H     H_    0.834108 0.410632 0.817040 0.197666
N1    N     N_R   0.499160 0.499140 0.142800 -0.137602
N2    N     N_R   0.499160 0.499180 0.857150 -0.138213
O1    O     O_R   0.500020 0.316790 0.614690 -0.591365
O2    O     O_R   0.500000 0.316760 0.385350 -0.596179
O3    O     O_R   0.316770 0.500030 0.614670 -0.588719
O4    O     O_R   0.316750 0.499990 0.385330 -0.591613
O5    O     O_R   0.500000 0.683240 0.614650 -0.553219
O6    O     O_R   0.499980 0.683210 0.385310 -0.605254
O7    O     O_R   0.683250 0.500010 0.614670 -0.605653
O8    O     O_R   0.683230 0.499970 0.385330 -0.609665
Zn1   Zn    Zn3+2 0.500010 0.500020 0.653130 1.033883
Zn2   Zn    Zn3+2 0.499990 0.499980 0.346870 1.028137
O9    O     O_3   0.731742 0.993860 0.866450 -0.673937
H14   H     H_    0.707970 0.018677 0.958179 0.425735
Br1   Br    Br    0.691012 0.156015 0.271576 -0.370586
O10   O     O_3   0.661318 0.877381 0.303983 -0.684617
H15   H     H_    0.688637 0.794095 0.338658 0.330711
Br2   Br    Br    0.374300 0.822401 0.853223 -0.394965
Br3   Br    Br    0.440429 0.116712 0.891899 -0.379260
Br4   Br    Br    0.695980 0.682974 0.842564 -0.354952
O11   O     O_3   0.227730 0.492544 0.131882 -0.747853
H16   H     H_    0.143831 0.459145 0.152961 0.375995
O12   O     O_3   0.260674 0.275352 0.123871 -0.761711
H17   H     H_    0.280634 0.275823 0.222218 0.348255
Br5   Br    Br    0.942411 0.622586 0.107254 -0.524990
O13   O     O_3   0.146140 0.314044 0.632072 -0.806530
H18   H     H_    0.098064 0.262817 0.696652 0.343656
O14   O     O_3   0.726298 0.238942 0.974622 -0.707838
H19   H     H_    0.732984 0.329065 0.995824 0.351674

loop_
_geom_bond_atom_site_label_1
_geom_bond_atom_site_label_2
_ccdc_geom_bond_type
C35   Br5   S    
C16   C21   A    
C33   H10   S    
C35   C36   A    
C11   O9    S    
C7    C8    A    
O3    Zn1   S    
O14   H19   S    
C25   C28   A    
C26   C27   A    
O9    H14   S    
C31   O7    A    
C28   C29   S    
C34   C35   A    
C26   N1    A    
C5    C6    A    
C28   N2    A    
O7    Zn1   S    
C3    H12   S    
C36   H11   S    
C2    C32   A    
C18   C19   A    
C31   O8    A    
C1    O2    A    
C25   N1    A    
O1    Zn1   S    
C14   H3    S    
O2    Zn2   S    
C19   C20   A    
C16   C17   A    
O11   H16   S    
C9    C10   A    
C27   Br4   S    
C16   C24   S    
C13   C14   A    
C24   H5    S    
C30   O11   S    
C10   O14   S    
C27   N2    A    
C17   C18   A    
C7    C12   S    
O8    Zn2   S    
C12   O4    A    
C23   O5    A    
C9    H13   S    
C3    C8    A    
C4    C5    A    
O5    Zn1   S    
C29   H9    S    
O13   H18   S    
C29   C30   S    
C20   C23   S    
C22   H4    S    
C33   C34   A    
C8    C34   S    
C13   H2    S    
C29   H8    S    
C22   C24   S    
C3    C4    A    
C26   H6    S    
C2    C36   A    
C25   C30   S    
C23   O6    A    
O12   H17   S    
C30   O12   S    
O6    Zn2   S    
C6    C7    A    
C1    C17   S    
C32   C33   A    
C9    C15   A    
C11   C13   A    
C2    H1    S    
C18   Br1   S    
O4    Zn2   S    
C32   H7    S    
C19   O10   S    
C1    O1    A    
C22   Br2   S    
C5    C15   S    
C4    C31   S    
C10   C11   A    
C24   Br3   S    
C20   C21   A    
O10   H15   S    
N1    Zn2   S    
C14   C15   A    
N2    Zn1   S    
C21   C22   S    
C12   O3    A    
C6    O13   S    
