data_mof_unit_8141.cif
_audit_creation_date              2012-12-10T20:51:42-0500
_audit_creation_method            fapswitch 2.2
_symmetry_space_group_name_H-M    P1
_symmetry_Int_Tables_number       1
_space_group_crystal_system       triclinic
_cell_length_a                    8.134918
_cell_length_b                    8.928174
_cell_length_c                    16.627264
_cell_angle_alpha                 89.498102
_cell_angle_beta                  93.780467
_cell_angle_gamma                 89.996933
_cell_volume                      1204.9632879

loop_
_atom_site_label
_atom_site_type_symbol
_atom_type_description
_atom_site_fract_x
_atom_site_fract_y
_atom_site_fract_z
_atom_type_partial_charge
C1    C     C_R   0.499976 0.218111 0.499989 0.937026
C2    C     C_R   0.500021 0.781890 0.499973 0.937454
C3    C     C_R   0.520495 0.498162 0.654351 0.907254
C4    C     C_R   0.479649 0.508724 0.345820 0.904500
C5    C     C_R   0.532859 0.508027 0.741843 -0.154028
C6    C     C_R   0.468493 0.551952 0.260927 -0.146128
C7    C     C_R   0.392590 0.490749 0.785008 -0.320350
C8    C     C_R   0.607385 0.612205 0.226814 -0.310850
C9    C     C_R   0.402853 0.508443 0.868100 0.537572
C10   C     C_R   0.594982 0.668051 0.148511 0.511978
C11   C     C_R   0.552763 0.555609 0.908056 0.146101
C12   C     C_R   0.446492 0.648909 0.101115 0.170118
C13   C     C_R   0.695982 0.566101 0.865063 0.079892
C14   C     C_R   0.302403 0.609494 0.138165 0.094927
C15   C     C_R   0.684648 0.540400 0.782261 -0.238579
C16   C     C_R   0.314715 0.557401 0.217688 -0.267619
C17   C     C_1   0.499987 0.065222 0.499967 -0.196399
C18   C     C_1   0.500009 0.934769 0.499959 -0.193049
H1    H     H_    0.723982 0.622265 0.261786 0.190524
H2    H     H_    0.275093 0.461376 0.754750 0.186988
H3    H     H_    0.794583 0.549030 0.749080 0.185445
H4    H     H_    0.204408 0.523160 0.246052 0.175482
N1    N     N_1   0.073640 0.500030 0.499990 -0.037280
N2    N     N_1   0.926360 0.499970 0.500010 -0.037749
N3    N     N_2   0.563744 0.578466 0.992104 -0.162830
N4    N     N_2   0.443907 0.648164 0.016178 -0.132982
O1    O     O_R   0.636850 0.285340 0.500000 -0.612084
O2    O     O_R   0.363150 0.714660 0.500000 -0.612516
O3    O     O_R   0.363100 0.285350 0.500000 -0.613677
O4    O     O_R   0.636900 0.714650 0.500000 -0.615092
O5    O     O_R   0.652140 0.498630 0.616140 -0.623789
O6    O     O_R   0.347860 0.501370 0.383860 -0.619828
O7    O     O_R   0.378390 0.498650 0.616130 -0.619634
O8    O     O_R   0.621610 0.501350 0.383870 -0.622301
Zn1   Zn    Zn3+2 0.682780 0.499990 0.500010 0.979775
Zn2   Zn    Zn3+2 0.317220 0.500010 0.499990 0.982378
O9    O     O_3   0.727802 0.742554 0.119382 -0.613728
C19   C     C_3   0.684588 0.895123 0.107802 -0.349415
H5    H     H_    0.625697 0.942448 0.160714 0.160409
H6    H     H_    0.602693 0.910562 0.052159 0.177693
H7    H     H_    0.797453 0.961814 0.100375 0.183939
O10   O     O_3   0.264630 0.482003 0.909872 -0.622065
C20   C     C_3   0.264701 0.329902 0.933454 -0.398063
H8    H     H_    0.374311 0.302290 0.974561 0.178627
H9    H     H_    0.258564 0.254904 0.880194 0.175069
H10   H     H_    0.153596 0.308113 0.967007 0.184619
C21   C     C_3   0.862598 0.602481 0.905347 -0.370633
C22   C     C_3   0.925397 0.754230 0.877106 -0.827783
H11   H     H_    0.843804 0.845282 0.896171 0.251829
H12   H     H_    0.052136 0.773300 0.903889 0.267346
H13   H     H_    0.930456 0.758298 0.810587 0.254785
H14   H     H_    0.859263 0.603189 0.971812 0.237249
H15   H     H_    0.950518 0.513579 0.890424 0.242484
C23   C     C_3   0.136124 0.629157 0.094212 -0.361523
C24   C     C_3   0.102700 0.795597 0.078566 -0.815595
H16   H     H_    0.095670 0.855332 0.136572 0.261669
H17   H     H_    0.200501 0.847463 0.044037 0.239957
H18   H     H_    0.984797 0.809702 0.042551 0.282187
H19   H     H_    0.132134 0.568115 0.036509 0.249500
H20   H     H_    0.036654 0.582768 0.129836 0.220798

loop_
_geom_bond_atom_site_label_1
_geom_bond_atom_site_label_2
_ccdc_geom_bond_type
C19   H6    S    
C20   H8    S    
C21   H14   S    
C14   C16   A    
C2    C18   S    
C20   H9    S    
C1    C17   S    
C21   C22   S    
C13   C15   A    
C21   H15   S    
C2    O4    A    
C13   C21   S    
C24   H16   S    
C22   H12   S    
C17   C18   T    
C23   H20   S    
C3    O5    A    
C11   C13   A    
O3    Zn2   S    
C9    C11   A    
C9    O10   S    
O9    C19   S    
C10   C12   A    
O4    Zn1   S    
C10   O9    S    
O6    Zn2   S    
C1    O3    A    
C22   H11   S    
C14   C23   S    
C12   C14   A    
O8    Zn1   S    
N1    Zn2   S    
C4    O8    A    
C23   H19   S    
C24   H17   S    
C19   H5    S    
C22   H13   S    
C20   H10   S    
O5    Zn1   S    
C5    C15   A    
N2    Zn1   S    
C2    O2    A    
O10   C20   S    
C3    O7    A    
N1    N2    T    
C6    C16   A    
C4    O6    A    
C8    H1    S    
C7    C9    A    
C15   H3    S    
O7    Zn2   S    
O2    Zn2   S    
C19   H7    S    
C1    O1    A    
C7    H2    S    
C24   H18   S    
C12   N4    S    
C5    C7    A    
C11   N3    S    
C23   C24   S    
C6    C8    A    
O1    Zn1   S    
N3    N4    D    
C4    C6    S    
C8    C10   A    
C16   H4    S    
C3    C5    S    
