data_mof_unit_51903.cif
_audit_creation_date              2012-12-10T16:48:47-0500
_audit_creation_method            fapswitch 2.2
_symmetry_space_group_name_H-M    P1
_symmetry_Int_Tables_number       1
_space_group_crystal_system       triclinic
_cell_length_a                    17.103098
_cell_length_b                    8.813972
_cell_length_c                    7.42861
_cell_angle_alpha                 103.36394
_cell_angle_beta                  89.090067
_cell_angle_gamma                 92.958933
_cell_volume                      1088.04998696

loop_
_atom_site_label
_atom_site_type_symbol
_atom_type_description
_atom_site_fract_x
_atom_site_fract_y
_atom_site_fract_z
_atom_type_partial_charge
C1    C     C_R   0.496954 0.200430 0.454109 0.850663
C2    C     C_R   0.500650 0.799523 0.546470 0.836548
C3    C     C_2   0.497990 0.034038 0.427248 -0.201019
C4    C     C_2   0.494944 0.965417 0.573448 -0.326640
C5    C     C_R   0.350986 0.505050 0.528669 0.883452
C6    C     C_R   0.649009 0.496240 0.471483 0.851203
C7    C     C_R   0.266443 0.517453 0.555662 -0.221888
C8    C     C_R   0.733743 0.489921 0.445406 -0.247726
C9    C     C_R   0.228617 0.633663 0.493051 0.211868
C10   C     C_R   0.773360 0.373847 0.503708 0.253654
C11   C     C_R   0.147558 0.644790 0.515232 0.245106
C12   C     C_R   0.854620 0.367901 0.482125 0.254463
C13   C     C_R   0.104074 0.536900 0.595118 -0.039578
C14   C     C_R   0.896502 0.481167 0.407826 -0.062545
C15   C     C_R   0.142701 0.431473 0.674979 0.235397
C16   C     C_R   0.856309 0.587652 0.333037 0.275137
C17   C     C_R   0.224134 0.420371 0.653846 -0.246010
C18   C     C_R   0.774565 0.593468 0.353218 -0.246192
C19   C     C_2   0.018143 0.526072 0.583924 -0.047710
C20   C     C_2   0.982377 0.495279 0.418941 -0.051867
Cu1   Cu    Cu3+1 0.508700 0.517250 0.683000 1.047583
Cu2   Cu    Cu3+1 0.491300 0.482750 0.317000 1.094106
H1    H     H_    0.016280 0.488915 0.292628 0.205101
H2    H     H_    0.984057 0.531803 0.709874 0.206616
H3    H     H_    0.436598 0.385862 0.960206 0.272124
H4    H     H_    0.563436 0.614067 0.039785 0.264057
N1    N     N_2   0.478180 0.456750 0.041980 -0.180174
N2    N     N_2   0.521820 0.543250 0.958020 -0.214015
O1    O     O_R   0.505650 0.286040 0.618880 -0.581358
O2    O     O_R   0.494350 0.713960 0.381120 -0.570724
O3    O     O_R   0.490960 0.256910 0.309800 -0.535970
O4    O     O_R   0.509040 0.743090 0.690200 -0.606783
O5    O     O_R   0.394600 0.516230 0.672450 -0.609467
O6    O     O_R   0.605400 0.483770 0.327550 -0.578478
O7    O     O_R   0.379910 0.487100 0.363380 -0.538876
O8    O     O_R   0.620090 0.512900 0.636620 -0.538357
Br1   Br    Br    0.287911 0.782697 0.384470 -0.312641
Br2   Br    Br    0.716130 0.218454 0.605890 -0.383164
C21   C     C_2   0.732286 0.712062 0.284458 0.999839
O9    O     O_2   0.735190 0.712884 0.120376 -0.482236
O10   O     O_R   0.688452 0.822389 0.404255 -0.700576
H5    H     H_    0.692688 0.816498 0.538338 0.300923
C22   C     C_2   0.264222 0.300986 0.725554 1.002340
O11   O     O_2   0.296876 0.197310 0.617575 -0.487241
O12   O     O_R   0.265993 0.305951 0.914934 -0.667750
H6    H     H_    0.240857 0.401127 0.992684 0.319005
Br3   Br    Br    0.083829 0.295260 0.803022 -0.338858
Br4   Br    Br    0.913479 0.731690 0.212949 -0.306529
Br5   Br    Br    0.907557 0.197793 0.541544 -0.258961
Br6   Br    Br    0.097196 0.814896 0.448778 -0.255804
C23   C     C_2   0.503559 0.947197 0.231475 0.976373
O13   O     O_2   0.567597 0.927275 0.156804 -0.532770
O14   O     O_R   0.434953 0.889143 0.134681 -0.673201
H7    H     H_    0.445391 0.827421 0.004704 0.348242
C24   C     C_2   0.481593 0.051129 0.768114 0.924124
O15   O     O_2   0.414809 0.072425 0.824979 -0.473756
O16   O     O_R   0.544383 0.106149 0.887190 -0.682886
H8    H     H_    0.596700 0.076736 0.827060 0.343825

loop_
_geom_bond_atom_site_label_1
_geom_bond_atom_site_label_2
_ccdc_geom_bond_type
C2    C4    S    
C22   O11   D    
C17   C22   S    
C24   O16   S    
C14   C20   S    
H3    N1    S    
C11   C13   A    
O10   H5    S    
H4    N2    S    
C19   C20   D    
C20   H1    S    
C15   Br3   S    
C10   Br2   S    
N1    N2    D    
Cu1   Cu2   S    
C16   Br4   S    
C24   O15   D    
C1    O1    A    
C12   Br5   S    
C21   O10   S    
C11   Br6   S    
O12   H6    S    
Cu1   O8    S    
Cu2   O7    S    
C22   O12   S    
C9    C11   A    
O16   H8    S    
C10   C12   A    
C5    O7    A    
C8    C10   A    
Cu1   N2    S    
C12   C14   A    
C19   H2    S    
Cu2   N1    S    
C13   C15   A    
C4    C24   S    
Cu2   O6    S    
Cu1   O4    S    
C14   C16   A    
Cu1   O5    S    
Cu2   O3    S    
C13   C19   S    
C23   O13   D    
C5    O5    A    
C7    C9    A    
C1    O3    A    
C2    O2    A    
C2    O4    A    
C9    Br1   S    
C21   O9    D    
C5    C7    S    
C18   C21   S    
C3    C23   S    
C6    C8    S    
Cu2   O2    S    
C23   O14   S    
C15   C17   A    
Cu1   O1    S    
C16   C18   A    
C8    C18   A    
C3    C4    D    
C6    O6    A    
O14   H7    S    
C6    O8    A    
C1    C3    S    
C7    C17   A    
