data_mof_unit_41438.cif
_audit_creation_date              2012-12-11T14:50:43-0500
_audit_creation_method            fapswitch 2.2
_symmetry_space_group_name_H-M    P1
_symmetry_Int_Tables_number       1
_space_group_crystal_system       triclinic
_cell_length_a                    10.927304
_cell_length_b                    10.895392
_cell_length_c                    18.744287
_cell_angle_alpha                 90.619732
_cell_angle_beta                  90.002854
_cell_angle_gamma                 60.446376
_cell_volume                      1941.14486716

loop_
_atom_site_label
_atom_site_type_symbol
_atom_type_description
_atom_site_fract_x
_atom_site_fract_y
_atom_site_fract_z
_atom_type_partial_charge
C1    C     C_R   0.292583 0.622475 0.615726 0.553681
C2    C     C_3   0.669201 0.587297 0.800710 -0.222437
C3    C     C_3   0.725713 0.691874 0.806802 0.047091
C4    C     C_3   0.682826 0.657025 0.672565 0.060172
C5    C     C_3   0.838824 0.616468 0.683684 -0.233946
C6    C     C_3   0.648341 0.564125 0.722014 -0.224392
C7    C     C_R   0.782484 0.169276 0.712930 0.244165
C8    C     C_R   0.790948 0.166933 0.788583 0.205155
C9    C     C_R   0.675899 0.182671 0.829628 0.023863
C10   C     C_R   0.543980 0.231191 0.797655 0.215292
C11   C     C_R   0.534520 0.239124 0.724017 -0.202685
C12   C     C_R   0.657047 0.625703 0.598950 0.531858
C13   C     C_R   0.652961 0.201585 0.680999 -0.049937
C14   C     C_R   0.215016 0.545782 0.723862 -0.136693
C15   C     C_R   0.186748 0.556891 0.796769 -0.091461
C16   C     C_R   0.200464 0.656027 0.838952 0.045132
C17   C     C_R   0.260319 0.731253 0.808909 -0.161952
C18   C     C_R   0.280356 0.726996 0.735461 -0.153687
C19   C     C_R   0.258810 0.633681 0.692212 0.028579
C20   C     C_R   0.785551 0.623439 0.292416 -0.167252
C21   C     C_R   0.797361 0.635041 0.219990 -0.201379
C22   C     C_R   0.677705 0.691001 0.176162 0.036015
C23   C     C_R   0.625679 0.233402 0.604842 0.572724
C24   C     C_R   0.542609 0.750124 0.205924 0.255491
C25   C     C_R   0.531791 0.735275 0.279557 -0.124056
C26   C     C_R   0.653538 0.668461 0.321958 -0.011008
C27   C     C_R   0.542835 0.161726 0.286495 -0.156771
C28   C     C_R   0.542125 0.159774 0.213557 -0.184749
C29   C     C_R   0.650252 0.163605 0.175491 0.044115
C30   C     C_R   0.753471 0.182495 0.211273 0.243264
C31   C     C_R   0.753234 0.184380 0.285222 -0.123921
C32   C     C_R   0.646116 0.177712 0.322695 -0.008669
C33   C     C_R   0.080106 0.800380 0.306129 -0.150850
C34   C     C_R   0.219481 0.648964 0.402384 0.559292
C35   C     C_R   0.059348 0.813776 0.233866 -0.134713
C36   C     C_R   0.110775 0.693129 0.189791 0.042200
C37   C     C_R   0.170463 0.558982 0.218852 -0.155034
C38   C     C_R   0.190776 0.545251 0.291687 -0.139568
C39   C     C_R   0.152958 0.665986 0.334519 0.029762
C40   C     C_R   0.698814 0.109355 0.898217 0.571238
C41   C     C_R   0.753797 0.709474 0.882799 0.543695
C42   C     C_R   0.122694 0.703412 0.906847 0.536242
C43   C     C_R   0.674243 0.109515 0.103432 0.565229
C44   C     C_R   0.701196 0.694891 0.100377 0.588763
C45   C     C_R   0.642184 0.624648 0.393035 0.552275
C46   C     C_R   0.085167 0.714071 0.114834 0.561195
C47   C     C_R   0.617797 0.227642 0.395276 0.556573
C48   C     C_3   0.614955 0.834089 0.773509 -0.231125
C49   C     C_3   0.591862 0.814449 0.693936 -0.241601
C50   C     C_3   0.863830 0.633599 0.763143 -0.245206
Cr1   Cr    Cr6+3 0.392930 0.397900 0.502230 1.000258
Cr2   Cr    Cr6+3 0.398240 0.708600 0.501260 1.010657
Cr3   Cr    Cr6+3 0.708800 0.393470 0.496460 1.004132
Cr4   Cr    Cr6+3 0.937620 0.938540 0.007640 1.053009
Cr5   Cr    Cr6+3 0.625150 0.937450 0.994520 1.030589
Cr6   Cr    Cr6+3 0.937990 0.625080 0.001190 1.009794
H1    H     H_    0.649156 0.914385 0.779466 0.115383
H2    H     H_    0.940741 0.528303 0.783856 0.123384
H3    H     H_    0.911055 0.505466 0.666759 0.117430
H4    H     H_    0.432299 0.278535 0.700279 0.154606
H5    H     H_    0.197817 0.472031 0.692198 0.111352
H6    H     H_    0.146257 0.493692 0.819672 0.133775
H7    H     H_    0.279774 0.802802 0.841102 0.105998
H8    H     H_    0.513014 0.872461 0.801833 0.118858
H9    H     H_    0.314525 0.795502 0.712497 0.115338
H10   H     H_    0.879760 0.572640 0.324583 0.140394
H11   H     H_    0.901568 0.595322 0.197675 0.150892
H12   H     H_    0.429902 0.765743 0.302740 0.140286
H13   H     H_    0.457962 0.157649 0.314284 0.138467
H14   H     H_    0.460843 0.146954 0.187285 0.139107
H15   H     H_    0.048613 0.893999 0.338848 0.126526
H16   H     H_    0.478698 0.852665 0.684379 0.120413
H17   H     H_    0.204944 0.465920 0.185329 0.117639
H18   H     H_    0.246552 0.439869 0.313286 0.138465
H19   H     H_    0.621409 0.880121 0.660824 0.123491
H20   H     H_    0.865427 0.684632 0.650800 0.130732
H21   H     H_    0.744033 0.484039 0.824650 0.174745
H22   H     H_    0.567630 0.629143 0.830066 0.137418
H23   H     H_    0.540324 0.584740 0.713230 0.117340
O1    O     O_R   0.507430 0.255570 0.581420 -0.544502
O2    O     O_R   0.524460 0.695920 0.424060 -0.507277
O3    O     O_R   0.736530 0.504260 0.414810 -0.519640
O4    O     O_R   0.691460 0.277160 0.422180 -0.504338
O5    O     O_3   0.499990 0.499990 0.499980 -0.265445
O6    O     O_R   0.089490 0.825610 0.930610 -0.541189
O7    O     O_R   0.818370 0.054540 0.929880 -0.483236
O8    O     O_R   0.605870 0.077310 0.915530 -0.501555
O9    O     O_R   0.646440 0.806700 0.917570 -0.509926
O10   O     O_R   0.837200 0.593290 0.915250 -0.512136
O11   O     O_R   0.065330 0.635370 0.931590 -0.511370
O12   O     O_R   0.280190 0.527390 0.578910 -0.512475
O13   O     O_R   0.068300 0.828790 0.091860 -0.499015
O14   O     O_R   0.798730 0.057480 0.079370 -0.450843
O15   O     O_R   0.584680 0.080480 0.076790 -0.534447
O16   O     O_R   0.626790 0.809640 0.067050 -0.455157
O17   O     O_R   0.816010 0.596460 0.076500 -0.545927
O18   O     O_R   0.045680 0.638310 0.081070 -0.517501
O19   O     O_3   0.833590 0.833690 0.001120 -0.288582
O20   O     O_R   0.260310 0.739740 0.584580 -0.500415
O21   O     O_R   0.532250 0.695150 0.573830 -0.521015
O22   O     O_R   0.744930 0.503430 0.576380 -0.551018
O23   O     O_R   0.699250 0.276390 0.571950 -0.477227
O24   O     O_R   0.499020 0.256400 0.419850 -0.524640
O25   O     O_R   0.272400 0.528160 0.429140 -0.505624
O26   O     O_R   0.251910 0.740570 0.423020 -0.519699
H24   H     H_    0.716468 0.451282 0.708346 0.129779
O27   O     O_3   0.903284 0.113356 0.670919 -0.553219
C51   C     C_3   0.958368 0.206231 0.666579 -0.106880
H25   H     H_    0.073658 0.142531 0.657839 0.109632
H26   H     H_    0.941621 0.272147 0.715129 0.126440
H27   H     H_    0.915790 0.273667 0.619443 0.174702
O28   O     O_3   0.900529 0.170522 0.823610 -0.585151
C52   C     C_3   0.024050 0.039791 0.817414 -0.056181
H28   H     H_    0.003307 0.949854 0.811345 0.147199
H29   H     H_    0.085997 0.025650 0.866431 0.152049
H30   H     H_    0.090266 0.039205 0.772693 0.123168
O29   O     O_3   0.424135 0.282985 0.840376 -0.534964
C53   C     C_3   0.346276 0.214101 0.824870 -0.101649
H31   H     H_    0.413178 0.098391 0.825860 0.124003
H32   H     H_    0.290367 0.247825 0.773261 0.074848
H33   H     H_    0.265036 0.242944 0.867016 0.138276
O30   O     O_3   0.426687 0.803767 0.161055 -0.552918
C54   C     C_3   0.316373 0.932679 0.187936 -0.092230
H34   H     H_    0.243330 0.988950 0.143636 0.164112
H35   H     H_    0.354816 0.003130 0.209394 0.090891
H36   H     H_    0.255175 0.913749 0.229267 0.122500
O31   O     O_3   0.862955 0.182986 0.174380 -0.576726
C55   C     C_3   0.844462 0.320215 0.176572 -0.114336
H37   H     H_    0.860403 0.349145 0.231426 0.119474
H38   H     H_    0.739177 0.399039 0.156098 0.141218
H39   H     H_    0.925026 0.322902 0.141652 0.153978
H40   H     H_    0.833744 0.196364 0.313003 0.133142
H41   H     H_    0.006230 0.918888 0.212261 0.179997
H42   H     H_    0.907429 0.706349 0.768729 0.112598

loop_
_geom_bond_atom_site_label_1
_geom_bond_atom_site_label_2
_ccdc_geom_bond_type
C41   O10   A    
C35   C36   A    
Cr6   O19   S    
C55   H37   S    
C35   H41   S    
C54   H34   S    
C18   H9    S    
C31   H40   S    
C29   C30   A    
Cr3   O5    S    
C44   O17   A    
C40   O8    A    
C20   H10   S    
C28   C29   A    
C8    O28   S    
Cr6   O10   S    
C3    C41   S    
C38   C39   A    
C33   C35   A    
C54   H35   S    
C23   O23   A    
C46   O13   A    
Cr1   O24   S    
C15   C16   A    
C3    C48   S    
C43   O15   A    
C51   H25   S    
C13   C23   S    
C18   C19   A    
C40   O7    A    
Cr5   O9    S    
Cr2   O5    S    
Cr1   O1    S    
Cr4   O14   S    
C26   C45   S    
Cr1   O12   S    
C53   H31   S    
C22   C44   S    
C45   O3    A    
Cr3   O22   S    
C8    C9    A    
C49   H16   S    
O27   C51   S    
C49   H19   S    
C36   C46   S    
C47   O4    A    
C23   O1    A    
C4    C12   S    
C9    C10   A    
C27   H13   S    
C52   H30   S    
Cr6   O11   S    
C1    O12   A    
C21   C22   A    
C29   C43   S    
C1    O20   A    
C2    C6    S    
C25   H12   S    
Cr6   O18   S    
Cr5   O15   S    
O28   C52   S    
C3    C50   S    
C45   O2    A    
C1    C19   S    
C47   O24   A    
C5    H3    S    
C34   C39   S    
C50   H2    S    
C48   H1    S    
C24   C25   A    
Cr5   O16   S    
C50   H42   S    
Cr4   O7    S    
C16   C17   A    
C54   H36   S    
Cr1   O25   S    
C14   H5    S    
Cr2   O21   S    
C9    C40   S    
C34   O25   A    
Cr3   O3    S    
C42   O11   A    
C53   H33   S    
Cr4   O13   S    
C37   C38   A    
C2    H22   S    
C31   C32   A    
Cr3   O23   S    
C24   O30   S    
C17   C18   A    
C6    H24   S    
C42   O6    A    
C33   C39   A    
C4    C6    S    
C48   C49   S    
C46   O18   A    
Cr2   O26   S    
C32   C47   S    
C22   C24   A    
C5    C50   S    
C48   H8    S    
O31   C55   S    
C55   H39   S    
C16   C42   S    
C52   H28   S    
C38   H18   S    
Cr6   O17   S    
C41   O9    A    
C37   H17   S    
C30   O31   S    
C36   C37   A    
C27   C32   A    
C34   O26   A    
C14   C19   A    
C28   H14   S    
C4    C5    S    
C55   H38   S    
Cr4   O6    S    
Cr2   O20   S    
C51   H27   S    
C4    C49   S    
Cr3   O4    S    
C5    H20   S    
C2    C3    S    
C25   C26   A    
C12   O22   A    
C10   O29   S    
O29   C53   S    
C17   H7    S    
C11   C13   A    
C6    H23   S    
C30   C31   A    
C20   C26   A    
Cr5   O19   S    
C43   O14   A    
C15   H6    S    
C51   H26   S    
C7    O27   S    
Cr5   O8    S    
Cr2   O2    S    
C53   H32   S    
C12   O21   A    
C7    C8    A    
C10   C11   A    
C33   H15   S    
C7    C13   A    
C20   C21   A    
C27   C28   A    
C44   O16   A    
C2    H21   S    
C14   C15   A    
Cr4   O19   S    
O30   C54   S    
Cr1   O5    S    
C21   H11   S    
C11   H4    S    
C52   H29   S    
