data_mof_unit_24206.cif
_audit_creation_date              2013-03-05T15:54:32-0500
_audit_creation_method            fapswitch 2.2
_symmetry_space_group_name_H-M    P1
_symmetry_Int_Tables_number       1
_space_group_crystal_system       triclinic
_cell_length_a                    8.333267
_cell_length_b                    14.978721
_cell_length_c                    16.384623
_cell_angle_alpha                 97.555352
_cell_angle_beta                  93.237811
_cell_angle_gamma                 98.110312
_cell_volume                      2001.24897861

loop_
_atom_site_label
_atom_site_type_symbol
_atom_site_description
_atom_site_fract_x
_atom_site_fract_y
_atom_site_fract_z
_atom_type_partial_charge
P1    P     P_3+3 0.987090 0.708160 0.571840 0.483817
O1    O     O_2   0.162600 0.722340 0.548210 -0.326023
O2    O     O_3   0.890740 0.608910 0.545450 -0.386754
O3    O     O_3   0.394140 0.666560 0.400120 -0.330775
O4    O     O_2   0.329375 0.826560 0.462211 -0.340889
O5    O     O_3   0.991381 0.740976 0.679045 -0.643251
O6    O     O_3   0.372771 0.817314 0.306564 -0.558283
C1    C     C_3   0.491326 0.863895 0.184437 -0.597486
H1    H     H_    0.374296 0.887958 0.169721 0.227668
P2    P     P_3+3 0.349530 0.428340 0.313070 0.495445
P3    P     P_3+3 0.938093 0.614141 0.250696 0.450812
O7    O     O_2   0.182040 0.455730 0.301660 -0.344087
O8    O     O_3   0.971540 0.620730 0.357730 -0.400453
O9    O     O_2   0.050556 0.550172 0.210667 -0.373931
O10   O     O_3   0.312640 0.311691 0.276835 -0.551732
O11   O     O_3   0.007298 0.720964 0.222902 -0.508691
C2    C     C_3   0.975249 0.788037 0.285839 0.436904
H2    H     H_    0.057613 0.789822 0.341984 0.149363
H3    H     H_    0.847390 0.775462 0.302055 -0.011059
C3    C     C_3   0.003792 0.880736 0.256687 -0.860226
H4    H     H_    0.133199 0.898605 0.244806 0.278241
H5    H     H_    0.927014 0.879872 0.198897 0.261076
C4    C     C_3   0.765372 0.345029 0.286969 0.404954
H6    H     H_    0.655685 0.367608 0.312757 0.075909
H7    H     H_    0.869500 0.401226 0.299786 0.131764
C5    C     C_3   0.733211 0.319336 0.193940 -0.879730
H8    H     H_    0.624110 0.266402 0.179554 0.271306
H9    H     H_    0.712308 0.379646 0.164771 0.209019
H10   H     H_    0.839675 0.292484 0.167559 0.287943
Ba1   Ba    Ba6+2 0.163640 0.544330 0.462610 1.623757
C6    C     C_3   0.104490 0.704505 0.726035 0.865165
H11   H     H_    0.173128 0.658926 0.687643 0.019321
C7    C     C_3   0.009525 0.649815 0.784837 -1.062018
H12   H     H_    0.933040 0.692632 0.821138 0.269857
H13   H     H_    0.093497 0.625762 0.829087 0.238286
H14   H     H_    0.929399 0.590811 0.748861 0.254990
C8    C     C_3   0.282156 0.256630 0.338416 0.187229
H15   H     H_    0.155790 0.257930 0.356018 0.092934
H16   H     H_    0.368411 0.278916 0.393708 0.104458
C9    C     C_3   0.303109 0.160242 0.299385 0.041680
H17   H     H_    0.431268 0.162179 0.283014 0.107660
P4    P     P_3+3 0.823210 0.291830 0.428100 0.471283
O12   O     O_2   0.647690 0.277600 0.451760 -0.395275
O13   O     O_3   0.919560 0.391080 0.454480 -0.397246
O14   O     O_3   0.416160 0.333430 0.599820 -0.365324
O15   O     O_3   0.801036 0.268216 0.320255 -0.541452
P5    P     P_3+3 0.860020 0.380097 0.749363 0.509155
O16   O     O_3   0.378690 0.546410 0.598120 -0.331260
O17   O     O_3   0.838760 0.379260 0.642200 -0.383864
O18   O     O_2   0.721031 0.425878 0.787581 -0.423270
O19   O     O_3   0.825071 0.266724 0.769756 -0.488350
Ba2   Ba    Ba6+2 0.646540 0.455660 0.537320 1.601537
P6    P     P_3+3 0.440697 0.784377 0.400396 0.507415
C10   C     C_3   0.465891 0.789498 0.241103 0.380445
H18   H     H_    0.585024 0.771737 0.261627 -0.013886
H19   H     H_    0.536015 0.835695 0.125118 0.178051
O20   O     O_3   0.431610 0.453580 0.401810 -0.399298
C11   C     C_3   0.614521 0.740541 0.704549 0.769072
H20   H     H_    0.707231 0.697824 0.685958 0.055024
C12   C     C_3   0.695484 0.816717 0.772099 -0.789134
H21   H     H_    0.733265 0.787368 0.827567 0.214787
H22   H     H_    0.804365 0.855155 0.749843 0.260035
H23   H     H_    0.609485 0.864649 0.790544 0.293184
P7    P     P_3+3 0.455472 0.574163 0.701726 0.469542
O21   O     O_2   0.628260 0.544210 0.698310 -0.384711
O22   O     O_3   0.481639 0.691821 0.736600 -0.604159
H24   H     H_    0.972115 0.933258 0.304953 0.218010
C13   C     C_3   0.796180 0.206300 0.694932 0.308095
H25   H     H_    0.695082 0.223292 0.656917 0.131050
H26   H     H_    0.901804 0.210686 0.657589 0.109096
C14   C     C_3   0.756037 0.107065 0.710364 -0.125595
H27   H     H_    0.635458 0.094167 0.735295 0.166814
H28   H     H_    0.749315 0.061852 0.650363 0.116460
P8    P     P_3+3 0.372820 0.214561 0.594400 0.448756
C15   C     C_3   0.396740 0.245633 0.757838 0.769382
O23   O     O_2   0.492842 0.172691 0.537785 -0.435298
O24   O     O_3   0.416487 0.179333 0.691052 -0.617541
H29   H     H_    0.465741 0.312723 0.750708 0.073788
H30   H     H_    0.448447 0.269255 0.891602 0.233543
C16   C     C_3   0.463919 0.217763 0.838405 -0.852127
H31   H     H_    0.594426 0.212999 0.837971 0.266647
H32   H     H_    0.399056 0.150266 0.847862 0.288608
C17   C     C_R   0.163268 0.169937 0.550041 0.284999
C18   C     C_R   0.092964 0.077659 0.546478 -0.060895
C19   C     C_R   0.958675 0.889062 0.529320 -0.076824
C20   C     C_R   0.108086 0.922877 0.574132 -0.010271
C21   C     C_R   0.175274 0.014295 0.581126 -0.049274
C22   C     C_R   0.893943 0.794247 0.517551 0.215944
H33   H     H_    0.178326 0.879164 0.602782 0.214522
H34   H     H_    0.294029 0.033652 0.613285 0.192258
C23   C     C_R   0.746368 0.765534 0.470083 -0.406023
C24   C     C_R   0.921082 0.203883 0.476329 0.216468
C25   C     C_R   0.852242 0.110070 0.468575 -0.046446
C26   C     C_R   0.938372 0.046991 0.504020 -0.006571
C27   C     C_R   0.700468 0.076839 0.426121 -0.049071
C28   C     C_R   0.633166 0.985503 0.420157 -0.193107
C29   C     C_R   0.718163 0.921716 0.451805 -0.004366
C30   C     C_R   0.872101 0.952376 0.494679 0.050112
C31   C     C_R   0.653995 0.828058 0.440989 0.212260
C32   C     C_R   0.075419 0.231511 0.516853 -0.475486
H35   H     H_    0.516257 0.964938 0.386630 0.178334
H36   H     H_    0.631902 0.120137 0.395327 0.162569
H37   H     H_    0.696407 0.693959 0.461265 0.180962
H38   H     H_    0.130372 0.301967 0.520546 0.187012
C33   C     C_R   0.620248 0.538820 0.269310 -0.521125
C34   C     C_R   0.468183 0.489593 0.241438 0.322913
C35   C     C_R   0.417743 0.475829 0.156951 -0.242711
C36   C     C_R   0.519386 0.513331 0.099855 0.142678
C37   C     C_R   0.675797 0.558623 0.128804 -0.299125
C38   C     C_R   0.726784 0.569673 0.213109 0.228594
C39   C     C_R   0.382568 0.513575 0.852739 -0.262221
C40   C     C_R   0.329903 0.511966 0.769979 0.239686
C41   C     C_R   0.275683 0.476473 0.908029 0.151109
N1    N     N_2   0.470182 0.508158 0.014060 -0.065051
N2    N     N_2   0.323676 0.477546 0.993619 -0.055823
C42   C     C_R   0.171150 0.474403 0.741364 -0.400123
H39   H     H_    0.505182 0.545667 0.873768 0.167330
H40   H     H_    0.758314 0.584211 0.085593 0.167090
C43   C     C_R   0.062231 0.438379 0.794642 0.352428
C44   C     C_R   0.114475 0.439525 0.878060 -0.222765
H41   H     H_    0.300134 0.436251 0.136334 0.177153
H42   H     H_    0.031094 0.410272 0.919146 0.168153
H43   H     H_    0.661036 0.546505 0.334090 0.167513
H44   H     H_    0.131023 0.474332 0.677343 0.166415
C45   C     C_1   0.371602 0.710307 0.189545 0.170745
N3    N     N_1   0.296087 0.650282 0.146085 -0.024677
N4    N     N_R   0.217817 0.780323 0.772896 0.253267
O25   O     O_R   0.244551 0.787763 0.852787 -0.371950
O26   O     O_R   0.291367 0.842937 0.734493 -0.372190
N5    N     N_R   0.194185 0.131379 0.224523 0.280906
O27   O     O_R   0.253766 0.112804 0.153606 -0.341008
O28   O     O_R   0.037304 0.124458 0.228044 -0.365015
C46   C     C_1   0.274555 0.092217 0.355290 -0.024967
N6    N     N_1   0.252951 0.036218 0.397316 -0.056468
N7    N     N_R   0.556074 0.777291 0.632355 0.211084
O29   O     O_R   0.573203 0.864487 0.628920 -0.423696
O30   O     O_R   0.480388 0.720926 0.570918 -0.353971
C47   C     C_1   0.610653 0.942860 0.219142 0.216540
N8    N     N_1   0.705233 0.006111 0.244097 -0.030851
N9    N     N_R   0.878695 0.083607 0.767531 0.305755
O31   O     O_R   0.870070 0.103596 0.846721 -0.275866
O32   O     O_R   0.981735 0.031222 0.740487 -0.357995
N10   N     N_R   0.225374 0.253924 0.762665 0.214410
O33   O     O_R   0.153083 0.287683 0.704670 -0.501733
O34   O     O_R   0.147612 0.235818 0.826661 -0.337702

loop_
_geom_bond_atom_site_label_1
_geom_bond_atom_site_label_2
_geom_bond_distance
_ccdc_geom_bond_type
C33   C38   1.392175 A    
C25   C26   1.426084 A    
O3    P6    1.751967 S    
C3    H24   1.110224 S    
C27   C28   1.392093 A    
C18   C21   1.405330 A    
C6    N4    1.468765 S    
P8    C17   1.850390 S    
C1    H19   1.113120 S    
C29   C30   1.413191 A    
N7    O29   1.302698 A    
P5    O17   1.752967 S    
C19   C20   1.402452 A    
P6    C31   1.858422 S    
C5    H8    1.110882 S    
C45   N3    1.154476 T    
P8    O23   1.543687 D    
C12   H23   1.110404 S    
Ba1   O16   2.767440 S    
N9    O32   1.300375 A    
C8    C9    1.537808 S    
P2    O10   1.747830 S    
P3    O9    1.544063 D    
O12   Ba2   2.846808 S    
P7    C40   1.828821 S    
C34   C35   1.403635 A    
C26   C30   1.431596 A    
C11   C12   1.532463 S    
N10   O33   1.291964 A    
Ba1   O20   2.928887 S    
N10   O34   1.301877 A    
C32   H38   1.082037 S    
C7    H14   1.107440 S    
C36   C37   1.407179 A    
C33   H43   1.082331 S    
C1    C47   1.462379 S    
P1    O1    1.527111 D    
P4    O15   1.749821 S    
C4    C5    1.521114 S    
C36   N1    1.430895 S    
O10   C8    1.396952 S    
Ba1   Ba2   4.564563 S    
C19   C30   1.424919 A    
O16   P7    1.755157 S    
C2    H3    1.108986 S    
C11   O22   1.404636 S    
C39   C40   1.397530 A    
C1    H1    1.111131 S    
P8    O24   1.768472 S    
C4    H6    1.105292 S    
C6    C7    1.528505 S    
C15   C16   1.535456 S    
C27   H36   1.076901 S    
O13   Ba2   2.928965 S    
P1    C22   1.887467 S    
P5    C43   1.850780 S    
O5    C6    1.397696 S    
C25   C27   1.401144 A    
C4    O15   1.397395 S    
C28   H35   1.075242 S    
P3    C38   1.833679 S    
Ba1   O13   2.827665 S    
P4    O13   1.580064 S    
P2    O7    1.517768 D    
C29   C31   1.413388 A    
C44   H42   1.082800 S    
C37   H40   1.083053 S    
C2    H2    1.111336 S    
P5    O18   1.548226 D    
C10   C45   1.461705 S    
P1    O5    1.757591 S    
O8    Ba1   2.747447 S    
P2    O20   1.547565 S    
N9    O31   1.301064 A    
C16   H32   1.111210 S    
Ba2   O20   2.766840 S    
C1    C10   1.541569 S    
C14   H28   1.111868 S    
C20   C21   1.391706 A    
C13   H25   1.097905 S    
P5    O19   1.760951 S    
O14   Ba2   2.794586 S    
C11   H20   1.101755 S    
O14   P8    1.755521 S    
P1    O2    1.580084 S    
P7    O22   1.758592 S    
O2    Ba1   2.928115 S    
N5    O28   1.301934 A    
N4    O26   1.299137 A    
C8    H15   1.109536 S    
C41   C44   1.412919 A    
P3    O11   1.749608 S    
P2    Ba1   3.389703 S    
C6    H11   1.107633 S    
C22   C23   1.398926 A    
C35   C36   1.414780 A    
O17   Ba2   2.748055 S    
C28   C29   1.401150 A    
C7    H12   1.108680 S    
C39   C41   1.416602 A    
C18   C26   1.415031 A    
C24   C25   1.427302 A    
C15   O24   1.411181 S    
C15   N10   1.456428 S    
C9    H17   1.113124 S    
C3    H5    1.109986 S    
C17   C32   1.399890 A    
C46   N6    1.154740 T    
C17   C18   1.415471 A    
P4    O12   1.527378 D    
C35   H41   1.082628 S    
N4    O25   1.302756 A    
C40   C42   1.391790 A    
C24   C32   1.395478 A    
C33   C34   1.393007 A    
C19   C22   1.430105 A    
O4    P6    1.545594 D    
N7    O30   1.295548 A    
C9    N5    1.462662 S    
C10   H18   1.108961 S    
C42   H44   1.082638 S    
O7    Ba1   2.814576 S    
C2    C3    1.518785 S    
C23   H37   1.081732 S    
C16   H31   1.100249 S    
C20   H33   1.072195 S    
C43   C44   1.407974 A    
N1    N2    1.252363 D    
C14   N9    1.457837 S    
C11   N7    1.456427 S    
C9    C46   1.461341 S    
C5    H9    1.106055 S    
C42   C43   1.397209 A    
C39   H39   1.082542 S    
O1    Ba1   2.846247 S    
P7    O21   1.569230 D    
N5    O27   1.301222 A    
C14   H27   1.107335 S    
C8    H16   1.108152 S    
C37   C38   1.403440 A    
O2    Ba2   2.828269 S    
C12   H22   1.110355 S    
P3    O8    1.747694 S    
O11   C2    1.406576 S    
C13   C14   1.534067 S    
P1    Ba1   3.398631 S    
C7    H13   1.107982 S    
P4    C24   1.878585 S    
O19   C13   1.411907 S    
C4    H7    1.110160 S    
C15   H29   1.108852 S    
P2    C34   1.831732 S    
C47   N8    1.156292 T    
H30   C16   1.111376 S    
O16   Ba2   2.928041 S    
C3    H4    1.108342 S    
C5    H10   1.110857 S    
C13   H26   1.099317 S    
C21   H34   1.077501 S    
O6    P6    1.762764 S    
C12   H21   1.109107 S    
O6    C10   1.412030 S    
C23   C31   1.405776 A    
O3    Ba1   2.795122 S    
Ba2   O21   2.814712 S    
P4    Ba2   3.399120 S    
C41   N2    1.433784 S    
