data_mof_unit_7032.cif
_audit_creation_date              2013-03-05T16:17:52-0500
_audit_creation_method            fapswitch 2.2
_symmetry_space_group_name_H-M    P1
_symmetry_Int_Tables_number       1
_space_group_crystal_system       triclinic
_cell_length_a                    14.55267
_cell_length_b                    16.003973
_cell_length_c                    9.996816
_cell_angle_alpha                 92.310937
_cell_angle_beta                  88.109374
_cell_angle_gamma                 90.081453
_cell_volume                      2325.10386031

loop_
_atom_site_label
_atom_site_type_symbol
_atom_site_description
_atom_site_fract_x
_atom_site_fract_y
_atom_site_fract_z
_atom_type_partial_charge
O1    O     O_R   0.092530 0.407440 0.616040 -0.623163
O2    O     O_R   0.092530 0.407440 0.383960 -0.589033
O3    O     O_R   0.092530 0.592560 0.383960 -0.559856
O4    O     O_R   0.092530 0.592560 0.616040 -0.535851
O5    O     O_R   0.592530 0.907440 0.616040 -0.623164
O6    O     O_R   0.592530 0.907440 0.383960 -0.589029
O7    O     O_R   0.592530 0.092560 0.383960 -0.559850
O8    O     O_R   0.592530 0.092560 0.616040 -0.535856
C1    C     C_R   0.125100 0.382156 0.497913 0.921095
C2    C     C_R   0.126391 0.616844 0.500210 0.953046
C3    C     C_R   0.625102 0.882157 0.497914 0.921141
C4    C     C_R   0.626384 0.116851 0.500211 0.953087
O9    O     O_R   0.907330 0.407420 0.616040 -0.646346
O10   O     O_R   0.907330 0.407420 0.383960 -0.644486
O11   O     O_R   0.907330 0.592580 0.383960 -0.645280
O12   O     O_R   0.907330 0.592580 0.616040 -0.592024
O13   O     O_R   0.407330 0.907420 0.616040 -0.646347
O14   O     O_R   0.407330 0.907420 0.383960 -0.644487
O15   O     O_R   0.407330 0.092580 0.383960 -0.645288
O16   O     O_R   0.407330 0.092580 0.616040 -0.592026
C5    C     C_R   0.876466 0.382150 0.500005 0.841520
C6    C     C_R   0.875363 0.617250 0.502360 0.856095
C7    C     C_R   0.376462 0.882153 0.500005 0.841522
C8    C     C_R   0.375364 0.117251 0.502360 0.856081
Zn1   Zn    Zn3+2 0.999890 0.500000 0.654960 1.020213
Zn2   Zn    Zn3+2 0.999890 0.500000 0.345040 1.014799
Zn3   Zn    Zn3+2 0.499890 0.000000 0.654960 1.020217
Zn4   Zn    Zn3+2 0.499890 0.000000 0.345040 1.014805
C9    C     C_3   0.813574 0.270370 0.636071 -0.441637
C10   C     C_3   0.836169 0.250336 0.383106 -0.434728
C11   C     C_3   0.817692 0.728991 0.367987 -0.414738
C12   C     C_3   0.827164 0.748812 0.620335 -0.351640
C13   C     C_3   0.313581 0.770366 0.636063 -0.441621
C14   C     C_3   0.336154 0.750348 0.383086 -0.434717
C15   C     C_3   0.317687 0.228988 0.367982 -0.414737
C16   C     C_3   0.327167 0.248816 0.620331 -0.351643
H1    H     H_    0.783086 0.312462 0.717405 0.188073
H2    H     H_    0.842551 0.281991 0.286046 0.183231
H3    H     H_    0.793500 0.686039 0.285718 0.175859
H4    H     H_    0.823691 0.717183 0.717446 0.207890
H5    H     H_    0.283091 0.812452 0.717405 0.188063
H6    H     H_    0.342527 0.782012 0.286031 0.183225
H7    H     H_    0.293487 0.186035 0.285720 0.175851
H8    H     H_    0.323695 0.217190 0.717443 0.207882
H9    H     H_    0.886176 0.259610 0.663575 0.206513
H10   H     H_    0.904612 0.222497 0.399640 0.218898
H11   H     H_    0.891560 0.741766 0.343080 0.231218
H12   H     H_    0.897994 0.773343 0.603984 0.247373
H13   H     H_    0.386186 0.759614 0.663565 0.206520
H14   H     H_    0.404596 0.722503 0.399596 0.218912
H15   H     H_    0.391553 0.241759 0.343061 0.231218
H16   H     H_    0.397998 0.273345 0.603977 0.247378
C17   C     C_3   0.260292 0.688339 0.630126 0.175624
C18   C     C_3   0.261138 0.683647 0.369357 0.175733
C19   C     C_3   0.261788 0.309054 0.370314 0.149959
C20   C     C_3   0.255508 0.319594 0.628831 0.152258
C21   C     C_3   0.760274 0.188347 0.630141 0.175601
C22   C     C_3   0.761158 0.183629 0.369378 0.175772
C23   C     C_3   0.761789 0.809054 0.370317 0.149962
C24   C     C_3   0.755505 0.819589 0.628838 0.152248
H17   H     H_    0.213010 0.690417 0.718759 0.209192
H18   H     H_    0.218394 0.702188 0.286428 0.202263
H19   H     H_    0.215661 0.302414 0.286242 0.176468
H20   H     H_    0.208872 0.309168 0.717265 0.124540
H21   H     H_    0.712983 0.190436 0.718765 0.209197
H22   H     H_    0.718433 0.202148 0.286414 0.202254
H23   H     H_    0.715661 0.802409 0.286246 0.176474
H24   H     H_    0.708866 0.809160 0.717269 0.124542
H25   H     H_    0.693403 0.395065 0.559618 0.195155
H26   H     H_    0.703423 0.369146 0.383172 0.210483
H27   H     H_    0.693525 0.605246 0.441831 0.195486
H28   H     H_    0.696243 0.627689 0.619121 0.196126
H29   H     H_    0.193400 0.895062 0.559657 0.195162
H30   H     H_    0.203401 0.869153 0.383206 0.210484
H31   H     H_    0.193525 0.105244 0.441848 0.195486
H32   H     H_    0.196249 0.127694 0.619134 0.196123
H33   H     H_    0.105519 0.778510 0.600651 0.244226
H34   H     H_    0.092689 0.769175 0.424058 0.242144
H35   H     H_    0.102587 0.219959 0.411869 0.204328
H36   H     H_    0.091089 0.231973 0.590217 0.206332
H37   H     H_    0.605509 0.278522 0.600604 0.244202
H38   H     H_    0.592705 0.269174 0.424007 0.242174
H39   H     H_    0.602585 0.719962 0.411865 0.204329
H40   H     H_    0.591088 0.731972 0.590212 0.206344
C25   C     C_3   0.710896 0.343906 0.484385 -0.408512
C26   C     C_3   0.707877 0.655017 0.519341 -0.399390
C27   C     C_3   0.210887 0.843908 0.484413 -0.408558
C28   C     C_3   0.207879 0.155018 0.519350 -0.399403
C29   C     C_3   0.810380 0.313221 0.500213 0.052314
C30   C     C_3   0.807923 0.685881 0.503946 0.002543
C31   C     C_3   0.310376 0.813224 0.500212 0.052335
C32   C     C_3   0.307924 0.185882 0.503946 0.002568
C33   C     C_3   0.198654 0.684504 0.501002 -0.140351
C34   C     C_3   0.196682 0.314603 0.499060 -0.123526
C35   C     C_3   0.698651 0.184507 0.501003 -0.140353
C36   C     C_3   0.696683 0.814603 0.499062 -0.123540
C37   C     C_3   0.144391 0.769292 0.503440 -0.459530
C38   C     C_3   0.142130 0.230030 0.504630 -0.479711
C39   C     C_3   0.644394 0.269295 0.503405 -0.459539
C40   C     C_3   0.642129 0.730031 0.504626 -0.479697
C41   C     C_3   0.064805 0.438885 0.067634 0.168542
C42   C     C_3   0.078415 0.453358 0.913394 0.124514
C43   C     C_3   0.989944 0.587352 0.928981 0.208771
C44   C     C_3   0.005294 0.586512 0.085884 0.164791
C45   C     C_3   0.564797 0.938878 0.067631 0.168548
C46   C     C_3   0.578414 0.953357 0.913395 0.124513
C47   C     C_3   0.489948 0.087353 0.928981 0.208777
C48   C     C_3   0.505303 0.086512 0.085884 0.164800
H41   H     H_    0.034233 0.374739 0.073524 0.079287
H42   H     H_    0.080093 0.390310 0.862124 0.095211
H43   H     H_    0.915717 0.605351 0.925157 0.076435
H44   H     H_    0.945783 0.622128 0.132866 0.103196
H45   H     H_    0.534214 0.874736 0.073510 0.079292
H46   H     H_    0.580095 0.890310 0.862119 0.095224
H47   H     H_    0.415722 0.105354 0.925162 0.076433
H48   H     H_    0.445795 0.122131 0.132868 0.103195
H49   H     H_    0.889034 0.408115 0.126514 0.212923
H50   H     H_    0.917026 0.388679 0.891517 0.195797
H51   H     H_    0.851545 0.480478 0.876941 0.202877
H52   H     H_    0.851189 0.511501 0.113308 0.184621
H53   H     H_    0.389023 0.908126 0.126517 0.212924
H54   H     H_    0.417020 0.888683 0.891520 0.195795
H55   H     H_    0.351544 0.980485 0.876939 0.202879
H56   H     H_    0.351190 0.011515 0.113306 0.184619
C49   C     C_3   0.908945 0.468553 0.082644 -0.455060
C50   C     C_3   0.915346 0.456607 0.920433 -0.444014
C51   C     C_3   0.408941 0.968561 0.082645 -0.455068
C52   C     C_3   0.415343 0.956612 0.920433 -0.444014
N1    N     N_3   0.998760 0.500000 0.138610 -0.158357
N2    N     N_3   0.998760 0.500000 0.861390 -0.157380
N3    N     N_3   0.498760 0.000000 0.138610 -0.158360
N4    N     N_3   0.498760 1.000000 0.861390 -0.157382
N5    N     N_R   0.327466 0.620750 0.645507 0.282476
O17   O     O_R   0.396057 0.610542 0.559681 -0.335922
O18   O     O_R   0.341884 0.598188 0.766648 -0.225297
N6    N     N_R   0.302555 0.603386 0.328285 0.279932
O19   O     O_R   0.353078 0.596512 0.218495 -0.257880
O20   O     O_R   0.286919 0.537758 0.396822 -0.261151
N7    N     N_R   0.326555 0.378688 0.349117 0.278489
O21   O     O_R   0.393077 0.391986 0.431065 -0.319743
O22   O     O_R   0.342354 0.401354 0.227119 -0.192722
N8    N     N_R   0.300919 0.400189 0.653515 0.285632
O23   O     O_R   0.374816 0.405480 0.723587 -0.242688
O24   O     O_R   0.261015 0.468552 0.622620 -0.288789
N9    N     N_R   0.827436 0.120751 0.645547 0.282464
O25   O     O_R   0.896010 0.110504 0.559701 -0.335851
O26   O     O_R   0.841867 0.098223 0.766703 -0.225344
N10   N     N_R   0.802588 0.103359 0.328381 0.280010
O27   O     O_R   0.853231 0.096476 0.218701 -0.257972
O28   O     O_R   0.786805 0.037721 0.396849 -0.261282
N11   N     N_R   0.826550 0.878689 0.349110 0.278500
O29   O     O_R   0.893064 0.892004 0.431069 -0.319716
O30   O     O_R   0.842356 0.901342 0.227106 -0.192723
N12   N     N_R   0.800919 0.900181 0.653536 0.285616
O31   O     O_R   0.874800 0.905464 0.723645 -0.242704
O32   O     O_R   0.761012 0.968547 0.622677 -0.288723
N13   N     N_R   0.151092 0.427102 0.130480 0.243993
O33   O     O_R   0.185877 0.483842 0.208977 -0.229369
O34   O     O_R   0.199284 0.361638 0.091340 -0.399701
N14   N     N_R   0.167864 0.491569 0.882053 0.273453
O35   O     O_R   0.173988 0.560322 0.820531 -0.288627
O36   O     O_R   0.243992 0.453431 0.905189 -0.211155
N15   N     N_R   0.033984 0.657207 0.857237 0.263926
O37   O     O_R   0.101821 0.700152 0.905912 -0.306578
O38   O     O_R   0.985875 0.695705 0.772122 -0.419760
N16   N     N_R   0.085748 0.633331 0.130460 0.256431
O39   O     O_R   0.168234 0.613685 0.086566 -0.263656
O40   O     O_R   0.072161 0.707539 0.185795 -0.414670
N17   N     N_R   0.651077 0.927077 0.130481 0.243946
O41   O     O_R   0.685892 0.983832 0.208922 -0.229315
O42   O     O_R   0.699261 0.861608 0.091324 -0.399736
N18   N     N_R   0.667863 0.991572 0.882067 0.273458
O43   O     O_R   0.673986 0.060320 0.820535 -0.288619
O44   O     O_R   0.743992 0.953445 0.905228 -0.211090
N19   N     N_R   0.533988 0.157208 0.857236 0.263917
O45   O     O_R   0.601817 0.200159 0.905919 -0.306592
O46   O     O_R   0.485880 0.195701 0.772115 -0.419764
N20   N     N_R   0.585761 0.133327 0.130459 0.256438
O47   O     O_R   0.668245 0.113683 0.086559 -0.263691
O48   O     O_R   0.572177 0.207534 0.185800 -0.414677

loop_
_geom_bond_atom_site_label_1
_geom_bond_atom_site_label_2
_geom_bond_distance
_ccdc_geom_bond_type
C3    C36   1.503025 S    
N16   O40   1.302323 A    
O14   Zn4   2.041394 S    
C41   C42   1.574438 S    
N5    O17   1.300717 A    
C27   C31   1.544563 S    
N17   O42   1.301385 A    
N17   O41   1.289995 A    
H35   C38   1.113524 S    
N15   O37   1.298664 A    
C14   H6    1.113697 S    
C15   H7    1.116095 S    
C9    C29   1.548028 S    
N20   O47   1.299042 A    
N19   O46   1.294822 A    
C5    C29   1.462487 S    
C46   N4    1.498242 S    
O13   C7    1.306482 A    
C45   N17   1.438499 S    
C46   H46   1.113081 S    
C16   C20   1.538691 S    
O10   C5    1.309208 A    
C45   H45   1.121228 S    
N15   O38   1.294827 A    
N10   O28   1.292924 A    
H53   C51   1.112158 S    
C21   N9    1.475012 S    
C13   C31   1.548029 S    
C22   N10   1.457816 S    
C34   C38   1.570166 S    
C35   C39   1.569879 S    
C41   H41   1.121227 S    
C52   N4    1.512477 S    
C19   N7    1.475817 S    
C10   H2    1.113692 S    
C43   H43   1.120603 S    
H38   C39   1.111355 S    
C11   C23   1.517727 S    
C14   C31   1.549633 S    
H29   C27   1.113149 S    
C18   C33   1.574350 S    
C23   H23   1.094577 S    
O5    Zn3   2.021841 S    
C17   H17   1.103227 S    
C22   H22   1.103018 S    
O11   C6    1.303756 A    
O6    Zn4   2.061558 S    
O16   C8    1.317334 A    
C48   N3    1.502996 S    
C19   H19   1.094579 S    
C47   C48   1.592239 S    
C20   H20   1.114451 S    
C4    C35   1.508342 S    
H33   C37   1.112913 S    
H30   C27   1.113146 S    
C26   C40   1.550862 S    
H32   C28   1.112988 S    
N12   O32   1.292431 A    
C16   H16   1.111861 S    
C20   N8    1.464235 S    
C15   C32   1.551168 S    
C16   C32   1.540369 S    
N11   O30   1.299544 A    
N11   O29   1.300491 A    
C41   N13   1.438514 S    
N13   O34   1.301353 A    
C11   H11   1.115877 S    
O1    Zn1   2.021841 S    
Zn3   N4    2.063167 S    
C12   H12   1.111866 S    
O9    Zn1   2.035552 S    
C19   C34   1.572464 S    
Zn1   N2    2.063167 S    
C8    C32   1.473266 S    
N9    O26   1.301248 A    
N18   O44   1.297527 A    
N9    O25   1.300723 A    
C24   N12   1.464230 S    
C13   C17   1.523858 S    
O7    C4    1.321067 A    
C12   C30   1.540363 S    
C14   H14   1.111728 S    
C17   C33   1.595139 S    
O14   C7    1.309206 A    
H40   C40   1.113871 S    
O1    C1    1.306897 A    
C28   C32   1.541659 S    
C17   N5    1.475010 S    
N10   O27   1.301791 A    
C45   N3    1.511815 S    
C26   C30   1.541665 S    
C42   N14   1.467272 S    
O6    C3    1.326452 A    
C44   H44   1.117368 S    
C25   C29   1.544553 S    
H52   C49   1.113768 S    
C47   N4    1.531673 S    
O11   Zn2   2.021301 S    
C10   C22   1.531315 S    
C18   H18   1.103015 S    
C2    C33   1.508343 S    
C15   C19   1.517736 S    
O7    Zn4   2.036100 S    
N13   O33   1.289988 A    
C9    H9    1.115824 S    
O13   Zn3   2.035552 S    
O2    C1    1.326445 A    
C20   C34   1.577006 S    
C22   C35   1.574364 S    
C25   C39   1.549650 S    
H27   C26   1.113055 S    
N20   O48   1.302320 A    
N19   O45   1.298655 A    
O8    C4    1.316336 A    
C11   C30   1.551161 S    
C18   N6    1.457795 S    
H34   C37   1.111360 S    
C6    C30   1.473264 S    
C48   N20   1.461459 S    
O2    Zn2   2.061558 S    
O10   Zn2   2.041394 S    
O15   Zn4   2.021301 S    
C47   H47   1.120603 S    
N12   O31   1.303470 A    
Zn2   N1    2.064252 S    
H56   C51   1.113765 S    
C24   C36   1.577019 S    
N6    O20   1.292828 A    
C9    C21   1.523867 S    
C14   C18   1.531291 S    
H39   C40   1.113526 S    
C15   H15   1.115875 S    
N16   O39   1.299042 A    
C7    C31   1.462492 S    
C16   H8    1.112448 S    
C23   C36   1.572462 S    
C12   C24   1.538678 S    
O4    C2    1.316347 A    
C51   C52   1.624780 S    
C33   C37   1.569904 S    
H25   C25   1.113151 S    
N18   O43   1.283551 A    
H49   C49   1.112160 S    
O12   Zn1   2.061018 S    
O12   C6    1.317334 A    
H36   C38   1.113871 S    
C46   N18   1.467277 S    
C10   H10   1.111733 S    
O3    Zn2   2.036100 S    
C42   N2    1.498242 S    
C21   H21   1.103234 S    
N6    O19   1.301756 A    
H28   C26   1.112991 S    
N7    O21   1.300488 A    
O5    C3    1.306895 A    
O16   Zn3   2.061018 S    
C23   N11   1.475802 S    
H37   C39   1.112913 S    
C45   C46   1.574431 S    
C43   N15   1.485686 S    
C44   N1    1.502992 S    
Zn4   N3    2.064252 S    
C13   H5    1.115633 S    
N14   O35   1.283572 A    
C48   H48   1.117367 S    
C10   C29   1.549611 S    
O4    Zn1   2.041921 S    
O3    C2    1.321072 A    
O9    C5    1.306476 A    
N7    O22   1.299537 A    
H55   C52   1.112694 S    
C49   C50   1.624773 S    
C47   N19   1.485683 S    
C36   C40   1.570168 S    
C11   H3    1.116098 S    
O15   C8    1.303755 A    
N8    O24   1.292476 A    
C12   H4    1.112452 S    
H54   C52   1.113662 S    
C43   N2    1.531664 S    
C51   N3    1.516039 S    
C42   H42   1.113084 S    
C44   N16   1.461443 S    
H51   C50   1.112694 S    
C49   N1    1.516037 S    
H31   C28   1.113051 S    
C24   H24   1.114455 S    
C21   C35   1.595122 S    
C9    H1    1.115624 S    
C43   C44   1.592235 S    
N5    O18   1.301231 A    
O8    Zn3   2.041921 S    
C50   N2    1.512476 S    
N8    O23   1.303458 A    
H50   C50   1.113662 S    
H26   C25   1.113144 S    
C13   H13   1.115829 S    
C1    C34   1.503022 S    
C28   C38   1.550858 S    
N14   O36   1.297533 A    
C27   C37   1.549676 S    
C41   N1    1.511809 S    
