data_mof_unit_45125.cif
_audit_creation_date              2012-12-10T17:36:37-0500
_audit_creation_method            fapswitch 2.2
_symmetry_space_group_name_H-M    P1
_symmetry_Int_Tables_number       1
_space_group_crystal_system       triclinic
_cell_length_a                    12.074932
_cell_length_b                    12.803999
_cell_length_c                    15.72327
_cell_angle_alpha                 92.360311
_cell_angle_beta                  85.968268
_cell_angle_gamma                 94.113136
_cell_volume                      2417.07639552

loop_
_atom_site_label
_atom_site_type_symbol
_atom_type_description
_atom_site_fract_x
_atom_site_fract_y
_atom_site_fract_z
_atom_type_partial_charge
C1    C     C_R   0.521789 0.698152 0.485725 0.897144
C2    C     C_R   0.551807 0.022811 0.484628 -0.084723
C3    C     C_R   0.956060 0.431932 0.401005 -0.098118
C4    C     C_R   0.045582 0.570548 0.600169 -0.148301
C5    C     C_R   0.839771 0.428692 0.415657 -0.009626
C6    C     C_R   0.161713 0.576736 0.582115 0.003934
C7    C     C_R   0.856523 0.532159 0.543848 0.562535
C8    C     C_R   0.141236 0.458295 0.462418 0.557747
C9    C     C_R   0.975100 0.526587 0.537380 -0.140520
C10   C     C_R   0.025114 0.474147 0.465005 -0.087735
C11   C     C_R   0.499914 0.500484 0.661835 0.892553
C12   C     C_R   0.477696 0.299295 0.507687 0.871980
C13   C     C_R   0.500138 0.499913 0.338177 0.864305
C14   C     C_3   0.493640 0.600272 0.031393 -0.162635
C15   C     C_3   0.505216 0.401756 0.968871 -0.160994
C16   C     C_3   0.587184 0.560328 0.969145 0.486079
C17   C     C_3   0.411703 0.441721 0.031106 0.481576
C18   C     C_1   0.499546 0.500676 0.750557 -0.144044
C19   C     C_1   0.500360 0.500390 0.249523 -0.165693
C20   C     C_3   0.405137 0.539992 0.978818 -0.145323
C21   C     C_3   0.593748 0.462031 0.021396 -0.145103
C22   C     C_3   0.498884 0.500247 0.916533 -0.043338
C23   C     C_R   0.647806 0.969308 0.456859 0.435166
C24   C     C_3   0.500019 0.501761 0.083690 -0.041109
C25   C     C_1   0.499260 0.500625 0.825732 0.047878
C26   C     C_1   0.500150 0.500998 0.174417 0.039847
C27   C     C_R   0.464037 0.185421 0.516013 -0.238682
C28   C     C_R   0.533698 0.807603 0.461508 -0.249611
C29   C     C_3   0.738093 0.678629 0.989602 0.088665
C30   C     C_3   0.855970 0.705266 0.952586 -0.746694
C31   C     C_3   0.260460 0.323780 0.010489 0.086369
C32   C     C_3   0.141417 0.300416 0.046366 -0.755150
C33   C     C_1   0.484769 0.706752 0.068477 0.183379
C34   C     C_R   0.348073 0.023695 0.505902 0.430591
C35   C     C_1   0.513731 0.295114 0.932058 0.183465
C36   C     C_1   0.696147 0.420166 0.046825 0.228543
C37   C     C_1   0.302717 0.581804 0.953393 0.225054
C38   C     C_1   0.662941 0.173593 0.544932 0.328296
C39   C     C_1   0.336756 0.811352 0.427299 0.333196
C40   C     C_1   0.258708 0.183382 0.550996 0.322337
C41   C     C_1   0.731993 0.807171 0.407778 0.220789
C42   C     C_3   0.762329 0.061176 0.361392 0.096885
C43   C     C_3   0.877168 0.117037 0.346691 -0.769143
C44   C     C_3   0.223663 0.934187 0.596384 0.104466
C45   C     C_R   0.638162 0.860695 0.445777 -0.112650
C46   C     C_3   0.109219 0.876082 0.604327 -0.797716
C47   C     C_3   0.228729 0.348238 0.358845 0.166724
C48   C     C_3   0.193031 0.243203 0.316108 -0.828374
C49   C     C_3   0.812709 0.693310 0.598662 0.114275
C50   C     C_3   0.735603 0.748093 0.664036 -0.736916
C51   C     C_1   0.232922 0.638245 0.638040 0.264112
C52   C     C_1   0.770216 0.370563 0.356553 0.279639
C53   C     C_1   0.999869 0.411340 0.314368 0.167145
C54   C     C_1   0.003005 0.600462 0.685646 0.253652
C55   C     C_R   0.357852 0.131803 0.521253 -0.157603
C56   C     C_R   0.437700 0.863022 0.459085 -0.085457
C57   C     C_R   0.559848 0.127988 0.512082 -0.084849
C58   C     C_R   0.444530 0.970023 0.481055 -0.069707
H1    H     H_    0.743621 0.637362 0.050051 0.134686
H2    H     H_    0.140715 0.257592 0.106416 0.256248
H3    H     H_    0.698739 0.118309 0.353951 0.153381
H4    H     H_    0.753383 0.996843 0.311923 0.143811
H5    H     H_    0.942353 0.060864 0.350892 0.265585
H6    H     H_    0.885899 0.150848 0.282453 0.207838
H7    H     H_    0.889172 0.181206 0.395582 0.263475
H8    H     H_    0.225449 0.999840 0.645090 0.137021
H9    H     H_    0.286808 0.878982 0.609908 0.152329
H10   H     H_    0.104882 0.809581 0.556790 0.251077
H11   H     H_    0.093107 0.845121 0.669304 0.206668
H12   H     H_    0.697660 0.753114 0.004174 0.159860
H13   H     H_    0.044086 0.929974 0.593062 0.267983
H14   H     H_    0.317871 0.342550 0.366750 0.192324
H15   H     H_    0.219198 0.414199 0.316642 0.144272
H16   H     H_    0.229926 0.239220 0.249447 0.231226
H17   H     H_    0.222604 0.178224 0.351350 0.255659
H18   H     H_    0.101306 0.231558 0.315892 0.267020
H19   H     H_    0.790257 0.710393 0.534415 0.163676
H20   H     H_    0.898699 0.727873 0.604992 0.122843
H21   H     H_    0.741274 0.833504 0.653074 0.200490
H22   H     H_    0.648205 0.716730 0.658356 0.253011
H23   H     H_    0.854028 0.748711 0.893056 0.256576
H24   H     H_    0.759847 0.735498 0.729486 0.265835
H25   H     H_    0.902892 0.754899 0.999317 0.204910
H26   H     H_    0.899143 0.632225 0.938163 0.270542
H27   H     H_    0.299180 0.248157 0.997350 0.161594
H28   H     H_    0.257278 0.364057 0.949274 0.134578
H29   H     H_    0.100207 0.374753 0.059535 0.271575
H30   H     H_    0.094209 0.251320 0.999480 0.206838
N1    N     N_R   0.207800 0.519340 0.515560 -0.158301
N2    N     N_1   0.806902 0.764907 0.376359 -0.219009
N3    N     N_1   0.289013 0.687960 0.683352 -0.223408
N4    N     N_1   0.715670 0.323434 0.308666 -0.224340
N5    N     N_1   0.031737 0.396502 0.244038 -0.204883
N6    N     N_1   0.969724 0.624102 0.754037 -0.184426
N7    N     N_R   0.792200 0.480660 0.484440 -0.160136
N8    N     N_1   0.477701 0.790583 0.097790 -0.204044
N9    N     N_1   0.520509 0.211139 0.902982 -0.203167
N10   N     N_1   0.776810 0.387290 0.066923 -0.190909
N11   N     N_1   0.222026 0.614637 0.933307 -0.193160
N12   N     N_1   0.744830 0.209888 0.571240 -0.171857
N13   N     N_1   0.256692 0.769983 0.401737 -0.195583
N14   N     N_1   0.179166 0.223254 0.576100 -0.141570
O1    O     O_R   0.421700 0.658830 0.504150 -0.620819
O2    O     O_3   0.319932 0.384295 0.071500 -0.603625
O3    O     O_3   0.751910 0.021290 0.444148 -0.610749
O4    O     O_3   0.243200 0.971900 0.513103 -0.610812
O5    O     O_3   0.171115 0.357383 0.439772 -0.608636
O6    O     O_3   0.803518 0.584406 0.612104 -0.579591
O7    O     O_R   0.578300 0.341170 0.495850 -0.618809
O8    O     O_R   0.609310 0.646410 0.494170 -0.620177
O9    O     O_R   0.390690 0.353590 0.505830 -0.602191
O10   O     O_R   0.406210 0.506220 0.628210 -0.618186
O11   O     O_R   0.593790 0.493780 0.371790 -0.609604
O12   O     O_R   0.593830 0.493800 0.618230 -0.550733
O13   O     O_R   0.406170 0.506200 0.381770 -0.656166
O14   O     O_3   0.678864 0.617779 0.928669 -0.592001
Zn1   Zn    Zn3+2 0.374730 0.508290 0.506660 0.970117
Zn2   Zn    Zn3+2 0.625270 0.491710 0.493340 0.995333

loop_
_geom_bond_atom_site_label_1
_geom_bond_atom_site_label_2
_ccdc_geom_bond_type
C8    O5    S    
C11   C18   S    
C16   C21   S    
C23   C45   A    
C48   H18   S    
C44   H8    S    
C50   H21   S    
O8    Zn2   S    
C14   C33   S    
C28   C56   A    
C2    C57   A    
C43   H5    S    
C21   C36   S    
C31   H27   S    
C17   O2    S    
C24   C26   S    
O10   Zn1   S    
C27   C55   A    
C32   H30   S    
C17   C20   S    
C49   H20   S    
C15   C17   S    
C14   C24   S    
C30   H25   S    
C11   O12   A    
C19   C26   T    
C46   H11   S    
C51   N3    T    
C15   C22   S    
C39   C56   S    
C49   H19   S    
O13   Zn1   S    
C22   C25   S    
C43   H6    S    
C1    C28   S    
C5    C52   S    
C6    C51   S    
C9    C10   A    
C1    O1    A    
C41   N2    T    
C34   C55   A    
C31   H28   S    
C48   H17   S    
O1    Zn1   S    
C18   C25   T    
C16   O14   S    
C15   C35   S    
C12   O7    A    
C5    N7    A    
C44   C46   S    
O7    Zn2   S    
C39   N13   T    
C49   O6    S    
N7    Zn2   S    
C28   C45   A    
C17   C24   S    
C13   C19   S    
C12   C27   S    
C53   N5    T    
C34   O4    S    
C14   C20   S    
C47   H15   S    
C4    C6    A    
C27   C57   A    
C32   H29   S    
C46   H10   S    
C29   C30   S    
C48   H16   S    
C1    O8    A    
C38   C57   S    
C47   C48   S    
C43   H7    S    
C40   C55   S    
O12   Zn2   S    
C42   H3    S    
C46   H13   S    
C13   O13   A    
C38   N12   T    
C29   O14   S    
C20   C22   S    
C47   O5    S    
C14   C16   S    
C52   N4    T    
C42   C43   S    
C32   H2    S    
C33   N8    T    
C37   N11   T    
C50   H24   S    
C29   H12   S    
C7    C9    A    
C42   H4    S    
C16   C22   S    
C4    C54   S    
C11   O10   A    
C31   C32   S    
N1    Zn1   S    
C3    C5    A    
C50   H22   S    
C2    C58   A    
C44   O4    S    
C6    N1    A    
C7    N7    A    
O9    Zn1   S    
C31   O2    S    
C30   H23   S    
C3    C10   A    
C41   C45   S    
C20   C37   S    
C3    C53   S    
C56   C58   A    
C30   H26   S    
C42   O3    S    
C47   H14   S    
C54   N6    T    
C40   N14   T    
O11   Zn2   S    
C15   C21   S    
C8    C10   A    
C49   C50   S    
C21   C24   S    
C2    C23   A    
C34   C58   A    
C29   H1    S    
C7    O6    S    
C44   H9    S    
C36   N10   T    
C8    N1    A    
C4    C9    A    
C35   N9    T    
C12   O9    A    
C13   O11   A    
C23   O3    S    
