data_mof_unit_56594.cif
_audit_creation_date              2013-03-05T15:49:12-0500
_audit_creation_method            fapswitch 2.2
_symmetry_space_group_name_H-M    P1
_symmetry_Int_Tables_number       1
_space_group_crystal_system       triclinic
_cell_length_a                    17.644305
_cell_length_b                    24.662153
_cell_length_c                    15.01467
_cell_angle_alpha                 90.009191
_cell_angle_beta                  126.57561
_cell_angle_gamma                 89.986552
_cell_volume                      5246.93130923

loop_
_atom_site_label
_atom_site_type_symbol
_atom_site_description
_atom_site_fract_x
_atom_site_fract_y
_atom_site_fract_z
_atom_type_partial_charge
C1    C     C_R   0.353472 0.152345 0.909244 0.755315
C2    C     C_R   0.353479 0.847728 0.909022 0.757235
C3    C     C_R   0.853202 0.652223 0.909022 0.757148
C4    C     C_R   0.853421 0.347670 0.909252 0.755345
N1    N     N_R   0.392450 0.103580 0.942190 -0.152473
N2    N     N_R   0.392450 0.896420 0.942190 -0.152862
N3    N     N_R   0.892450 0.603580 0.942190 -0.153099
N4    N     N_R   0.892450 0.396420 0.942190 -0.152551
C5    C     C_R   0.455763 0.845715 0.091490 0.287056
C6    C     C_R   0.456097 0.154343 0.091695 0.291732
C7    C     C_R   0.956014 0.345685 0.091723 0.291606
C8    C     C_R   0.955355 0.654208 0.091571 0.287621
N5    N     N_R   0.450490 0.896000 0.057360 -0.138670
N6    N     N_R   0.450490 0.104000 0.057360 -0.136467
N7    N     N_R   0.950490 0.396000 0.057360 -0.136618
N8    N     N_R   0.950490 0.604000 0.057360 -0.138955
C9    C     C_R   0.479580 0.045673 0.246823 -0.055589
C10   C     C_R   0.478323 0.954450 0.245069 -0.065340
C11   C     C_R   0.978340 0.545587 0.245051 -0.065302
C12   C     C_R   0.979416 0.454365 0.246626 -0.055681
H1    H     H_    0.474164 0.087807 0.261685 0.178217
H2    H     H_    0.469098 0.912168 0.255057 0.156189
H3    H     H_    0.969245 0.587873 0.255169 0.157141
H4    H     H_    0.973684 0.412232 0.261204 0.177744
N9    N     N_R   0.525490 0.028390 0.207550 -0.055976
N10   N     N_R   0.525490 0.971610 0.207550 -0.052231
N11   N     N_R   0.025490 0.528390 0.207550 -0.052057
N12   N     N_R   0.025490 0.471610 0.207550 -0.055776
C13   C     C_R   0.230916 0.954319 0.751995 -0.052049
C14   C     C_R   0.230909 0.045691 0.751999 -0.055742
C15   C     C_R   0.730947 0.454322 0.752128 -0.055777
C16   C     C_R   0.730931 0.545687 0.752101 -0.052774
H5    H     H_    0.207458 0.912676 0.736288 0.184300
H6    H     H_    0.207427 0.087332 0.736274 0.184492
H7    H     H_    0.707473 0.412684 0.736402 0.184511
H8    H     H_    0.707438 0.587329 0.736350 0.184586
N13   N     N_R   0.317450 0.971190 0.792000 -0.061544
N14   N     N_R   0.317450 0.028810 0.792000 -0.063566
N15   N     N_R   0.817450 0.471190 0.792000 -0.063397
N16   N     N_R   0.817450 0.528810 0.792000 -0.061348
C17   C     C_R   0.388706 0.184279 0.002054 -0.034542
C18   C     C_R   0.388498 0.815826 0.001672 -0.037429
C19   C     C_R   0.887978 0.684084 0.001695 -0.038965
C20   C     C_R   0.888591 0.315755 0.002073 -0.034658
C21   C     C_R   0.451218 0.000045 0.274680 0.058899
C22   C     C_R   0.951223 0.500022 0.274645 0.059214
C23   C     C_R   0.176506 0.000010 0.728340 0.018612
C24   C     C_R   0.676547 0.500006 0.728520 0.018744
C25   C     C_R   0.443274 0.044012 0.690893 0.773839
C26   C     C_R   0.443774 0.954536 0.692546 0.774173
C27   C     C_R   0.944052 0.545493 0.692701 0.771608
C28   C     C_R   0.943397 0.456001 0.690932 0.773902
N17   N     N_R   0.473900 0.028390 0.792280 -0.177547
N18   N     N_R   0.473900 0.971610 0.792280 -0.176521
N19   N     N_R   0.973900 0.528390 0.792280 -0.176631
N20   N     N_R   0.973900 0.471610 0.792280 -0.177489
C29   C     C_R   0.756702 0.955107 0.309030 0.462490
C30   C     C_R   0.756610 0.044904 0.309047 0.463171
C31   C     C_R   0.256761 0.455105 0.308938 0.463669
C32   C     C_R   0.256887 0.544931 0.308853 0.459696
N21   N     N_R   0.682310 0.971180 0.208170 -0.127123
N22   N     N_R   0.682310 0.028820 0.208170 -0.127304
N23   N     N_R   0.182310 0.471180 0.208170 -0.127253
N24   N     N_R   0.182310 0.528820 0.208170 -0.127436
C33   C     C_R   0.688163 0.125594 0.094334 0.695935
C34   C     C_R   0.687975 0.874131 0.094413 0.691995
C35   C     C_R   0.187432 0.626641 0.094632 0.694879
C36   C     C_R   0.188133 0.374363 0.094338 0.695899
N25   N     N_R   0.606470 0.103570 0.057210 -0.158203
N26   N     N_R   0.606470 0.896430 0.057210 -0.157666
N27   N     N_R   0.106470 0.603570 0.057210 -0.158518
N28   N     N_R   0.106470 0.396430 0.057210 -0.158221
C37   C     C_R   0.598225 0.873854 0.910611 0.739192
C38   C     C_R   0.598115 0.126222 0.910528 0.739303
C39   C     C_R   0.098091 0.373747 0.910513 0.739120
C40   C     C_R   0.097776 0.626834 0.910641 0.742721
N29   N     N_R   0.549740 0.896000 0.943240 -0.172663
N30   N     N_R   0.549740 0.104000 0.943240 -0.174325
N31   N     N_R   0.049740 0.396000 0.943240 -0.174330
N32   N     N_R   0.049740 0.604000 0.943240 -0.173249
Ni1   Ni    Ni4+2 0.433780 0.065390 0.868430 0.321479
Ni2   Ni    Ni4+2 0.433780 0.934610 0.868430 0.323187
Ni3   Ni    Ni4+2 0.933780 0.565390 0.868430 0.323196
Ni4   Ni    Ni4+2 0.933780 0.434610 0.868430 0.321583
Ni5   Ni    Ni4+2 0.565800 0.934190 0.131570 0.290405
Ni6   Ni    Ni4+2 0.565800 0.065810 0.131570 0.290204
Ni7   Ni    Ni4+2 0.065800 0.434190 0.131570 0.290363
Ni8   Ni    Ni4+2 0.065800 0.565810 0.131570 0.290617
C41   C     C_R   0.426319 0.998791 0.627466 -0.440819
C42   C     C_R   0.926707 0.501235 0.627663 -0.440130
C43   C     C_R   0.806034 0.000017 0.367807 -0.294488
C44   C     C_R   0.306356 0.500004 0.367466 -0.293957
C45   C     C_R   0.684913 0.142964 0.004308 -0.257048
C46   C     C_R   0.684769 0.856837 0.004403 -0.256055
C47   C     C_R   0.184015 0.644153 0.004592 -0.261286
C48   C     C_R   0.184886 0.357002 0.004299 -0.257420
C49   C     C_3   0.004693 0.955283 0.620476 -0.110689
C50   C     C_3   0.004584 0.044647 0.620758 -0.110681
C51   C     C_3   0.504676 0.455308 0.620504 -0.110640
C52   C     C_3   0.504641 0.544673 0.620498 -0.110415
C53   C     C_3   0.931393 0.999909 0.592858 -0.055733
C54   C     C_3   0.431361 0.499988 0.592560 -0.055836
H9    H     H_    0.883036 0.999815 0.617147 0.172939
H10   H     H_    0.382864 0.499985 0.616646 0.172942
H11   H     H_    0.021060 0.918855 0.672516 0.189563
H12   H     H_    0.020868 0.080971 0.673033 0.189423
H13   H     H_    0.520927 0.418936 0.672639 0.189512
H14   H     H_    0.520863 0.581050 0.672625 0.189851
C55   C     C_3   0.899725 0.000035 0.473139 0.158692
C56   C     C_3   0.399922 0.499984 0.472935 0.158833
C57   C     C_3   0.971048 0.955597 0.499130 -0.082845
C58   C     C_3   0.970931 0.044586 0.499403 -0.081192
C59   C     C_3   0.471245 0.455491 0.499237 -0.081208
C60   C     C_3   0.471218 0.544481 0.499238 -0.082915
C61   C     C_3   0.042308 0.000146 0.525761 -0.167380
C62   C     C_3   0.542596 0.499988 0.525907 -0.167270
C63   C     C_3   0.075185 0.000019 0.646053 0.084819
C64   C     C_3   0.575256 0.499995 0.646117 0.084681
H15   H     H_    0.956647 0.919196 0.447692 0.213913
H16   H     H_    0.956441 0.081090 0.448190 0.214661
H17   H     H_    0.456871 0.419040 0.447929 0.214599
H18   H     H_    0.456834 0.580930 0.447937 0.213591
H19   H     H_    0.089329 0.000243 0.499475 0.178818
H20   H     H_    0.589747 0.499987 0.499802 0.178854
C65   C     C_3   0.351220 0.764840 0.121850 0.089653
C66   C     C_3   0.354780 0.237293 0.123717 0.103076
C67   C     C_3   0.854353 0.262867 0.123548 0.102894
C68   C     C_3   0.850113 0.735247 0.121162 0.090665
H21   H     H_    0.302031 0.795702 0.115536 0.177014
H22   H     H_    0.307435 0.206236 0.120754 0.196850
H23   H     H_    0.806733 0.293863 0.120226 0.196802
H24   H     H_    0.799946 0.704813 0.113813 0.178095
C69   C     C_3   0.817327 0.207968 0.127275 0.108473
C70   C     C_3   0.814755 0.790317 0.126622 0.121256
C71   C     C_3   0.314909 0.710023 0.126931 0.121586
C72   C     C_3   0.317546 0.292158 0.127293 0.108350
H25   H     H_    0.279037 0.718897 0.166032 0.215377
H26   H     H_    0.283012 0.283458 0.168005 0.221790
H27   H     H_    0.782642 0.216619 0.167838 0.221627
H28   H     H_    0.778516 0.781835 0.165424 0.215004
H29   H     H_    0.837785 0.131282 0.000519 0.097259
H30   H     H_    0.840159 0.868323 0.006127 0.097840
H31   H     H_    0.338479 0.631873 0.004926 0.097452
H32   H     H_    0.337466 0.368742 0.999980 0.097179
C73   C     C_3   0.861109 0.215158 0.969777 0.746227
C74   C     C_3   0.862201 0.784779 0.972288 0.745731
C75   C     C_3   0.361566 0.715290 0.971840 0.747714
C76   C     C_3   0.360991 0.284849 0.969502 0.746664
C77   C     C_3   0.229309 0.778716 0.918598 0.523346
C78   C     C_3   0.230273 0.221359 0.921644 0.529680
C79   C     C_3   0.730134 0.278582 0.921354 0.529969
C80   C     C_3   0.729038 0.721953 0.917683 0.525321
C81   C     C_3   0.338281 0.769376 0.007269 -0.314485
C82   C     C_3   0.339326 0.231276 0.007903 -0.330617
C83   C     C_3   0.839191 0.268766 0.007880 -0.330162
C84   C     C_3   0.838007 0.730786 0.007060 -0.313209
H33   H     H_    0.208926 0.775233 0.833042 0.206545
H34   H     H_    0.208375 0.223848 0.835316 0.204525
H35   H     H_    0.708414 0.276012 0.835109 0.204758
H36   H     H_    0.709181 0.725492 0.832373 0.207146
C85   C     C_3   0.743173 0.186984 0.006186 -0.208977
C86   C     C_3   0.742647 0.812686 0.006024 -0.209712
C87   C     C_3   0.242163 0.688023 0.006245 -0.208715
C88   C     C_3   0.243192 0.313012 0.006174 -0.208759
C89   C     C_3   0.796001 0.168442 0.957642 0.550631
C90   C     C_3   0.797707 0.831714 0.960743 0.551524
C91   C     C_3   0.296515 0.668718 0.960154 0.549242
C92   C     C_3   0.295785 0.331529 0.957327 0.550315
C93   C     C_3   0.675961 0.235165 0.935057 -0.466256
C94   C     C_3   0.674749 0.765299 0.931464 -0.468167
C95   C     C_3   0.174733 0.735680 0.932526 -0.464735
C96   C     C_3   0.176078 0.264765 0.935356 -0.465875
H37   H     H_    0.143495 0.753736 0.971955 0.239418
H38   H     H_    0.146282 0.247299 0.976866 0.242459
H39   H     H_    0.645957 0.252659 0.976325 0.242452
H40   H     H_    0.642749 0.747426 0.970133 0.239340
H41   H     H_    0.615146 0.222996 0.850747 0.281242
H42   H     H_    0.615327 0.778301 0.847100 0.281955
H43   H     H_    0.114756 0.722918 0.848251 0.281298
H44   H     H_    0.115120 0.276855 0.851061 0.281054
C97   C     C_3   0.514489 0.029092 0.559892 -0.327315
C98   C     C_3   0.428313 0.939758 0.493492 -0.232389
C99   C     C_3   0.930373 0.560267 0.495034 -0.232600
C100  C     C_3   0.014033 0.470094 0.559405 -0.325742
H45   H     H_    0.514899 0.071485 0.585617 0.257053
H46   H     H_    0.362201 0.917744 0.464393 0.240211
H47   H     H_    0.864857 0.582898 0.466361 0.241570
H48   H     H_    0.013208 0.427659 0.584091 0.257839
H49   H     H_    0.578727 0.008685 0.631511 0.189744
H50   H     H_    0.488950 0.917021 0.564835 0.236177
H51   H     H_    0.991655 0.582408 0.566917 0.235177
H52   H     H_    0.078890 0.489837 0.631514 0.189199
C101  C     C_3   0.519726 0.031000 0.462667 -0.404961
C102  C     C_3   0.439738 0.940631 0.400807 -0.457887
C103  C     C_3   0.941693 0.559382 0.402316 -0.456952
C104  C     C_3   0.019157 0.468239 0.462099 -0.405297
H53   H     H_    0.587873 0.012897 0.488220 0.206474
H54   H     H_    0.509293 0.921998 0.433236 0.220260
H55   H     H_    0.011761 0.577370 0.435033 0.220572
H56   H     H_    0.087814 0.485711 0.488015 0.206547
H57   H     H_    0.520527 0.074192 0.442085 0.224871
H58   H     H_    0.384442 0.914718 0.331273 0.227883
H59   H     H_    0.887040 0.585858 0.333432 0.228360
H60   H     H_    0.018728 0.425042 0.440572 0.224990
H61   H     H_    0.331007 0.068476 0.449489 0.255891
H62   H     H_    0.271484 0.005056 0.405928 0.202627
H63   H     H_    0.771691 0.496383 0.406110 0.202991
H64   H     H_    0.829500 0.432387 0.448257 0.255004
C105  C     C_3   0.335676 0.026415 0.426727 -0.385487
C106  C     C_3   0.835282 0.474439 0.426383 -0.386318
C107  C     C_3   0.424651 0.998443 0.527817 0.206455
C108  C     C_3   0.925057 0.501577 0.528048 0.206185
C109  C     C_3   0.435364 0.999922 0.361541 0.120057
C110  C     C_3   0.935593 0.500159 0.361672 0.119420
C111  C     C_3   0.339625 0.026543 0.325474 0.533808
C112  C     C_3   0.839152 0.474391 0.325063 0.533945
F1    F     F_    0.306423 0.170399 0.803494 -0.623824
F2    F     F_    0.307113 0.829628 0.803382 -0.624051
F3    F     F_    0.806907 0.670365 0.803424 -0.624363
F4    F     F_    0.806401 0.329592 0.803518 -0.623930
Br1   Br    Br    0.456379 0.786768 0.272626 -0.327253
Br2   Br    Br    0.463224 0.218108 0.274560 -0.265002
Br3   Br    Br    0.962412 0.282385 0.274386 -0.267029
Br4   Br    Br    0.953773 0.712306 0.271894 -0.329836
Br5   Br    Br    0.920324 0.154826 0.221081 -0.320320
Br6   Br    Br    0.920132 0.841357 0.224780 -0.318259
Br7   Br    Br    0.419135 0.658129 0.224112 -0.320981
Br8   Br    Br    0.420244 0.345510 0.220704 -0.321121
Br9   Br    Br    0.993264 0.193214 0.066695 -0.285877
Br10  Br    Br    0.994610 0.805950 0.071252 -0.304772
Br11  Br    Br    0.493749 0.693581 0.070546 -0.302713
Br12  Br    Br    0.493093 0.306886 0.066225 -0.286090
Br13  Br    Br    0.579503 0.815383 0.192497 -0.310456
Br14  Br    Br    0.580226 0.184652 0.190057 -0.309599
Br15  Br    Br    0.080133 0.315392 0.190468 -0.308828
Br16  Br    Br    0.078892 0.684502 0.193875 -0.307655
F5    F     F_    0.201864 0.829922 0.928136 -0.672044
F6    F     F_    0.204238 0.170405 0.934364 -0.661848
F7    F     F_    0.703858 0.329542 0.933749 -0.661857
F8    F     F_    0.700655 0.670898 0.926404 -0.671233
F9    F     F_    0.843099 0.223697 0.867387 -0.560966
F10   F     F_    0.845397 0.777144 0.870293 -0.564404
F11   F     F_    0.344634 0.722945 0.869785 -0.563843
F12   F     F_    0.342876 0.276232 0.867077 -0.560799
F13   F     F_    0.731661 0.154542 0.846795 -0.571053
F14   F     F_    0.735124 0.846983 0.850420 -0.573861
F15   F     F_    0.233386 0.653825 0.849687 -0.573786
F16   F     F_    0.231274 0.345303 0.846442 -0.571099
Br17  Br    Br    0.322871 0.101164 0.272623 -0.400693
Br18  Br    Br    0.231547 0.986944 0.201514 -0.389845
Br19  Br    Br    0.732096 0.515061 0.202037 -0.389730
Br20  Br    Br    0.820534 0.399975 0.270445 -0.400176
F17   F     F_    0.408880 0.094176 0.649220 -0.597026
F18   F     F_    0.404490 0.904899 0.653128 -0.609447
F19   F     F_    0.904803 0.595136 0.653254 -0.608730
F20   F     F_    0.908840 0.405882 0.649078 -0.597114
Br21  Br    Br    0.757512 0.893423 0.387378 -0.332554
Br22  Br    Br    0.757114 0.106601 0.387205 -0.331552
Br23  Br    Br    0.257427 0.393487 0.387361 -0.331599
Br24  Br    Br    0.257527 0.606341 0.387715 -0.332408
F21   F     F_    0.756452 0.133169 0.202798 -0.646073
F22   F     F_    0.755934 0.866204 0.202823 -0.645758
F23   F     F_    0.254588 0.635228 0.203109 -0.644264
F24   F     F_    0.256357 0.366729 0.202801 -0.646125
F25   F     F_    0.564995 0.866508 0.803830 -0.606914
F26   F     F_    0.564237 0.134315 0.803745 -0.596082
F27   F     F_    0.064135 0.365570 0.803722 -0.596026
F28   F     F_    0.064256 0.634582 0.803851 -0.604722

loop_
_geom_bond_atom_site_label_1
_geom_bond_atom_site_label_2
_geom_bond_distance
_ccdc_geom_bond_type
C30   N22   1.343035 A    
N3    Ni3   1.899269 S    
N19   N20   1.400315 A    
C80   H36   1.111870 S    
H63   C106  1.112280 S    
C101  H53   1.114583 S    
N2    Ni2   1.899614 S    
H64   C106  1.110815 S    
C4    F4    1.355604 S    
C28   C42   1.378551 A    
C10   N10   1.322125 A    
N18   Ni2   1.899020 S    
C4    N4    1.326131 A    
C27   F19   1.356587 S    
C68   Br4   1.963200 S    
C102  C109  1.561327 S    
C11   C22   1.393903 A    
C97   H49   1.114302 S    
C41   C107  1.478877 S    
C39   F27   1.351178 S    
N17   N18   1.400315 A    
C95   H37   1.114116 S    
C68   C70   1.516891 S    
C5    C18   1.365002 A    
C26   N18   1.324223 A    
C39   N31   1.330325 A    
C71   Br7   1.987592 S    
N11   Ni8   1.904371 S    
H32   C92   1.109991 S    
C1    N1    1.326052 A    
C13   C23   1.382313 A    
C70   Br6   1.987043 S    
N17   Ni1   1.898684 S    
C94   H40   1.114025 S    
C67   H23   1.114702 S    
C9    C21   1.393390 A    
N15   Ni4   1.880449 S    
N28   N31   1.374401 A    
C3    N3    1.324951 A    
C55   C57   1.533393 S    
C27   C42   1.371960 A    
C74   Br10  1.949829 S    
N31   Ni4   1.901352 S    
C49   C57   1.543696 S    
C110  C112  1.577098 S    
N24   Ni8   1.887526 S    
C103  H59   1.112319 S    
C66   H22   1.114677 S    
C76   F12   1.387997 S    
C53   C55   1.531791 S    
C102  H58   1.111953 S    
C13   H5    1.079579 S    
C8    Br16  1.918066 S    
N1    Ni1   1.899269 S    
C14   N14   1.331335 A    
C57   H15   1.110386 S    
C98   H46   1.113198 S    
C102  H54   1.114471 S    
C29   Br21  1.918026 S    
C29   N21   1.343274 A    
C77   C81   1.572140 S    
C37   F25   1.351578 S    
C103  C110  1.561660 S    
C5    N5    1.323835 A    
C112  Br20  1.956350 S    
C67   C69   1.518900 S    
C86   C90   1.553620 S    
C13   N13   1.331305 A    
C7    N7    1.325019 A    
C78   C96   1.528653 S    
C80   C84   1.571678 S    
C73   C83   1.577342 S    
C96   H38   1.114036 S    
C22   C110  1.487589 S    
C80   F8    1.389899 S    
C111  Br18  1.955699 S    
C21   C109  1.487917 S    
C100  H52   1.114609 S    
C52   C60   1.543718 S    
C100  C108  1.551721 S    
C50   H12   1.110054 S    
C98   C102  1.520550 S    
H61   C105  1.110394 S    
C104  H60   1.111934 S    
C87   C95   1.566004 S    
C30   C43   1.359152 A    
C46   C86   1.482884 S    
C12   N12   1.324640 A    
C67   Br3   1.962159 S    
C34   C46   1.385754 A    
C59   C62   1.532715 S    
C85   C93   1.565007 S    
C96   H44   1.106913 S    
C32   C44   1.359573 A    
C72   Br8   1.988353 S    
C66   C72   1.518854 S    
C53   H9    1.109873 S    
C49   C63   1.530683 S    
N4    Ni4   1.899614 S    
N26   N29   1.374401 A    
C35   C47   1.385971 A    
C35   F23   1.342257 S    
C16   C24   1.382332 A    
C38   C45   1.388788 A    
N16   Ni3   1.880735 S    
N25   N30   1.374402 A    
C2    N2    1.324753 A    
C75   Br11  1.950097 S    
C37   C46   1.388580 A    
N32   Ni3   1.901654 S    
C68   H24   1.114874 S    
C106  C112  1.562944 S    
C93   H41   1.106873 S    
N27   N32   1.374402 A    
C91   F15   1.387395 S    
C65   C81   1.598864 S    
C39   C48   1.388746 A    
N20   Ni4   1.899020 S    
C103  H55   1.114888 S    
C109  C111  1.577107 S    
C7    Br15  1.918963 S    
C52   H14   1.110057 S    
C6    Br14  1.918927 S    
C14   H6    1.079521 S    
C5    Br13  1.918307 S    
C90   F14   1.387492 S    
C8    N8    1.323541 A    
C14   C23   1.382317 A    
C88   C92   1.555306 S    
C18   C81   1.481115 S    
C61   H19   1.111010 S    
N6    Ni6   1.888324 S    
C58   C61   1.532769 S    
C72   H26   1.111282 S    
C6    N6    1.325182 A    
C55   C58   1.533378 S    
C67   C83   1.598517 S    
C104  H56   1.114906 S    
C58   H16   1.110380 S    
C97   H45   1.113041 S    
C11   H3    1.079492 S    
C73   C89   1.559286 S    
C4    C20   1.384320 A    
C27   N19   1.323781 A    
C61   C63   1.532973 S    
C99   C108  1.550897 S    
C100  C104  1.517311 S    
C78   F6    1.389812 S    
C9    H1    1.078872 S    
C70   C86   1.567246 S    
C100  H48   1.113293 S    
C60   C62   1.532652 S    
C42   C108  1.478555 S    
C79   H35   1.111893 S    
C87   C91   1.554321 S    
N13   N14   1.421036 A    
C26   F18   1.356678 S    
C99   H47   1.113473 S    
H30   C90   1.110135 S    
C80   C94   1.529316 S    
C26   C41   1.372004 A    
C99   C103  1.519788 S    
C86   C94   1.567215 S    
H62   C105  1.111999 S    
C75   F11   1.388306 S    
C36   N28   1.313599 A    
C3    C19   1.382905 A    
C74   F10   1.388322 S    
N12   Ni7   1.904032 S    
C52   C54   1.554456 S    
C104  C110  1.554864 S    
C93   H39   1.114043 S    
C73   F9    1.388023 S    
C7    C20   1.365159 A    
C105  C111  1.562803 S    
C54   H10   1.109877 S    
C56   C59   1.533262 S    
H31   C91   1.110191 S    
N1    N6    1.388757 A    
C75   C91   1.558191 S    
C76   Br12  1.950262 S    
C66   C82   1.598446 S    
C57   C61   1.532720 S    
C1    C17   1.384221 A    
N3    N8    1.388757 A    
C92   F16   1.387237 S    
C30   Br22  1.918177 S    
C45   C85   1.483932 S    
C69   H27   1.111349 S    
N4    N7    1.388757 A    
C106  C108  1.551027 S    
C15   C24   1.382208 A    
C40   F28   1.351711 S    
N14   Ni1   1.880735 S    
C78   C82   1.571557 S    
C76   C92   1.559233 S    
C71   H25   1.111712 S    
C15   H7    1.079510 S    
N13   Ni2   1.880449 S    
C88   C96   1.564720 S    
C31   Br23  1.918318 S    
C28   F20   1.355695 S    
N19   Ni3   1.898684 S    
C19   C84   1.481425 S    
C10   C21   1.394227 A    
C16   H8    1.079558 S    
C59   H17   1.110387 S    
C36   F24   1.341760 S    
N28   Ni7   1.892851 S    
C79   F7    1.389822 S    
N22   Ni6   1.887525 S    
C50   C63   1.530695 S    
N7    Ni7   1.888621 S    
C17   C82   1.483533 S    
C72   C88   1.565089 S    
C76   C82   1.577131 S    
C56   C60   1.533336 S    
C37   N29   1.330166 A    
C62   H20   1.111021 S    
N23   Ni7   1.887813 S    
C77   C95   1.529083 S    
C20   C83   1.483712 S    
C71   C87   1.566388 S    
C49   C53   1.554420 S    
C33   F21   1.341762 S    
C112  Br19  1.956404 S    
C40   N32   1.330325 A    
C95   H43   1.106462 S    
C25   C41   1.378577 A    
N23   N24   1.421526 A    
C69   C85   1.565334 S    
C25   F17   1.355632 S    
C51   C59   1.543770 S    
C15   N15   1.331261 A    
C24   C64   1.445566 S    
C66   Br2   1.962115 S    
C101  C109  1.554083 S    
N9    Ni6   1.904371 S    
C99   H51   1.114218 S    
C111  Br17  1.955633 S    
C65   Br1   1.963241 S    
C8    C19   1.365724 A    
C50   C53   1.554481 S    
C51   H13   1.110045 S    
C36   C48   1.386284 A    
C31   N23   1.342854 A    
C79   C83   1.571516 S    
C79   C93   1.528850 S    
C32   N24   1.343156 A    
C47   C87   1.481215 S    
C97   C107  1.551295 S    
C9    N9    1.324616 A    
H29   C89   1.110008 S    
C43   C55   1.455408 S    
C50   C58   1.543771 S    
C10   H2    1.079626 S    
N21   Ni5   1.887814 S    
N9    N10   1.400315 A    
C44   C56   1.455175 S    
C49   H11   1.110056 S    
C40   C47   1.389141 A    
C89   F13   1.387274 S    
C69   Br5   1.988226 S    
N2    N5    1.388757 A    
C70   H28   1.111784 S    
C38   F26   1.351155 S    
N30   Ni1   1.901654 S    
C65   C71   1.517440 S    
C34   N26   1.313373 A    
C101  H57   1.111617 S    
C77   H33   1.111888 S    
N29   Ni2   1.901352 S    
C2    C18   1.382648 A    
N10   Ni5   1.904032 S    
C33   N25   1.313832 A    
C60   H18   1.110377 S    
C33   C45   1.386267 A    
C98   C107  1.550442 S    
C105  C107  1.550593 S    
C62   C64   1.533044 S    
C2    F2    1.355680 S    
C35   N27   1.312944 A    
C31   C44   1.359340 A    
C16   N16   1.331336 A    
C74   C90   1.558575 S    
N21   N22   1.421526 A    
C75   C81   1.578276 S    
C6    C17   1.364954 A    
C12   C22   1.393303 A    
C25   N17   1.333241 A    
C54   C56   1.531797 S    
C68   C84   1.598948 S    
N27   Ni8   1.893193 S    
N15   N16   1.421036 A    
N25   Ni6   1.893193 S    
C48   C88   1.483598 S    
C23   C63   1.445736 S    
C51   C54   1.554440 S    
C52   C64   1.530620 S    
C3    F3    1.355676 S    
C65   H21   1.114992 S    
C38   N30   1.330442 A    
N5    Ni5   1.888621 S    
N11   N12   1.400315 A    
N8    Ni8   1.888324 S    
C29   C43   1.359353 A    
C77   F5    1.389990 S    
C1    F1    1.355601 S    
C97   C101  1.517424 S    
C98   H50   1.113840 S    
C74   C84   1.579249 S    
C94   H42   1.106261 S    
C34   F22   1.341445 S    
N26   Ni5   1.892851 S    
C73   Br9   1.950236 S    
C12   H4    1.079047 S    
C78   H34   1.111892 S    
C85   C89   1.555169 S    
C32   Br24  1.918163 S    
C28   N20   1.333162 A    
C11   N11   1.321755 A    
C51   C64   1.530703 S    
