data_mof_unit_37949.cif
_audit_creation_date              2012-12-10T17:39:23-0500
_audit_creation_method            fapswitch 2.2
_symmetry_space_group_name_H-M    P1
_symmetry_Int_Tables_number       1
_space_group_crystal_system       triclinic
_cell_length_a                    12.314045
_cell_length_b                    13.172375
_cell_length_c                    27.782534
_cell_angle_alpha                 77.744928
_cell_angle_beta                  101.180495
_cell_angle_gamma                 116.532086
_cell_volume                      3914.61013745

loop_
_atom_site_label
_atom_site_type_symbol
_atom_type_description
_atom_site_fract_x
_atom_site_fract_y
_atom_site_fract_z
_atom_type_partial_charge
C1    C     C_R   0.854880 0.286541 0.504277 0.779691
C2    C     C_R   0.897267 0.504007 0.711373 -0.103788
C3    C     C_R   0.993035 0.496220 0.746251 0.352546
C4    C     C_R   0.986278 0.495062 0.897678 -0.048009
C5    C     C_R   0.982421 0.398933 0.881664 -0.013909
C6    C     C_R   0.979564 0.304329 0.916538 -0.152759
C7    C     C_R   0.995058 0.592473 0.862927 -0.021815
C8    C     C_R   0.997141 0.498417 0.645348 -0.039221
C9    C     C_R   0.000802 0.499827 0.354610 -0.037757
C10   C     C_R   0.949215 0.388369 0.032470 -0.046000
C11   C     C_R   0.009273 0.597393 0.016437 0.061898
C12   C     C_R   0.999205 0.499548 0.592425 0.797270
C13   C     C_R   0.982183 0.493499 0.049917 0.037296
C14   C     C_R   0.901044 0.283767 0.065786 0.243883
C15   C     C_R   0.908309 0.287952 0.116315 -0.148605
C16   C     C_R   0.953873 0.392172 0.134474 -0.085090
C17   C     C_R   0.987445 0.494926 0.101212 -0.049149
C18   C     C_R   0.025553 0.599201 0.119320 -0.004406
C19   C     C_R   0.031041 0.598733 0.170283 0.530822
C20   C     C_R   0.960066 0.395445 0.185198 0.550098
C21   C     C_R   0.914503 0.524729 0.268998 -0.106029
C22   C     C_R   0.914825 0.525215 0.319111 -0.221196
C23   C     C_R   0.145082 0.713439 0.492759 0.805293
C24   C     C_R   0.086472 0.474032 0.338973 -0.219480
C25   C     C_R   0.085731 0.473348 0.288751 -0.106266
C26   C     C_R   0.999791 0.498767 0.253637 0.357742
C27   C     C_R   0.965759 0.392940 0.982611 0.039764
C28   C     C_R   0.982633 0.494160 0.948511 0.079771
C29   C     C_R   0.998162 0.595044 0.964886 0.041298
C30   C     C_R   0.973828 0.302462 0.966231 -0.229202
C31   C     C_R   0.001705 0.688986 0.878964 -0.143610
C32   C     C_R   0.048563 0.700703 0.035822 -0.208447
C33   C     C_R   0.056926 0.701422 0.086325 -0.151125
C34   C     C_R   0.000465 0.500078 0.407570 0.792349
C35   C     C_R   0.003920 0.690688 0.929026 -0.211209
C36   C     C_R   0.275387 0.021478 0.434069 -0.181636
C37   C     C_R   0.227949 0.834574 0.482569 -0.050871
C38   C     C_R   0.815504 0.085135 0.536544 -0.182127
C39   C     C_R   0.736733 0.970225 0.546250 -0.136470
C40   C     C_R   0.613352 0.932553 0.528899 -0.179320
C41   C     C_R   0.566530 0.009358 0.499505 0.080240
C42   C     C_R   0.650003 0.123758 0.484819 0.081557
C43   C     C_R   0.439848 0.976113 0.483718 0.074399
C44   C     C_R   0.400122 0.053366 0.449943 0.162984
C45   C     C_R   0.984517 0.400943 0.831133 0.530843
C46   C     C_R   0.485407 0.160452 0.431406 -0.232913
C47   C     C_R   0.608562 0.194533 0.447927 -0.191616
C48   C     C_R   0.351019 0.868494 0.500811 -0.247670
C49   C     C_R   0.189604 0.912129 0.450042 -0.188179
C50   C     C_R   0.773048 0.163505 0.507025 -0.103459
C51   C     C_R   0.346681 0.328556 0.578888 -0.294508
C52   C     C_R   0.759551 0.645403 0.433096 0.072669
C53   C     C_R   0.663024 0.677159 0.418617 -0.248702
C54   C     C_R   0.559550 0.622344 0.443772 -0.193291
C55   C     C_R   0.551423 0.534575 0.484037 -0.007007
C56   C     C_R   0.997229 0.591050 0.812757 0.532687
C57   C     C_R   0.653033 0.505244 0.497638 0.290082
C58   C     C_R   0.447037 0.475162 0.511362 -0.036300
C59   C     C_R   0.446806 0.388187 0.551458 0.175338
C60   C     C_R   0.546581 0.361261 0.564153 -0.282567
C61   C     C_R   0.647320 0.418625 0.537995 -0.190971
C62   C     C_R   0.342038 0.497817 0.500913 0.016890
C63   C     C_R   0.246721 0.355111 0.566757 0.071347
C64   C     C_R   0.090742 0.489306 0.730590 -0.102615
C65   C     C_R   0.092706 0.490040 0.680507 -0.219015
C66   C     C_R   0.899332 0.505387 0.661245 -0.225006
Cu1   Cu    Cu3+1 0.098270 0.475420 0.511360 0.938288
Cu2   Cu    Cu3+1 0.901730 0.524580 0.488640 0.926389
H1    H     H_    0.824118 0.511348 0.635052 0.161772
H2    H     H_    0.165424 0.483830 0.757271 0.145440
H3    H     H_    0.006428 0.764380 0.852891 0.187726
H4    H     H_    0.077388 0.783257 0.012923 0.140618
H5    H     H_    0.153808 0.454187 0.365465 0.157909
H6    H     H_    0.087921 0.782865 0.099382 0.184617
H7    H     H_    0.152017 0.453344 0.277060 0.139542
H8    H     H_    0.007204 0.767367 0.938471 0.142506
H9    H     H_    0.094422 0.886807 0.435445 0.150867
H10   H     H_    0.456850 0.218304 0.403934 0.148312
H11   H     H_    0.244635 0.080025 0.408200 0.139676
H12   H     H_    0.821121 0.508847 0.723188 0.143938
H13   H     H_    0.374949 0.808174 0.528074 0.149041
H14   H     H_    0.909492 0.113100 0.553226 0.155014
H15   H     H_    0.557909 0.842271 0.538236 0.131012
H16   H     H_    0.770810 0.910359 0.568711 0.149151
H17   H     H_    0.670635 0.275959 0.430224 0.177057
H18   H     H_    0.169044 0.309447 0.587753 0.125797
H19   H     H_    0.547143 0.295083 0.594894 0.158022
H20   H     H_    0.345850 0.261907 0.609563 0.143992
H21   H     H_    0.334117 0.562220 0.471105 0.124176
H22   H     H_    0.839530 0.688465 0.413382 0.126353
H23   H     H_    0.982740 0.231518 0.905671 0.185480
H24   H     H_    0.487663 0.650446 0.430977 0.138940
H25   H     H_    0.668427 0.744516 0.387790 0.152695
H26   H     H_    0.718984 0.392036 0.551072 0.207573
H27   H     H_    0.847702 0.545435 0.329978 0.157636
H28   H     H_    0.847591 0.544071 0.242015 0.139888
H29   H     H_    0.871434 0.208589 0.141287 0.194525
H30   H     H_    0.979781 0.230648 0.991709 0.173301
H31   H     H_    0.169336 0.484766 0.669337 0.160255
N1    N     N_R   0.991334 0.495953 0.797808 -0.466678
N2    N     N_R   0.998321 0.497746 0.202008 -0.465718
N3    N     N_R   0.246290 0.438210 0.528570 -0.180906
N4    N     N_R   0.754320 0.561170 0.471730 -0.206744
O1    O     O_R   0.972510 0.318140 0.514280 -0.577872
O2    O     O_2   0.926741 0.297125 0.217402 -0.545231
O3    O     O_2   0.006548 0.684407 0.779241 -0.543635
O4    O     O_2   0.068870 0.698337 0.188053 -0.543832
O5    O     O_R   0.806530 0.359640 0.495100 -0.604235
O6    O     O_R   0.082990 0.479270 0.579320 -0.582931
O7    O     O_R   0.917010 0.520770 0.560140 -0.598687
O8    O     O_R   0.193470 0.640360 0.504900 -0.586294
O9    O     O_R   0.027490 0.681860 0.485720 -0.583962
O10   O     O_R   0.082990 0.479230 0.439860 -0.583818
O11   O     O_R   0.917010 0.520730 0.420680 -0.595775
O12   O     O_2   0.978496 0.308284 0.815343 -0.544774
N5    N     N_2   0.825596 0.176158 0.048504 -0.436425
H32   H     H_    0.785359 0.176930 0.012347 0.264301
C67   C     C_3   0.857512 0.081055 0.069231 -0.685090
H33   H     H_    0.800613 0.007539 0.048531 0.229663
H34   H     H_    0.839594 0.052228 0.108565 0.240688
H35   H     H_    0.955288 0.105890 0.066647 0.223003

loop_
_geom_bond_atom_site_label_1
_geom_bond_atom_site_label_2
_ccdc_geom_bond_type
C10   C27   A    
C58   C62   A    
C21   C26   A    
C52   N4    A    
C8    C66   A    
C11   C13   A    
C41   C42   A    
C52   H22   S    
Cu2   N4    S    
C12   O7    A    
C32   H4    S    
C53   C54   A    
C48   H13   S    
C34   O10   A    
C23   O9    A    
C47   H17   S    
C28   C29   A    
C39   H16   S    
C4    C7    A    
C26   N2    S    
C5    C6    A    
C9    C22   A    
C66   H1    S    
C15   C16   A    
C62   H21   S    
N5    H32   S    
C18   C19   A    
Cu2   O9    S    
C67   H33   S    
C46   C47   A    
C3    N1    S    
Cu1   O6    S    
C49   H9    S    
C16   C17   A    
C10   C13   A    
C64   H2    S    
C43   C48   A    
C8    C12   S    
C31   H3    S    
C59   C60   A    
C21   C22   A    
C38   H14   S    
C27   C30   A    
C41   C43   A    
C40   H15   S    
C7    C56   A    
C15   H29   S    
C63   N3    A    
C12   O6    A    
C4    C28   A    
C60   H19   S    
C44   C46   A    
Cu1   O1    S    
C57   N4    A    
C35   H8    S    
C7    C31   A    
C53   H25   S    
Cu1   Cu2   S    
C51   C63   A    
C24   C25   A    
C65   H31   S    
C10   C14   A    
C39   C40   A    
C46   H10   S    
C61   H26   S    
C20   N2    A    
C25   C26   A    
C23   C37   S    
C5    C45   A    
C36   H11   S    
C60   C61   A    
C25   H7    S    
C67   H35   S    
C43   C44   A    
C54   H24   S    
C37   C49   A    
C45   O12   S    
C16   C20   A    
C17   C18   A    
Cu2   O7    S    
C37   C48   A    
C1    O1    A    
C56   O3    S    
C42   C50   A    
Cu1   O8    S    
C40   C41   A    
C6    C30   A    
C11   C32   A    
C55   C57   A    
C63   H18   S    
C9    C34   S    
C31   C35   A    
C36   C44   A    
C51   C59   A    
C56   N1    A    
C52   C53   A    
C20   O2    S    
C1    C50   S    
C30   H30   S    
C54   C55   A    
C4    C5    A    
C2    C66   A    
C45   N1    A    
C51   H20   S    
C9    C24   A    
C57   C61   A    
C38   C50   A    
C21   H28   S    
C3    C64   A    
C34   O11   A    
C23   O8    A    
C29   C35   A    
C13   C17   A    
C32   C33   A    
C2    C3    A    
C58   C59   A    
C64   C65   A    
C19   N2    A    
C38   C39   A    
C14   N5    S    
N5    C67   S    
C42   C47   A    
Cu1   O10   S    
C24   H5    S    
C18   C33   A    
C67   H34   S    
C2    H12   S    
C1    O5    A    
C22   H27   S    
C33   H6    S    
C8    C65   A    
C11   C29   A    
C55   C58   A    
C27   C28   A    
C14   C15   A    
Cu2   O5    S    
C36   C49   A    
C6    H23   S    
Cu1   N3    S    
Cu2   O11   S    
C62   N3    A    
C19   O4    S    
