data_mof_unit_64049.cif
_audit_creation_date              2013-03-05T16:09:39-0500
_audit_creation_method            fapswitch 2.2
_symmetry_space_group_name_H-M    P1
_symmetry_Int_Tables_number       1
_space_group_crystal_system       triclinic
_cell_length_a                    37.552614
_cell_length_b                    30.411266
_cell_length_c                    21.727683
_cell_angle_alpha                 90.038733
_cell_angle_beta                  53.955012
_cell_angle_gamma                 90.286637
_cell_volume                      20062.757942

loop_
_atom_site_label
_atom_site_type_symbol
_atom_site_description
_atom_site_fract_x
_atom_site_fract_y
_atom_site_fract_z
_atom_type_partial_charge
O1    O     O_R   0.064270 0.537190 0.435730 -0.590460
O2    O     O_R   0.935730 0.537190 0.564270 -0.580825
O3    O     O_R   0.564270 0.037190 0.435730 -0.589311
O4    O     O_R   0.435730 0.037190 0.564270 -0.575384
O5    O     O_R   0.064270 0.462800 0.435730 -0.582684
O6    O     O_R   0.935730 0.462800 0.564270 -0.593030
O7    O     O_R   0.564270 0.962800 0.435730 -0.584048
O8    O     O_R   0.435730 0.962800 0.564270 -0.598570
C1    C     C_R   0.085154 0.500158 0.415033 0.794306
C2    C     C_R   0.914885 0.499850 0.584686 0.795728
C3    C     C_R   0.585153 0.000158 0.415048 0.793583
C4    C     C_R   0.414862 0.999930 0.584949 0.796414
O9    O     O_R   0.000010 0.537190 0.590170 -0.576142
O10   O     O_R   0.999990 0.537190 0.409830 -0.570610
O11   O     O_R   0.500010 0.037190 0.590170 -0.571381
O12   O     O_R   0.499990 0.037190 0.409830 -0.567747
O13   O     O_R   0.000000 0.462800 0.590170 -0.579433
O14   O     O_R   0.000000 0.462800 0.409830 -0.586798
O15   O     O_R   0.500000 0.962800 0.590170 -0.583656
O16   O     O_R   0.500000 0.962800 0.409830 -0.589675
C5    C     C_R   0.000463 0.499999 0.618155 0.783926
C6    C     C_R   0.998327 0.499919 0.382929 0.786701
C7    C     C_R   0.500454 0.999999 0.618163 0.784330
C8    C     C_R   0.498263 0.999912 0.382986 0.787929
Cu1   Cu    Cu3+1 1.000000 0.544050 0.500000 0.991471
Cu2   Cu    Cu3+1 0.500000 0.044050 0.500000 1.007711
Cu3   Cu    Cu3+1 0.000000 0.455950 0.500000 0.974842
Cu4   Cu    Cu3+1 0.500000 0.955950 0.500000 0.960024
C9    C     C_R   0.016028 0.656663 0.933263 0.309432
C10   C     C_R   0.983278 0.656297 0.069509 0.295317
C11   C     C_R   0.516249 0.156661 0.933177 0.309234
C12   C     C_R   0.483065 0.156309 0.069592 0.295661
C13   C     C_R   0.499133 0.633058 0.000762 -0.262948
C14   C     C_R   0.999132 0.133021 0.001252 -0.263633
H1    H     H_    0.941704 0.464989 0.753320 0.153216
H2    H     H_    0.048782 0.546641 0.256310 0.161772
H3    H     H_    0.441611 0.965143 0.753415 0.151083
H4    H     H_    0.548156 0.047259 0.256948 0.162931
C15   C     C_R   0.074783 0.538793 0.606784 -0.165155
C16   C     C_R   0.932982 0.447039 0.382299 -0.160416
C17   C     C_R   0.574854 0.038637 0.606684 -0.165769
C18   C     C_R   0.433550 0.946231 0.381528 -0.157819
H5    H     H_    0.077581 0.535381 0.554566 0.141889
H6    H     H_    0.927745 0.450463 0.436598 0.145735
H7    H     H_    0.577630 0.035223 0.554484 0.141710
H8    H     H_    0.428185 0.949594 0.435936 0.143110
C19   C     C_R   0.108632 0.560848 0.602780 -0.131217
C20   C     C_R   0.905521 0.417976 0.378512 -0.115085
C21   C     C_R   0.608758 0.060615 0.602609 -0.128189
C22   C     C_R   0.406517 0.916806 0.377230 -0.128098
H9    H     H_    0.136084 0.574260 0.549050 0.156504
H10   H     H_    0.880736 0.399296 0.428396 0.166136
H11   H     H_    0.636234 0.073967 0.548844 0.159213
H12   H     H_    0.381960 0.897789 0.426818 0.137795
C23   C     C_R   0.106890 0.566163 0.667943 -0.100874
C24   C     C_R   0.910233 0.412566 0.310522 -0.118839
C25   C     C_R   0.607041 0.065934 0.667746 -0.098616
C26   C     C_R   0.411350 0.911482 0.309119 -0.121390
H13   H     H_    0.132762 0.584219 0.665045 0.157972
H14   H     H_    0.889484 0.389259 0.307349 0.150129
H15   H     H_    0.632958 0.083931 0.664793 0.161813
H16   H     H_    0.390934 0.887915 0.305546 0.139634
C27   C     C_R   0.071907 0.548447 0.737056 -0.062610
C28   C     C_R   0.941385 0.437319 0.246636 -0.166375
C29   C     C_R   0.572024 0.048297 0.736907 -0.065059
C30   C     C_R   0.442180 0.936673 0.245636 -0.164011
H17   H     H_    0.072106 0.555212 0.785477 0.191394
H18   H     H_    0.944297 0.431294 0.194835 0.144605
H19   H     H_    0.572255 0.055068 0.785292 0.192291
H20   H     H_    0.445188 0.930755 0.193717 0.138032
C31   C     C_R   0.037644 0.524442 0.742527 0.101536
C32   C     C_R   0.968485 0.468302 0.249868 0.085462
C33   C     C_R   0.537698 0.024370 0.742457 0.101202
C34   C     C_R   0.468856 0.967973 0.249393 0.087086
C35   C     C_R   0.038476 0.521287 0.676610 0.084396
C36   C     C_R   0.965831 0.471446 0.317529 0.101126
C37   C     C_R   0.538516 0.021210 0.676555 0.084218
C38   C     C_R   0.466127 0.971059 0.317130 0.103628
C39   C     C_R   0.003175 0.500310 0.681859 -0.080616
C40   C     C_R   0.995735 0.499371 0.318711 -0.098692
C41   C     C_R   0.503166 0.000312 0.681863 -0.079408
C42   C     C_R   0.495674 0.999348 0.318737 -0.100247
C43   C     C_R   0.968688 0.481108 0.749733 -0.191725
C44   C     C_R   0.025813 0.525316 0.255596 -0.187755
C45   C     C_R   0.468634 0.981198 0.749785 -0.191220
C46   C     C_R   0.525447 0.025666 0.255954 -0.186084
H21   H     H_    0.941160 0.467258 0.865476 0.164349
H22   H     H_    0.050541 0.544450 0.142718 0.177200
H23   H     H_    0.441073 0.967421 0.865558 0.165040
H24   H     H_    0.549976 0.045110 0.143291 0.177995
C47   C     C_R   0.968150 0.483036 0.813819 -0.189404
C48   C     C_R   0.027304 0.523491 0.190499 -0.119212
C49   C     C_R   0.468103 0.983130 0.813863 -0.187995
C50   C     C_R   0.526984 0.023876 0.190811 -0.118500
C51   C     C_R   0.002147 0.504183 0.811434 -0.075915
C52   C     C_R   0.998756 0.495667 0.187122 -0.094410
C53   C     C_R   0.502154 0.004193 0.811422 -0.076517
C54   C     C_R   0.498785 0.995719 0.187058 -0.094684
C55   C     C_R   0.202855 0.463329 0.312419 -0.218005
C56   C     C_R   0.796915 0.536023 0.718522 -0.207556
C57   C     C_R   0.702831 0.963407 0.313055 -0.220323
C58   C     C_R   0.297148 0.962585 0.684570 -0.216936
H25   H     H_    0.220458 0.433086 0.303359 0.157621
H26   H     H_    0.779088 0.565559 0.748775 0.166318
H27   H     H_    0.720426 0.933220 0.304395 0.155472
H28   H     H_    0.279496 0.932616 0.691051 0.153079
C59   C     C_R   0.157071 0.462325 0.356240 -0.165604
C60   C     C_R   0.842717 0.536983 0.672155 -0.161133
C61   C     C_R   0.657048 0.962396 0.356821 -0.167194
C62   C     C_R   0.342949 0.961927 0.640644 -0.178400
H29   H     H_    0.140091 0.431400 0.381182 0.167928
H30   H     H_    0.859482 0.567104 0.668155 0.168802
H31   H     H_    0.640052 0.931527 0.382142 0.166173
H32   H     H_    0.359940 0.931609 0.612902 0.158739
C63   C     C_R   0.133582 0.500854 0.367822 -0.097341
C64   C     C_R   0.866517 0.499297 0.632232 -0.090812
C65   C     C_R   0.633578 0.000854 0.367886 -0.097142
C66   C     C_R   0.366461 0.000108 0.632344 -0.090311
C67   C     C_R   0.156605 0.540479 0.335109 -0.245721
C68   C     C_R   0.843856 0.460720 0.638667 -0.247029
C69   C     C_R   0.656614 0.040415 0.334715 -0.243823
C70   C     C_R   0.343506 0.039010 0.668431 -0.223605
C71   C     C_R   0.202695 0.542034 0.291058 0.344602
C72   C     C_R   0.797717 0.459211 0.685318 0.355221
C73   C     C_R   0.702704 0.041974 0.290684 0.345098
C74   C     C_R   0.297438 0.040226 0.712559 0.347522
C75   C     C_R   0.225948 0.502740 0.279118 -0.029740
C76   C     C_R   0.774114 0.497543 0.725363 -0.032145
C77   C     C_R   0.725935 0.002749 0.279280 -0.029269
C78   C     C_R   0.274117 0.001284 0.721201 -0.026543
C79   C     C_R   0.297290 0.511206 0.151762 -0.089838
C80   C     C_R   0.703051 0.491699 0.741124 -0.079322
C81   C     C_R   0.797299 0.991262 0.259928 -0.129842
C82   C     C_R   0.202880 0.007407 0.849038 -0.094937
H33   H     H_    0.279701 0.519480 0.127889 0.143918
H34   H     H_    0.720866 0.485568 0.680691 0.143338
H35   H     H_    0.779758 0.984178 0.320065 0.139298
H36   H     H_    0.220564 0.014023 0.873395 0.141816
C83   C     C_R   0.343171 0.510412 0.104631 -0.118680
C84   C     C_R   0.657146 0.492345 0.787034 -0.165426
C85   C     C_R   0.843189 0.990895 0.212979 -0.143522
C86   C     C_R   0.157001 0.007004 0.896025 -0.140965
H37   H     H_    0.360350 0.518327 0.044881 0.176996
H38   H     H_    0.640189 0.486502 0.761175 0.159148
H39   H     H_    0.860395 0.983231 0.237758 0.159094
H40   H     H_    0.139960 0.013460 0.956171 0.160635
C87   C     C_R   0.366494 0.500115 0.134793 -0.032113
C88   C     C_R   0.633540 0.499910 0.865615 -0.017311
C89   C     C_R   0.866477 0.000105 0.134868 -0.020512
C90   C     C_R   0.133530 0.999020 0.865261 -0.013965
C91   C     C_R   0.343174 0.490129 0.212634 -0.174994
C92   C     C_R   0.656607 0.507458 0.897259 -0.118497
C93   C     C_R   0.843105 0.009629 0.104512 -0.156300
C94   C     C_R   0.156734 0.990771 0.786928 -0.153586
H41   H     H_    0.360359 0.481838 0.237217 0.158685
H42   H     H_    0.639265 0.513714 0.957535 0.167701
H43   H     H_    0.860241 0.016917 0.044556 0.159445
H44   H     H_    0.139456 0.984259 0.761826 0.158318
C95   C     C_R   0.297285 0.490504 0.259536 -0.130845
C96   C     C_R   0.702459 0.507113 0.851235 -0.132709
C97   C     C_R   0.797224 0.010429 0.151684 -0.088950
C98   C     C_R   0.202637 0.990803 0.740109 -0.124755
H45   H     H_    0.279717 0.482818 0.319474 0.139833
H46   H     H_    0.719774 0.512784 0.876526 0.143123
H47   H     H_    0.779598 0.018110 0.127654 0.141146
H48   H     H_    0.220113 0.984671 0.679745 0.142367
C99   C     C_R   0.274235 0.501470 0.229401 0.137812
C100  C     C_R   0.725817 0.498756 0.773217 0.138632
C101  C     C_R   0.774214 0.001455 0.229561 0.139134
C102  C     C_R   0.225822 0.999638 0.770877 0.135566
C103  C     C_R   0.000022 0.633180 0.001029 -0.265105
C104  C     C_R   0.500023 0.133183 0.001037 -0.264685
C105  C     C_R   0.017151 0.702561 0.933548 -0.202551
C106  C     C_R   0.983109 0.702346 0.068776 -0.211511
C107  C     C_R   0.517383 0.202558 0.933452 -0.193782
C108  C     C_R   0.482926 0.202357 0.068826 -0.208960
C109  C     C_R   0.498291 0.725513 0.007252 -0.031841
C110  C     C_R   0.998421 0.225484 0.997363 -0.031003
H49   H     H_    0.518506 0.361067 0.077618 0.161544
H50   H     H_    0.481689 0.360010 0.922942 0.160366
H51   H     H_    0.018776 0.861071 0.077233 0.158873
H52   H     H_    0.981371 0.860018 0.923382 0.158893
C111  C     C_R   0.000365 0.725675 0.001053 -0.034393
C112  C     C_R   0.500399 0.225677 0.001022 -0.034334
H53   H     H_    0.030174 0.720282 0.881031 0.179038
H54   H     H_    0.969627 0.720054 0.121361 0.180248
H55   H     H_    0.530563 0.220274 0.880872 0.181949
H56   H     H_    0.469290 0.220075 0.121455 0.181149
H57   H     H_    0.519297 0.280950 0.077198 0.143407
H58   H     H_    0.480932 0.279889 0.924688 0.144354
H59   H     H_    0.019558 0.780953 0.076819 0.140749
H60   H     H_    0.980585 0.779897 0.925164 0.142291
O17   O     O_R   0.962800 0.435720 0.037190 -0.604409
O18   O     O_R   0.037200 0.435720 0.962810 -0.588489
O19   O     O_R   0.462800 0.935720 0.037190 -0.602704
O20   O     O_R   0.537200 0.935720 0.962810 -0.590153
C113  C     C_R   0.999871 0.414875 0.999878 0.765008
C114  C     C_R   0.499867 0.914879 0.000669 0.763436
O21   O     O_R   0.962790 0.499990 0.947030 -0.577458
O22   O     O_R   0.037210 0.499990 0.052970 -0.591333
O23   O     O_R   0.462790 0.999990 0.947030 -0.574858
O24   O     O_R   0.537210 0.999990 0.052970 -0.590253
O25   O     O_R   0.037190 0.500000 0.872640 -0.612254
O26   O     O_R   0.962810 0.500000 0.127360 -0.566319
O27   O     O_R   0.537190 0.000000 0.872640 -0.614638
O28   O     O_R   0.462810 0.000000 0.127360 -0.566805
C115  C     C_R   0.000511 0.502146 0.880448 0.833341
C116  C     C_R   0.999710 0.497859 0.119131 0.839869
C117  C     C_R   0.500513 0.002153 0.880444 0.832754
C118  C     C_R   0.499718 0.997916 0.119114 0.839936
Cu5   Cu    Cu3+1 0.955950 0.499980 0.044050 1.018988
Cu6   Cu    Cu3+1 0.044050 0.499980 0.955950 0.981712
Cu7   Cu    Cu3+1 0.455950 0.999980 0.044050 1.022077
Cu8   Cu    Cu3+1 0.544050 0.999980 0.955950 0.981209
O29   O     O_R   0.962790 0.564250 0.037210 -0.548430
O30   O     O_R   0.037210 0.564250 0.962790 -0.584116
O31   O     O_R   0.462790 0.064250 0.037210 -0.547507
O32   O     O_R   0.537210 0.064250 0.962790 -0.582970
C119  C     C_R   0.510501 0.297865 0.044099 -0.146164
C120  C     C_R   0.489779 0.297272 0.957447 -0.147145
C121  C     C_R   0.010630 0.797866 0.043910 -0.154400
C122  C     C_R   0.989571 0.797276 0.957728 -0.152746
C123  C     C_R   0.000047 0.584945 0.000212 0.949898
C124  C     C_R   0.500046 0.084946 0.000221 0.949277
O33   O     O_R   0.500000 0.435740 0.052190 -0.594735
O34   O     O_R   0.500000 0.435740 0.947810 -0.593882
O35   O     O_R   0.000000 0.935740 0.052190 -0.597149
O36   O     O_R   0.000000 0.935740 0.947810 -0.595200
C125  C     C_R   0.500031 0.414948 0.999995 0.772188
C126  C     C_R   0.000025 0.914949 0.000001 0.764707
O37   O     O_R   0.435730 0.500010 0.116460 -0.594278
O38   O     O_R   0.564270 0.500010 0.883540 -0.588147
O39   O     O_R   0.935730 0.000010 0.116460 -0.565482
O40   O     O_R   0.064270 0.000010 0.883540 -0.574808
O41   O     O_R   0.435720 0.500010 0.012080 -0.573154
O42   O     O_R   0.564280 0.500010 0.987920 -0.581582
O43   O     O_R   0.935720 0.000010 0.012080 -0.600321
O44   O     O_R   0.064280 0.000010 0.987920 -0.594177
C127  C     C_R   0.414892 0.499977 0.085455 0.810712
C128  C     C_R   0.585116 0.499838 0.914575 0.848687
C129  C     C_R   0.914886 0.999972 0.085469 0.810161
C130  C     C_R   0.085111 0.999490 0.914550 0.841749
Cu9   Cu    Cu3+1 0.500000 0.500010 0.061800 1.006825
Cu10  Cu    Cu3+1 0.500000 0.500010 0.938200 1.028098
Cu11  Cu    Cu3+1 0.000000 0.000010 0.061800 1.025840
Cu12  Cu    Cu3+1 1.000000 0.000010 0.938200 1.005471
O45   O     O_R   0.500010 0.564280 0.052190 -0.571501
O46   O     O_R   0.499990 0.564280 0.947810 -0.533705
O47   O     O_R   0.000010 0.064280 0.052190 -0.532361
O48   O     O_R   0.999990 0.064280 0.947810 -0.570748
C131  C     C_R   0.510263 0.343667 0.044010 -0.171513
C132  C     C_R   0.489984 0.343078 0.956744 -0.176329
C133  C     C_R   0.010399 0.843669 0.043815 -0.181445
C134  C     C_R   0.989792 0.843082 0.957003 -0.182550
C135  C     C_R   0.499018 0.584884 0.000972 0.934431
C136  C     C_R   0.999036 0.084872 0.001054 0.934060
C137  C     C_R   0.037100 0.297234 0.975715 -0.147876
C138  C     C_R   0.960952 0.297738 0.019749 -0.148910
C139  C     C_R   0.537124 0.797178 0.950439 -0.153218
C140  C     C_R   0.460889 0.797846 0.060989 -0.149898
H61   H     H_    0.066553 0.279920 0.959547 0.145498
H62   H     H_    0.931218 0.280837 0.035537 0.147795
H63   H     H_    0.566601 0.779793 0.906912 0.140560
H64   H     H_    0.431108 0.780990 0.105617 0.144517
C141  C     C_R   0.037498 0.343046 0.976226 -0.176949
C142  C     C_R   0.961197 0.343550 0.021155 -0.183561
C143  C     C_R   0.537546 0.842983 0.948809 -0.177315
C144  C     C_R   0.461174 0.843667 0.058829 -0.189384
H65   H     H_    0.067373 0.360026 0.959579 0.160265
H66   H     H_    0.931552 0.360945 0.038510 0.159888
H67   H     H_    0.567457 0.859895 0.904670 0.157724
H68   H     H_    0.431538 0.861155 0.101607 0.152638
C145  C     C_R   0.999507 0.366563 0.999212 -0.031859
C146  C     C_R   0.499507 0.866580 0.002689 -0.026564
C147  C     C_R   0.500204 0.274232 0.000902 0.146830
C148  C     C_R   0.000162 0.774233 0.000950 0.148736
C149  C     C_R   0.500127 0.366640 0.000159 -0.029994
C150  C     C_R   0.000108 0.866642 0.000180 -0.028522
C151  C     C_R   0.998861 0.274108 0.997260 0.143837
C152  C     C_R   0.498807 0.774137 0.006577 0.147028
C153  C     C_R   0.461533 0.702379 0.022533 -0.198116
C154  C     C_R   0.535021 0.702157 0.990626 -0.212139
C155  C     C_R   0.961476 0.202280 0.056229 -0.195089
C156  C     C_R   0.035303 0.202192 0.939457 -0.203640
H69   H     H_    0.433096 0.720154 0.034865 0.179227
H70   H     H_    0.563333 0.719778 0.979799 0.179220
H71   H     H_    0.932923 0.219994 0.101617 0.179006
H72   H     H_    0.063755 0.219864 0.893130 0.182173
C157  C     C_R   0.461341 0.656409 0.019826 0.286035
C158  C     C_R   0.536123 0.656237 0.986393 0.304251
C159  C     C_R   0.961194 0.156306 0.058839 0.283922
C160  C     C_R   0.036352 0.156258 0.941042 0.295281
N1    N     N_R   0.028123 0.634524 0.865250 0.102365
O49   O     O_R   0.001121 0.605928 0.868718 -0.403111
O50   O     O_R   0.060548 0.649496 0.799035 -0.373640
N2    N     N_R   0.966685 0.633786 0.139883 0.131867
O51   O     O_R   0.986485 0.599080 0.140688 -0.390323
O52   O     O_R   0.935358 0.651174 0.204421 -0.337814
N3    N     N_R   0.528534 0.134516 0.865062 0.103321
O53   O     O_R   0.501555 0.106008 0.868253 -0.400136
O54   O     O_R   0.561140 0.149420 0.798950 -0.365818
N4    N     N_R   0.466228 0.133808 0.140075 0.133076
O55   O     O_R   0.485908 0.099085 0.141165 -0.388994
O56   O     O_R   0.434773 0.151217 0.204479 -0.330494
H73   H     H_    0.138663 0.570506 0.344571 0.197333
H74   H     H_    0.862112 0.431440 0.608094 0.188850
H75   H     H_    0.638680 0.070385 0.343769 0.198246
H76   H     H_    0.361498 0.068767 0.661566 0.198671
N5    N     N_R   0.225017 0.583584 0.260506 0.119462
O57   O     O_R   0.260601 0.592657 0.255320 -0.309716
O58   O     O_R   0.207159 0.614451 0.245736 -0.338552
N6    N     N_R   0.775703 0.418519 0.692742 0.115781
O59   O     O_R   0.739792 0.406922 0.757790 -0.338596
O60   O     O_R   0.794244 0.390475 0.636921 -0.356310
N7    N     N_R   0.725051 0.083457 0.259555 0.117849
O61   O     O_R   0.760706 0.092679 0.254048 -0.299971
O62   O     O_R   0.707173 0.114139 0.244489 -0.338595
N8    N     N_R   0.275195 0.081158 0.746503 0.119133
O63   O     O_R   0.239889 0.091366 0.751744 -0.297414
O64   O     O_R   0.292945 0.110609 0.764328 -0.336659
N9    N     N_R   0.421965 0.634284 0.039313 0.115344
O65   O     O_R   0.423999 0.602661 0.997063 -0.349604
O66   O     O_R   0.383552 0.649982 0.092882 -0.315260
N10   N     N_R   0.575326 0.633822 0.966001 0.126360
O67   O     O_R   0.590677 0.601187 0.918345 -0.388148
O68   O     O_R   0.599178 0.649823 0.986296 -0.348779
N11   N     N_R   0.921589 0.134132 0.118686 0.115910
O69   O     O_R   0.923209 0.101967 0.156350 -0.335860
O70   O     O_R   0.883336 0.150130 0.142936 -0.311214
N12   N     N_R   0.075699 0.133895 0.881930 0.135319
O71   O     O_R   0.090662 0.100960 0.898458 -0.360629
O72   O     O_R   0.100013 0.150172 0.813366 -0.319005

loop_
_geom_bond_atom_site_label_1
_geom_bond_atom_site_label_2
_geom_bond_distance
_ccdc_geom_bond_type
C55   H25   1.083648 S    
C81   H35   1.083350 S    
H21   C47   1.083673 S    
C86   H40   1.082883 S    
C140  H64   1.082801 S    
C62   C66   1.401048 A    
C137  H61   1.082754 S    
C94   H44   1.082897 S    
C23   H13   1.082648 S    
C52   C116  1.458053 S    
O18   C113  1.295640 A    
C31   C51   1.429132 A    
C11   C104  1.412378 A    
C56   H26   1.083680 S    
C108  C112  1.401099 A    
C89   C93   1.404751 A    
C12   N4    1.439062 S    
C92   H42   1.082916 S    
C110  C156  1.400306 A    
N10   O67   1.300504 A    
C91   H41   1.082944 S    
O4    C4    1.295154 A    
C73   N7    1.440764 S    
O19   C114  1.295063 A    
C12   C104  1.416197 A    
O22   C116  1.292526 A    
Cu11  Cu12  2.685544 S    
C17   C21   1.390882 A    
C108  H56   1.083023 S    
N4    O56   1.301458 A    
C122  C134  1.393061 A    
N12   O71   1.300557 A    
C61   C65   1.401083 A    
C13   C135  1.465010 S    
C137  C141  1.393319 A    
O16   Cu4   1.970369 S    
O13   C5    1.288847 A    
O7    Cu4   1.961499 S    
C16   C36   1.415055 A    
C93   C97   1.393497 A    
O15   C7    1.288833 A    
C132  C149  1.402702 A    
C38   C42   1.417227 A    
O4    Cu2   1.961533 S    
C5    C39   1.446435 S    
C119  C147  1.403693 A    
O9    C5    1.289386 A    
O24   Cu8   1.967868 S    
H52   C134  1.083035 S    
C160  N12   1.439067 S    
N2    O51   1.300095 A    
C27   C31   1.418912 A    
O27   Cu8   1.972742 S    
C120  C132  1.393055 A    
O8    Cu4   1.963865 S    
O33   Cu9   1.965516 S    
C15   C19   1.390906 A    
C16   C20   1.393543 A    
C88   C128  1.470296 S    
O3    Cu2   1.963896 S    
C58   C78   1.401915 A    
C103  C123  1.466978 S    
C25   H15   1.082651 S    
C67   C71   1.401327 A    
C43   C47   1.381865 A    
C139  H63   1.082783 S    
C60   C64   1.400456 A    
C30   H20   1.080594 S    
C21   H11   1.082634 S    
O44   Cu11  1.960492 S    
C125  C149  1.469145 S    
C95   C99   1.399763 A    
C96   C100  1.399757 A    
O3    C3    1.295632 A    
O18   Cu6   1.964089 S    
C32   C52   1.418338 A    
C73   C77   1.414597 A    
C20   H10   1.082636 S    
C156  C160  1.398691 A    
C33   C37   1.417263 A    
N9    O65   1.300167 A    
C144  C146  1.403684 A    
C74   C78   1.414638 A    
C35   C39   1.411033 A    
O16   C8    1.290226 A    
C97   H47   1.083362 S    
H57   C119  1.082887 S    
O39   Cu11  1.965261 S    
C13   C158  1.415629 A    
C157  N9    1.439454 S    
C34   C54   1.417814 A    
O5    C1    1.297987 A    
C105  H53   1.083102 S    
C53   C117  1.465644 S    
H4    C46   1.083940 S    
C28   H18   1.080444 S    
O36   Cu12  1.965797 S    
C142  C145  1.403576 A    
C30   C34   1.415211 A    
C48   C52   1.397904 A    
C21   C25   1.387698 A    
N6    O59   1.301315 A    
C14   C136  1.464262 S    
C66   C70   1.403939 A    
N8    O64   1.301471 A    
O5    Cu3   1.961499 S    
C83   H37   1.082952 S    
C154  C158  1.398679 A    
O2    C2    1.296988 A    
C144  H68   1.083154 S    
C23   C27   1.394101 A    
C24   C28   1.394121 A    
C15   C35   1.415474 A    
C140  C144  1.394063 A    
H59   C121  1.082877 S    
O8    C4    1.298005 A    
C97   C101  1.400673 A    
C112  C147  1.476679 S    
C79   C99   1.400813 A    
C69   H75   1.083015 S    
C120  C147  1.405104 A    
C70   H76   1.083098 S    
C138  H62   1.082765 S    
O23   C117  1.300574 A    
N5    O58   1.301480 A    
O48   C136  1.297021 A    
C121  C133  1.392993 A    
C56   C60   1.390871 A    
O13   Cu3   1.970087 S    
O26   C116  1.290622 A    
Cu8   O32   1.966714 S    
C9    N1    1.433586 S    
N11   O70   1.301455 A    
C64   C68   1.403671 A    
C91   C95   1.393471 A    
C87   C91   1.405206 A    
C69   C73   1.401362 A    
N1    O49   1.300586 A    
O20   Cu8   1.964089 S    
O28   C118  1.290643 A    
C71   C75   1.414635 A    
C80   H34   1.083320 S    
C9    C103  1.412396 A    
O15   Cu4   1.970087 S    
C18   C22   1.393705 A    
C141  C145  1.402645 A    
O40   C130  1.299007 A    
C137  C151  1.405353 A    
C63   C67   1.404417 A    
C138  C142  1.393615 A    
C49   C53   1.400077 A    
C2    C64   1.469022 S    
C14   C159  1.416957 A    
C109  C153  1.400665 A    
Cu11  O47   1.965769 S    
C17   H7    1.081103 S    
C67   H73   1.083010 S    
C56   C76   1.401811 A    
C59   H29   1.082944 S    
C94   C98   1.393764 A    
C36   C40   1.416777 A    
H58   C120  1.082809 S    
C154  H70   1.083070 S    
C87   C127  1.469549 S    
O43   C129  1.298691 A    
O10   C6    1.292913 A    
H60   C122  1.082804 S    
H50   C132  1.083031 S    
C111  C148  1.476766 S    
C10   C106  1.400571 A    
H23   C49   1.083661 S    
C79   C83   1.393479 A    
C107  H55   1.083113 S    
C109  C154  1.400204 A    
C16   H6    1.080931 S    
N10   O68   1.301420 A    
C82   C102  1.400641 A    
C119  C131  1.392983 A    
C44   C48   1.383293 A    
C41   C45   1.392439 A    
C57   C77   1.401510 A    
C26   H16   1.082563 S    
C40   C44   1.395929 A    
O36   C126  1.299207 A    
O46   C135  1.295311 A    
C10   N2    1.439060 S    
Cu7   Cu8   2.675210 S    
C22   H12   1.082569 S    
N12   O72   1.301435 A    
C96   H46   1.083400 S    
O42   Cu9   1.960492 S    
C50   C54   1.397735 A    
C57   C61   1.391633 A    
Cu9   Cu10  2.685544 S    
C18   H8    1.080878 S    
C89   C129  1.469896 S    
C141  H65   1.083058 S    
C109  C152  1.478702 S    
C98   H48   1.083336 S    
C143  H67   1.083080 S    
C110  C151  1.478688 S    
C72   C76   1.415269 A    
N2    O52   1.301458 A    
C159  N11   1.439704 S    
N7    O61   1.301368 A    
O14   C6    1.290209 A    
C153  H69   1.083136 S    
H24   C50   1.083848 S    
C51   C115  1.465550 S    
C155  H71   1.083090 S    
C1    C63   1.471133 S    
C88   C92   1.405165 A    
C156  H72   1.083021 S    
O1    C1    1.295643 A    
O20   C114  1.295547 A    
C158  N10   1.438841 S    
H1    C43   1.084110 S    
C19   H9    1.082634 S    
C155  C159  1.399077 A    
C42   C46   1.396107 A    
O33   C125  1.297480 A    
C60   H30   1.083042 S    
C22   C26   1.390379 A    
C33   C53   1.429234 A    
N3    O53   1.300583 A    
C131  C149  1.403976 A    
C104  C124  1.467042 S    
C82   C86   1.393055 A    
C12   C108  1.400561 A    
Cu5   Cu6   2.675210 S    
C98   C102  1.399815 A    
C37   C41   1.410994 A    
C110  C155  1.400647 A    
C71   N5    1.440712 S    
O23   Cu7   1.967864 S    
H51   C133  1.083023 S    
C4    C66   1.470172 S    
O28   Cu7   1.972746 S    
C126  C150  1.469099 S    
Cu9   O45   1.965769 S    
C58   C62   1.392122 A    
H3    C45   1.084110 S    
C7    C41   1.446355 S    
O38   Cu10  1.965257 S    
O41   C127  1.298462 A    
C84   H38   1.082868 S    
C25   C29   1.394101 A    
C106  C111  1.401126 A    
O6    C2    1.295603 A    
C13   C157  1.416995 A    
O32   C124  1.295231 A    
C80   C84   1.394152 A    
C55   C59   1.391598 A    
C81   C85   1.393505 A    
C86   C90   1.404835 A    
O30   C123  1.295202 A    
N11   O69   1.300181 A    
O40   Cu12  1.965257 S    
C39   C43   1.392492 A    
C134  C150  1.402665 A    
C78   C102  1.467015 S    
C29   H19   1.076162 S    
O26   Cu5   1.972746 S    
C85   H39   1.082927 S    
N6    O60   1.301495 A    
O43   Cu12  1.960492 S    
C72   N6    1.440124 S    
O2    Cu1   1.961533 S    
O10   Cu1   1.970343 S    
C93   H43   1.082911 S    
O41   Cu10  1.960492 S    
O19   Cu7   1.966449 S    
C139  C143  1.393236 A    
C24   H14   1.082537 S    
C90   C130  1.470330 S    
C105  C111  1.399183 A    
O47   C136  1.294970 A    
C34   C38   1.416973 A    
C68   H74   1.083269 S    
C107  C112  1.399155 A    
O45   C135  1.297075 A    
Cu5   O29   1.964359 S    
C92   C96   1.392395 A    
C143  C146  1.402548 A    
C32   C36   1.416966 A    
C84   C88   1.405061 A    
C85   C89   1.405389 A    
C11   C107  1.396360 A    
N5    O57   1.301358 A    
O7    C3    1.297965 A    
C54   C118  1.457481 S    
C83   C87   1.404701 A    
O22   Cu6   1.967868 S    
C77   C101  1.466720 S    
C79   H33   1.083349 S    
C17   C37   1.415473 A    
C140  C152  1.404702 A    
O35   Cu11  1.965516 S    
C29   C33   1.418960 A    
C121  C148  1.403728 A    
O37   C127  1.298654 A    
C8    C42   1.455370 S    
C65   C69   1.404392 A    
C46   C50   1.383311 A    
O34   Cu10  1.965797 S    
C26   C30   1.393932 A    
Cu6   O30   1.966714 S    
N9    O66   1.301435 A    
C61   H31   1.082948 S    
O31   C124  1.291528 A    
O11   C7    1.289359 A    
O12   C8    1.293239 A    
O1    Cu1   1.963896 S    
O9    Cu1   1.970619 S    
C139  C152  1.405282 A    
C45   C49   1.381837 A    
O24   C118  1.292145 A    
C14   C160  1.415608 A    
C57   H27   1.083648 S    
C27   H17   1.076203 S    
N7    O62   1.301472 A    
H22   C48   1.083842 S    
C142  H66   1.083050 S    
C74   N8    1.440597 S    
Cu7   O31   1.964359 S    
O11   Cu2   1.970619 S    
C15   H5    1.081102 S    
C113  C145  1.469359 S    
O25   C115  1.286898 A    
O42   C128  1.297877 A    
C70   C74   1.400717 A    
O37   Cu9   1.965261 S    
N8    O63   1.301380 A    
O6    Cu3   1.963865 S    
O27   C117  1.286874 A    
Cu10  O46   1.965492 S    
O21   C115  1.300495 A    
N3    O54   1.301357 A    
C59   C63   1.401076 A    
C11   N3    1.433524 S    
C55   C75   1.401582 A    
O39   C129  1.298599 A    
C18   C38   1.415015 A    
C95   H45   1.083356 S    
O25   Cu6   1.972742 S    
C3    C65   1.471069 S    
C81   C101  1.399650 A    
C19   C23   1.387718 A    
Cu12  O48   1.965492 S    
C20   C24   1.390350 A    
C62   H32   1.083073 S    
N4    O55   1.300082 A    
O14   Cu3   1.970369 S    
C80   C100  1.401002 A    
C9    C105  1.396381 A    
O12   Cu2   1.970343 S    
O29   C123  1.291523 A    
C82   H36   1.083374 S    
C114  C146  1.469285 S    
Cu1   Cu3   2.679229 S    
O34   C125  1.299212 A    
O44   C130  1.298478 A    
Cu2   Cu4   2.679229 S    
C6    C40   1.454813 S    
N1    O50   1.301362 A    
C106  H54   1.083015 S    
C31   C35   1.417249 A    
H2    C44   1.083948 S    
O17   C113  1.295012 A    
C58   H28   1.083605 S    
O21   Cu5   1.967864 S    
C28   C32   1.415202 A    
C122  C148  1.405138 A    
C10   C103  1.416161 A    
O17   Cu5   1.966449 S    
C133  C150  1.403957 A    
O38   C128  1.299546 A    
O35   C126  1.297463 A    
C47   C51   1.400050 A    
C75   C99   1.466938 S    
C90   C94   1.405443 A    
C138  C151  1.404610 A    
C76   C100  1.467387 S    
H49   C131  1.083020 S    
C68   C72   1.401422 A    
C153  C157  1.399379 A    
