data_mof_unit_35103.cif
_audit_creation_date              2012-12-10T16:49:22-0500
_audit_creation_method            fapswitch 2.2
_symmetry_space_group_name_H-M    P1
_symmetry_Int_Tables_number       1
_space_group_crystal_system       triclinic
_cell_length_a                    7.81776
_cell_length_b                    8.573535
_cell_length_c                    12.861694
_cell_angle_alpha                 87.439823
_cell_angle_beta                  88.455751
_cell_angle_gamma                 92.174139
_cell_volume                      860.231097001

loop_
_atom_site_label
_atom_site_type_symbol
_atom_type_description
_atom_site_fract_x
_atom_site_fract_y
_atom_site_fract_z
_atom_type_partial_charge
C1    C     C_R   0.457625 0.206311 0.495171 0.947310
C2    C     C_R   0.649824 0.362288 0.156820 -0.260721
C3    C     C_R   0.564468 0.399613 0.876140 -0.014669
C4    C     C_R   0.429515 0.550770 0.123798 -0.120551
C5    C     C_R   0.538645 0.398273 0.984576 0.083956
C6    C     C_R   0.409555 0.492727 0.024760 0.045013
C7    C     C_2   0.449659 0.048225 0.471577 -0.202570
C8    C     C_2   0.549559 0.951920 0.526666 -0.265297
C9    C     C_2   0.350914 0.699854 0.150986 0.449935
C10   C     C_2   0.732468 0.352252 0.833951 0.510726
C11   C     C_2   0.102091 0.575681 0.007868 0.431112
C12   C     C_R   0.542381 0.793772 0.503894 0.966959
C13   C     C_2   0.737311 0.175031 0.030316 0.445698
C14   C     C_1   0.988529 0.647123 0.400121 0.376204
C15   C     C_1   0.013253 0.350101 0.597236 0.431940
C16   C     C_2   0.377336 0.014681 0.368678 0.379382
C17   C     C_2   0.612878 0.984363 0.631659 0.472488
C18   C     C_R   0.465609 0.491879 0.700039 0.940371
C19   C     C_R   0.533168 0.500936 0.300290 0.890390
C20   C     C_R   0.546041 0.479642 0.190470 -0.074286
C21   C     C_R   0.440229 0.468807 0.812052 -0.124503
C22   C     C_R   0.269717 0.531662 0.962561 0.014948
C23   C     C_R   0.645930 0.318077 0.054750 -0.057478
C24   C     C_R   0.287525 0.519181 0.855935 -0.180320
H1    H     H_    0.727736 0.299271 0.211893 0.156007
H2    H     H_    0.185145 0.557045 0.806739 0.198489
H3    H     H_    0.288978 0.713096 0.226020 0.114417
H4    H     H_    0.849985 0.397652 0.866238 0.051111
H5    H     H_    0.070126 0.548164 0.089425 0.034826
H6    H     H_    0.852913 0.146888 0.070952 0.064917
H7    H     H_    0.262104 0.070672 0.343860 0.083274
H8    H     H_    0.735830 0.942645 0.655517 0.099321
N1    N     N_2   0.054030 0.541640 0.471970 -0.166778
N2    N     N_2   0.945970 0.458360 0.528030 -0.164928
N3    N     N_1   0.935747 0.735780 0.339701 -0.223931
N4    N     N_1   0.068477 0.259146 0.655160 -0.176611
O1    O     O_R   0.609680 0.261530 0.506880 -0.605788
O2    O     O_2   0.740775 0.254913 0.768142 -0.507803
O3    O     O_2   0.997631 0.642255 0.954678 -0.552809
O4    O     O_2   0.678789 0.082622 0.969714 -0.451700
O5    O     O_2   0.452661 0.933546 0.308331 -0.573286
O6    O     O_2   0.521419 0.047188 0.694463 -0.490546
O7    O     O_R   0.390320 0.738470 0.493120 -0.603246
O8    O     O_R   0.323330 0.288220 0.488910 -0.654003
O9    O     O_R   0.676670 0.711780 0.511090 -0.648665
O10   O     O_R   0.619510 0.488830 0.661140 -0.605286
O11   O     O_R   0.380490 0.511170 0.338860 -0.661013
O12   O     O_R   0.333160 0.515520 0.643180 -0.643593
O13   O     O_R   0.666840 0.484480 0.356820 -0.625865
O14   O     O_2   0.355267 0.810963 0.087991 -0.478686
Zn1   Zn    Zn3+2 0.691200 0.482180 0.511990 0.988203
Zn2   Zn    Zn3+2 0.308800 0.517820 0.488010 0.957937

loop_
_geom_bond_atom_site_label_1
_geom_bond_atom_site_label_2
_ccdc_geom_bond_type
O11   Zn2   S    
C8    C12   S    
C2    H1    S    
C18   C21   S    
C19   O13   A    
C1    O8    A    
C8    C17   S    
C5    C23   A    
C1    O1    A    
C10   O2    D    
C16   O5    D    
O8    Zn2   S    
C14   N1    S    
N1    N2    D    
C7    C8    D    
C3    C10   S    
N1    Zn2   S    
C11   O3    D    
C9    H3    S    
N2    Zn1   S    
C18   O10   A    
C7    C16   S    
C24   H2    S    
C12   O7    A    
C22   C24   A    
C5    C6    A    
O1    Zn1   S    
C19   O11   A    
O7    Zn2   S    
C3    C21   A    
C11   H5    S    
O9    Zn1   S    
C2    C20   A    
C4    C20   A    
C15   N4    T    
O12   Zn2   S    
C13   H6    S    
C13   C23   S    
C11   C22   S    
C4    C6    A    
C21   C24   A    
C10   H4    S    
C2    C23   A    
C17   H8    S    
C17   O6    D    
C13   O4    D    
C6    C22   A    
C15   N2    S    
C3    C5    A    
C4    C9    S    
C1    C7    S    
C16   H7    S    
O10   Zn1   S    
C14   N3    T    
C9    O14   D    
C19   C20   S    
C12   O9    A    
O13   Zn1   S    
C18   O12   A    
