data_mof_unit_54592.cif
_audit_creation_date              2012-12-11T15:43:54-0500
_audit_creation_method            fapswitch 2.2
_symmetry_space_group_name_H-M    P1
_symmetry_Int_Tables_number       1
_space_group_crystal_system       triclinic
_cell_length_a                    14.549517
_cell_length_b                    16.282099
_cell_length_c                    6.904981
_cell_angle_alpha                 90.000043
_cell_angle_beta                  98.880083
_cell_angle_gamma                 90.000017
_cell_volume                      1616.16006717

loop_
_atom_site_label
_atom_site_type_symbol
_atom_type_description
_atom_site_fract_x
_atom_site_fract_y
_atom_site_fract_z
_atom_type_partial_charge
O1    O     O_R   0.831700 0.662810 0.581550 -0.549833
O2    O     O_R   0.168300 0.337190 0.418450 -0.556439
O3    O     O_R   0.168300 0.162810 0.418450 -0.549832
O4    O     O_R   0.831700 0.837190 0.581550 -0.556442
O5    O     O_R   0.842890 0.834390 0.255500 -0.531291
O6    O     O_R   0.157110 0.165610 0.744500 -0.531319
O7    O     O_R   0.157110 0.334390 0.744500 -0.531288
O8    O     O_R   0.842890 0.665610 0.255500 -0.531319
O9    O     O_R   0.661690 0.835580 0.024130 -0.540586
O10   O     O_R   0.338310 0.164420 0.975870 -0.539160
O11   O     O_R   0.338310 0.335580 0.975870 -0.540587
O12   O     O_R   0.661690 0.664420 0.024130 -0.539159
C1    C     C_R   0.868345 0.862355 0.433319 0.662187
C2    C     C_R   0.131653 0.137655 0.566667 0.697477
C3    C     C_R   0.131657 0.362357 0.566682 0.662191
C4    C     C_R   0.868349 0.637656 0.433333 0.697476
C5    C     C_R   0.061055 0.069537 0.530911 -0.172807
C6    C     C_R   0.939147 0.930342 0.469043 -0.170534
C7    C     C_R   0.938949 0.569540 0.469091 -0.172806
C8    C     C_R   0.060857 0.430345 0.530959 -0.170536
H1    H     H_    0.896765 0.980974 0.182544 0.162096
H2    H     H_    0.103683 0.018788 0.817194 0.163851
H3    H     H_    0.103240 0.480978 0.817457 0.162102
H4    H     H_    0.896324 0.518792 0.182805 0.163848
C9    C     C_R   0.943034 0.988380 0.320320 -0.050313
C10   C     C_R   0.057318 0.011417 0.679523 -0.039889
C11   C     C_R   0.056971 0.488385 0.679681 -0.050299
C12   C     C_R   0.942689 0.511422 0.320477 -0.039895
O13   O     O_3   0.687240 0.750000 0.366320 -0.348657
O14   O     O_3   0.312760 0.250000 0.633680 -0.348660
V1    V     V_3+5 0.757720 0.750000 0.115230 1.495766
V2    V     V_3+5 0.242280 0.250000 0.884770 1.495777
O15   O     O_R   0.650500 0.664000 0.690740 -0.526881
O16   O     O_R   0.349500 0.336000 0.309260 -0.528798
O17   O     O_R   0.349500 0.164000 0.309260 -0.526882
O18   O     O_R   0.650500 0.836000 0.690740 -0.528797
C13   C     C_R   0.631216 0.634001 0.855177 0.763826
C14   C     C_R   0.374030 0.361910 0.146089 0.758221
C15   C     C_R   0.368784 0.134001 0.144823 0.763824
C16   C     C_R   0.625970 0.861910 0.853911 0.758223
C17   C     C_R   0.001841 0.057801 0.348227 -0.007060
C18   C     C_R   0.998464 0.942013 0.651647 -0.007731
C19   C     C_R   0.998163 0.557805 0.651775 -0.007064
C20   C     C_R   0.001541 0.442017 0.348354 -0.007733
V3    V     V_3+5 0.735670 0.750000 0.607790 1.498746
V4    V     V_3+5 0.264330 0.250000 0.392210 1.498754
O19   O     O_3   0.806150 0.750000 0.906560 -0.386876
O20   O     O_3   0.193850 0.250000 0.093440 -0.386871
C21   C     C_2   0.555696 0.928193 0.848183 -0.349388
C22   C     C_2   0.433445 0.063343 0.147617 -0.348357
C23   C     C_2   0.444304 0.428193 0.151817 -0.349388
C24   C     C_2   0.566555 0.563343 0.852383 -0.348358
C25   C     C_2   0.509940 0.947525 0.000635 -0.068090
C26   C     C_2   0.443627 0.017580 0.985997 -0.059630
C27   C     C_2   0.490060 0.447525 0.999365 -0.068089
C28   C     C_2   0.556372 0.517580 0.014003 -0.059630
H5    H     H_    0.474585 0.048233 0.288109 0.140237
H6    H     H_    0.542880 0.964293 0.714385 0.143287
H7    H     H_    0.525415 0.548234 0.711891 0.140237
H8    H     H_    0.457120 0.464293 0.285615 0.143288
C29   C     C_2   0.995483 0.119060 0.187345 0.391571
H9    H     H_    0.021584 0.180602 0.215080 0.041223
O21   O     O_2   0.959011 0.101799 0.020992 -0.530438
C30   C     C_2   0.004858 0.880715 0.812445 0.395020
H10   H     H_    0.978459 0.819263 0.784784 0.042626
O22   O     O_2   0.041694 0.897833 0.978632 -0.527712
C31   C     C_2   0.004517 0.619062 0.812663 0.391569
H11   H     H_    0.978410 0.680601 0.784938 0.041232
O23   O     O_2   0.040990 0.601800 0.979013 -0.530434
C32   C     C_2   0.995146 0.380718 0.187560 0.395047
H12   H     H_    0.021526 0.319260 0.215236 0.042604
O24   O     O_2   0.958330 0.397842 0.021364 -0.527714
C33   C     C_1   0.386045 0.030352 0.797003 0.356083
N1    N     N_1   0.340269 0.039873 0.646090 -0.355184
C34   C     C_1   0.516573 0.897021 0.175315 0.352158
N2    N     N_1   0.520565 0.856961 0.314716 -0.337420
C35   C     C_1   0.613955 0.530352 0.202997 0.356081
N3    N     N_1   0.659731 0.539873 0.353909 -0.355184
C36   C     C_1   0.483426 0.397020 0.824685 0.352154
N4    N     N_1   0.479435 0.356961 0.685284 -0.337422

loop_
_geom_bond_atom_site_label_1
_geom_bond_atom_site_label_2
_ccdc_geom_bond_type
O6    V2    S    
C27   C28   S    
C21   H6    S    
O15   V3    S    
C33   N1    T    
C17   C29   S    
C35   N3    T    
O2    V4    S    
C22   C26   D    
C1    C6    S    
C5    C10   A    
O8    V1    S    
C6    C18   A    
C16   C21   S    
O12   C13   A    
O4    C1    A    
C29   O21   D    
C20   C32   S    
C32   H12   S    
O16   V4    S    
H3    C11   S    
O5    C1    A    
O7    C3    A    
O8    C4    A    
V1    O19   S    
V2    O20   S    
C2    C5    S    
C25   C34   S    
C6    C9    A    
C8    C20   A    
C7    C19   A    
O4    V3    S    
V3    O19   S    
C3    C8    S    
V4    O20   S    
C31   H11   S    
O18   C16   A    
C9    C17   A    
C13   C24   S    
C14   C23   S    
C25   C26   S    
C12   C20   A    
O9    C16   A    
O15   C13   A    
C28   C35   S    
O13   V3    S    
O10   C15   A    
C31   O23   D    
C30   O22   D    
O11   C14   A    
O17   C15   A    
C34   N2    T    
C7    C12   A    
C24   H7    S    
C11   C19   A    
O6    C2    A    
C26   C33   S    
C27   C36   S    
O18   V3    S    
O1    C4    A    
O2    C3    A    
O3    C2    A    
O11   V2    S    
O12   V1    S    
C18   C30   S    
C10   C18   A    
H1    C9    S    
O7    V2    S    
O16   C14   A    
C22   H5    S    
O14   V4    S    
H4    C12   S    
C8    C11   A    
O3    V4    S    
C30   H10   S    
O13   V1    S    
O14   V2    S    
O1    V3    S    
C4    C7    S    
C21   C25   D    
C23   C27   D    
C29   H9    S    
C5    C17   A    
O9    V1    S    
C36   N4    T    
O10   V2    S    
C15   C22   S    
C19   C31   S    
H2    C10   S    
C32   O24   D    
C23   H8    S    
O17   V4    S    
C24   C28   D    
O5    V1    S    
