data_mof_unit_68559.cif
_audit_creation_date              2012-12-10T18:19:56-0500
_audit_creation_method            fapswitch 2.2
_symmetry_space_group_name_H-M    P1
_symmetry_Int_Tables_number       1
_space_group_crystal_system       triclinic
_cell_length_a                    10.699737
_cell_length_b                    10.784145
_cell_length_c                    9.570935
_cell_angle_alpha                 89.84716
_cell_angle_beta                  92.130955
_cell_angle_gamma                 88.405918
_cell_volume                      1103.16800775

loop_
_atom_site_label
_atom_site_type_symbol
_atom_type_description
_atom_site_fract_x
_atom_site_fract_y
_atom_site_fract_z
_atom_type_partial_charge
C1    C     C_R   0.500325 0.259526 0.499973 0.779719
C2    C     C_R   0.499675 0.740474 0.500027 0.779709
C3    C     C_3   0.500297 0.959258 0.632122 -0.159202
C4    C     C_3   0.499706 0.040742 0.367880 -0.159214
C5    C     C_3   0.568547 0.587754 0.054820 -0.203604
C6    C     C_3   0.431453 0.412246 0.945180 -0.203601
C7    C     C_3   0.456665 0.603623 0.949955 0.014759
C8    C     C_3   0.543335 0.396377 0.050046 0.014762
C9    C     C_3   0.610757 0.483892 0.955130 0.467326
C10   C     C_3   0.389243 0.516108 0.044870 0.467326
C11   C     C_R   0.259952 0.499252 0.497668 0.842520
C12   C     C_R   0.740047 0.500751 0.502332 0.842525
C13   C     C_3   0.051329 0.455100 0.620992 -0.277529
C14   C     C_3   0.948670 0.544912 0.379009 -0.277525
C15   C     C_3   0.962031 0.384685 0.520852 0.381177
C16   C     C_3   0.037967 0.615326 0.479150 0.381174
C17   C     C_3   0.877199 0.501370 0.506579 -0.125905
C18   C     C_3   0.122800 0.498641 0.493423 -0.125905
C19   C     C_3   0.965655 0.572757 0.605393 -0.050199
C20   C     C_3   0.034343 0.427255 0.394608 -0.050196
C21   C     C_3   0.602953 0.038388 0.569782 -0.133458
C22   C     C_3   0.397050 0.961613 0.430220 -0.133468
C23   C     C_3   0.602444 0.955433 0.438030 -0.154877
C24   C     C_3   0.397558 0.044567 0.561972 -0.154876
C25   C     C_3   0.499780 0.878134 0.500370 0.010000
C26   C     C_3   0.500223 0.121866 0.499632 0.009995
Cu1   Cu    Cu3+1 0.500030 0.499990 0.643150 0.996844
Cu2   Cu    Cu3+1 0.499970 0.500010 0.356850 0.996847
H1    H     H_    0.097354 0.414433 0.716816 0.161543
H2    H     H_    0.902645 0.585578 0.283185 0.161542
H3    H     H_    0.686522 0.916637 0.387416 0.142162
H4    H     H_    0.313481 0.083363 0.612587 0.142159
H5    H     H_    0.687224 0.071208 0.628131 0.197451
H6    H     H_    0.312778 0.928794 0.371868 0.197447
H7    H     H_    0.502180 0.924682 0.740467 0.154281
H8    H     H_    0.497826 0.075323 0.259536 0.154287
H9    H     H_    0.628259 0.659307 0.103753 0.137202
H10   H     H_    0.371738 0.340694 0.896248 0.137201
N1    N     N_3   0.500090 0.499970 0.858290 -0.210270
N2    N     N_3   0.499910 0.500030 0.141710 -0.210270
O1    O     O_R   0.500060 0.316850 0.620870 -0.566840
O2    O     O_R   0.499940 0.683150 0.379130 -0.566841
O3    O     O_R   0.500000 0.316860 0.379090 -0.589244
O4    O     O_R   0.500000 0.683140 0.620910 -0.589249
O5    O     O_R   0.316880 0.499960 0.620870 -0.624702
O6    O     O_R   0.683120 0.500040 0.379130 -0.624698
O7    O     O_R   0.316830 0.499970 0.379090 -0.498738
O8    O     O_R   0.683170 0.500030 0.620910 -0.498741
Cl1   Cl    Cl    0.911133 0.232688 0.557997 -0.679095
Cl2   Cl    Cl    0.088866 0.767322 0.441997 -0.679104
C27   C     C_R   0.926145 0.652200 0.724644 0.146764
C28   C     C_R   0.979621 0.632484 0.859388 -0.086820
C29   C     C_R   0.932100 0.695839 0.973253 -0.065632
C30   C     C_R   0.829802 0.777304 0.953409 -0.137282
C31   C     C_R   0.780918 0.802970 0.818825 -0.103884
C32   C     C_R   0.829698 0.741574 0.704107 -0.060122
H11   H     H_    0.054289 0.564605 0.877934 0.155802
H12   H     H_    0.971540 0.678263 0.077229 0.180125
H13   H     H_    0.786875 0.817537 0.042842 0.106472
H14   H     H_    0.703691 0.868159 0.803551 0.116485
H15   H     H_    0.788750 0.759512 0.600593 0.105535
C33   C     C_R   0.073853 0.347810 0.275361 0.146771
C34   C     C_R   0.020384 0.367528 0.140614 -0.086821
C35   C     C_R   0.067907 0.304167 0.026753 -0.065634
C36   C     C_R   0.170199 0.222688 0.046608 -0.137262
C37   C     C_R   0.219070 0.197010 0.181199 -0.103886
C38   C     C_R   0.170293 0.258421 0.295909 -0.060134
H16   H     H_    0.945719 0.435415 0.122061 0.155804
H17   H     H_    0.028470 0.321746 0.922774 0.180120
H18   H     H_    0.213129 0.182450 0.957181 0.106472
H19   H     H_    0.296285 0.131794 0.196486 0.116480
H20   H     H_    0.211234 0.240479 0.399429 0.105543
C39   C     C_R   0.388814 0.722073 0.905318 0.159498
C40   C     C_R   0.416578 0.832838 0.974602 -0.169768
C41   C     C_R   0.342245 0.939639 0.949250 -0.160605
C42   C     C_R   0.239751 0.936779 0.854629 -0.105782
C43   C     C_R   0.208132 0.826086 0.790865 -0.109652
C44   C     C_R   0.280000 0.718745 0.819221 -0.054219
H21   H     H_    0.492228 0.835481 0.052392 0.123704
H22   H     H_    0.363956 0.023678 0.003910 0.118048
H23   H     H_    0.181917 0.018391 0.832260 0.142250
H24   H     H_    0.124479 0.822755 0.724658 0.188792
H25   H     H_    0.244533 0.632233 0.783568 0.156908
C45   C     C_R   0.611188 0.277927 0.094681 0.159503
C46   C     C_R   0.583414 0.167159 0.025406 -0.169766
C47   C     C_R   0.657745 0.060357 0.050751 -0.160611
C48   C     C_R   0.760253 0.063221 0.145354 -0.105765
C49   C     C_R   0.791879 0.173917 0.209114 -0.109637
C50   C     C_R   0.720008 0.281257 0.180768 -0.054221
H26   H     H_    0.507758 0.164516 0.947623 0.123702
H27   H     H_    0.636021 0.976311 0.996101 0.118042
H28   H     H_    0.818087 0.981608 0.167714 0.142248
H29   H     H_    0.875538 0.177248 0.275310 0.188781
H30   H     H_    0.755477 0.367771 0.216421 0.156905
Cl3   Cl    Cl    0.762920 0.445876 0.897718 -0.657925
Cl4   Cl    Cl    0.237081 0.554127 0.102282 -0.657930

loop_
_geom_bond_atom_site_label_1
_geom_bond_atom_site_label_2
_ccdc_geom_bond_type
Cu1   O8    S    
C7    C10   S    
C48   C49   A    
C4    H8    S    
C11   C18   S    
C5    H9    S    
C39   C40   A    
C11   O7    A    
C12   O8    A    
Cu2   O7    S    
C29   C30   A    
Cu2   O6    S    
C13   C18   S    
C13   H1    S    
C24   C26   S    
C27   C32   A    
C47   H27   S    
C21   H5    S    
Cu2   N2    S    
C36   H18   S    
C9    N1    S    
C10   N2    S    
C38   H20   S    
C50   H30   S    
C30   C31   A    
C44   H25   S    
C1    O3    A    
C2    O4    A    
C8    C9    S    
C22   C25   S    
C12   C17   S    
C39   C44   A    
C6    H10   S    
C10   Cl4   S    
C41   H22   S    
C9    Cl3   S    
C18   C20   S    
C43   C44   A    
Cu1   O5    S    
C15   Cl1   S    
C37   C38   A    
C48   H28   S    
C14   C17   S    
C3    C24   S    
C14   H2    S    
Cu1   O4    S    
C21   C26   S    
C30   H13   S    
C15   C20   S    
C22   H6    S    
C40   C41   A    
C13   C19   S    
C27   C28   A    
C14   C20   S    
C3    C25   S    
C42   C43   A    
C12   O6    A    
Cu1   N1    S    
C5    C7    S    
C4    C23   S    
C49   H29   S    
C47   C48   A    
C6    C8    S    
C46   C47   A    
C23   H3    S    
C41   C42   A    
C24   H4    S    
C5    C9    S    
C33   C34   A    
C4    C22   S    
Cu1   O1    S    
C37   H19   S    
C3    H7    S    
C29   H12   S    
C7    C39   S    
C31   C32   A    
C32   H15   S    
C35   H17   S    
C45   C46   A    
C33   C38   A    
C1    O1    A    
C40   H21   S    
C13   C15   S    
C1    C26   S    
C14   C16   S    
C3    C21   S    
C45   C50   A    
C28   C29   A    
C15   C17   S    
C34   H16   S    
C8    C45   S    
C16   Cl2   S    
C42   H23   S    
C6    C10   S    
C4    C26   S    
C46   H26   S    
Cu2   O3    S    
C35   C36   A    
C21   C23   S    
C43   H24   S    
C2    O2    A    
C16   C19   S    
Cu2   O2    S    
C17   C19   S    
C2    C25   S    
C22   C24   S    
C23   C25   S    
C20   C33   S    
C11   O5    A    
C28   H11   S    
C34   C35   A    
C19   C27   S    
C49   C50   A    
C16   C18   S    
C36   C37   A    
C5    N2    S    
Cu1   Cu2   S    
C7    N1    S    
C6    N1    S    
C8    N2    S    
C31   H14   S    
