data_mof_unit_20483.cif
_audit_creation_date              2012-12-10T16:47:48-0500
_audit_creation_method            fapswitch 2.2
_symmetry_space_group_name_H-M    P1
_symmetry_Int_Tables_number       1
_space_group_crystal_system       triclinic
_cell_length_a                    7.787935
_cell_length_b                    8.575694
_cell_length_c                    10.67489
_cell_angle_alpha                 91.361238
_cell_angle_beta                  84.39244
_cell_angle_gamma                 93.841559
_cell_volume                      707.830990187

loop_
_atom_site_label
_atom_site_type_symbol
_atom_type_description
_atom_site_fract_x
_atom_site_fract_y
_atom_site_fract_z
_atom_type_partial_charge
C1    C     C_R   0.545899 0.794783 0.496821 0.947400
C2    C     C_2   0.569978 0.958373 0.495134 -0.307108
C3    C     C_2   0.430019 0.041657 0.505634 -0.332920
C4    C     C_R   0.498138 0.492910 0.737352 0.958303
C5    C     C_R   0.454094 0.205226 0.503586 0.994514
C6    C     C_R   0.499641 0.492963 0.262507 1.000203
C7    C     C_2   0.608038 0.396264 0.056163 0.501581
C8    C     C_2   0.504685 0.488995 0.129432 -0.461144
C9    C     C_2   0.622273 0.417589 0.921510 -0.203493
C10   C     C_2   0.486862 0.461913 0.867903 -0.398598
H1    H     H_    0.430835 0.576283 0.091059 0.139670
H2    H     H_    0.744154 0.397072 0.866859 0.210624
H3    H     H_    0.359993 0.467240 0.919601 0.179320
H4    H     H_    0.702042 0.009733 0.485095 0.189496
H5    H     H_    0.297954 0.990318 0.515580 0.176552
H6    H     H_    0.013701 0.380585 0.406413 0.229506
H7    H     H_    0.986296 0.619235 0.593768 0.192747
H8    H     H_    0.851007 0.045617 0.031873 0.384607
N1    N     N_2   0.950320 0.457950 0.466680 -0.154464
N2    N     N_2   0.049680 0.542050 0.533320 -0.177812
O1    O     O_R   0.389250 0.738570 0.508180 -0.616556
O2    O     O_2   0.623090 0.161125 0.216406 -0.321669
O3    O     O_3   0.784017 0.123433 0.994031 -0.561359
O4    O     O_R   0.678390 0.711630 0.486820 -0.631493
O5    O     O_R   0.355470 0.513470 0.691600 -0.617773
O6    O     O_R   0.644610 0.486520 0.670240 -0.632769
O7    O     O_R   0.321610 0.288370 0.513180 -0.637492
O8    O     O_R   0.610750 0.261430 0.491820 -0.591955
O9    O     O_R   0.355390 0.513480 0.329760 -0.618877
O10   O     O_R   0.644530 0.486530 0.308400 -0.549823
O11   O     O_2   0.890873 0.322794 0.160660 -0.307367
S1    S     S_3+6 0.729060 0.248907 0.112410 0.027846
Zn1   Zn    Zn3+2 0.306940 0.517990 0.514260 0.974609
Zn2   Zn    Zn3+2 0.693060 0.482010 0.485740 1.015694

loop_
_geom_bond_atom_site_label_1
_geom_bond_atom_site_label_2
_ccdc_geom_bond_type
C4    O6    A    
C10   H3    S    
C1    O1    A    
C5    O8    A    
C9    C10   D    
N1    N2    D    
O3    S1    S    
H7    N2    S    
C2    C3    D    
O8    Zn2   S    
C7    C8    D    
O7    Zn1   S    
O2    S1    D    
H6    N1    S    
N2    Zn1   S    
C6    O10   A    
C4    O5    A    
C8    H1    S    
C2    H4    S    
C9    H2    S    
O1    Zn1   S    
O10   Zn2   S    
C4    C10   S    
H8    O3    S    
O9    Zn1   S    
C6    O9    A    
C3    H5    S    
C1    O4    A    
C1    C2    S    
C7    C9    S    
C6    C8    S    
C7    S1    S    
C5    O7    A    
O6    Zn2   S    
O4    Zn2   S    
O11   S1    D    
O5    Zn1   S    
C3    C5    S    
N1    Zn2   S    
