data_mof_unit_61996.cif
_audit_creation_date              2012-12-10T18:50:13-0500
_audit_creation_method            fapswitch 2.2
_symmetry_space_group_name_H-M    P1
_symmetry_Int_Tables_number       1
_space_group_crystal_system       triclinic
_cell_length_a                    15.864235
_cell_length_b                    19.410803
_cell_length_c                    18.107637
_cell_angle_alpha                 89.658287
_cell_angle_beta                  89.917217
_cell_angle_gamma                 90.297788
_cell_volume                      5575.84064805

loop_
_atom_site_label
_atom_site_type_symbol
_atom_type_description
_atom_site_fract_x
_atom_site_fract_y
_atom_site_fract_z
_atom_type_partial_charge
C1    C     C_R   0.502108 0.367455 0.500375 0.785167
C2    C     C_R   0.461771 0.256866 0.444373 -0.199120
C3    C     C_R   0.492813 0.707936 0.498893 -0.058752
C4    C     C_R   0.504893 0.291694 0.500780 -0.057300
C5    C     C_R   0.458042 0.965630 0.557253 0.178881
C6    C     C_R   0.535855 0.033855 0.437585 0.178151
C7    C     C_R   0.461382 0.037355 0.554967 -0.229023
C8    C     C_R   0.532363 0.962092 0.439822 -0.228578
C9    C     C_R   0.499899 0.071813 0.495526 0.002241
C10   C     C_R   0.494213 0.927702 0.499458 0.001282
C11   C     C_R   0.445736 0.458441 0.721967 0.071595
C12   C     C_R   0.497171 0.632410 0.499651 0.782751
C13   C     C_R   0.556036 0.540072 0.278186 0.080791
C14   C     C_R   0.444909 0.458403 0.799557 -0.269260
C15   C     C_R   0.556623 0.540596 0.200622 -0.276139
C16   C     C_R   0.339550 0.499958 0.500022 0.826710
C17   C     C_R   0.660438 0.500302 0.499978 0.826117
C18   C     C_R   0.500326 0.501420 0.838691 0.083336
C19   C     C_R   0.499362 0.499382 0.161307 0.082144
C20   C     C_R   0.556243 0.543679 0.797910 0.082058
C21   C     C_R   0.441840 0.458436 0.201932 0.082022
C22   C     C_R   0.554714 0.542031 0.720268 0.054066
C23   C     C_R   0.447035 0.816943 0.446197 -0.167853
C24   C     C_R   0.443597 0.459620 0.279579 0.048021
C25   C     C_R   0.564473 0.468749 0.960572 -0.196335
C26   C     C_R   0.435372 0.532412 0.039410 -0.200180
C27   C     C_R   0.565468 0.467748 0.038265 0.193391
C28   C     C_R   0.434337 0.533334 0.961704 0.195256
C29   C     C_R   0.500436 0.499689 0.078646 0.041065
C30   C     C_R   0.499337 0.501353 0.921345 0.039923
C31   C     C_3   0.971499 0.450386 0.546697 -0.158520
C32   C     C_3   0.028384 0.548561 0.453729 -0.155362
C33   C     C_3   0.027650 0.437631 0.478137 -0.150198
C34   C     C_R   0.546517 0.181067 0.552462 -0.168918
C35   C     C_3   0.972265 0.561316 0.522284 -0.151041
C36   C     C_1   0.249807 0.499809 0.500100 -0.172033
C37   C     C_1   0.750152 0.499997 0.499964 -0.172056
C38   C     C_3   0.027935 0.512238 0.568789 -0.142734
C39   C     C_3   0.971969 0.486713 0.431634 -0.144082
C40   C     C_3   0.082535 0.499489 0.500227 0.175376
C41   C     C_3   0.917373 0.499472 0.500189 0.175659
C42   C     C_1   0.174227 0.499644 0.500170 -0.055422
C43   C     C_1   0.825709 0.499694 0.500067 -0.061019
C44   C     C_R   0.445259 0.744792 0.445339 0.082857
C45   C     C_R   0.492922 0.852279 0.499979 0.102163
C46   C     C_R   0.549025 0.253211 0.555528 0.085914
C47   C     C_3   0.389035 0.709882 0.389104 -0.397370
C48   C     C_3   0.433715 0.704326 0.314204 -0.325816
C49   C     C_3   0.381335 0.662574 0.259608 -0.794569
C50   C     C_3   0.601204 0.286190 0.616160 -0.406290
C51   C     C_3   0.681611 0.319854 0.585063 -0.320085
C52   C     C_3   0.729566 0.358655 0.644960 -0.799203
C53   C     C_R   0.502877 0.147272 0.496177 0.103666
C54   C     C_R   0.538580 0.815776 0.553137 -0.110550
C55   C     C_R   0.460295 0.185297 0.442359 -0.111059
C56   C     C_R   0.538223 0.744145 0.552784 -0.197433
Cu1   Cu    Cu3+1 0.499980 0.500000 0.573360 0.948519
Cu2   Cu    Cu3+1 0.500020 0.500000 0.426640 0.945660
H1    H     H_    0.051743 0.386862 0.460016 0.144776
H2    H     H_    0.385185 0.557525 0.069450 0.175423
H3    H     H_    0.946856 0.410072 0.584853 0.138231
H4    H     H_    0.053093 0.588855 0.415571 0.142905
H5    H     H_    0.947629 0.476227 0.375341 0.150378
H6    H     H_    0.052262 0.522721 0.625087 0.150674
H7    H     H_    0.411384 0.845837 0.405536 0.142771
H8    H     H_    0.579637 0.150667 0.593500 0.140245
H9    H     H_    0.574914 0.842872 0.594539 0.159082
H10   H     H_    0.425410 0.159452 0.399132 0.160427
H11   H     H_    0.574795 0.716870 0.594027 0.158534
H12   H     H_    0.948167 0.612084 0.540409 0.145013
H13   H     H_    0.427707 0.285198 0.402293 0.160766
H14   H     H_    0.433228 0.066483 0.599422 0.172333
H15   H     H_    0.560674 0.932893 0.395498 0.171291
H16   H     H_    0.370702 0.609507 0.281078 0.260393
H17   H     H_    0.319519 0.687689 0.250076 0.255430
H18   H     H_    0.415341 0.659250 0.206108 0.244075
H19   H     H_    0.444613 0.756782 0.291000 0.217236
H20   H     H_    0.495978 0.679237 0.321110 0.231235
H21   H     H_    0.368035 0.658371 0.408965 0.209566
H22   H     H_    0.330230 0.740197 0.382105 0.192609
H23   H     H_    0.402815 0.425119 0.692365 0.132908
H24   H     H_    0.689913 0.400461 0.667851 0.266668
H25   H     H_    0.747885 0.322902 0.690218 0.253362
H26   H     H_    0.787570 0.382002 0.621000 0.236025
H27   H     H_    0.723081 0.279348 0.561860 0.223540
H28   H     H_    0.666264 0.356459 0.539888 0.213469
H29   H     H_    0.562880 0.323523 0.647659 0.223170
H30   H     H_    0.620585 0.246727 0.657493 0.191581
H31   H     H_    0.600367 0.572043 0.307897 0.128162
H32   H     H_    0.401258 0.425008 0.828938 0.168515
H33   H     H_    0.601532 0.572973 0.171401 0.168284
H34   H     H_    0.597222 0.574821 0.689036 0.142974
H35   H     H_    0.399866 0.427822 0.310681 0.144207
H36   H     H_    0.614692 0.443683 0.930534 0.176622
I1    I     I_    0.641766 0.612192 0.849792 -0.338501
I2    I     I_    0.353629 0.392339 0.149892 -0.338909
I3    I     I_    0.665389 0.414958 0.091329 -0.307297
I4    I     I_    0.334258 0.585750 0.908489 -0.305633
I5    I     I_    0.393969 0.918331 0.647382 -0.331945
I6    I     I_    0.600932 0.080946 0.347881 -0.336221
N1    N     N_R   0.499990 0.500020 0.683620 -0.188055
N2    N     N_R   0.500010 0.499980 0.316380 -0.185462
O1    O     O_R   0.499960 0.400180 0.561980 -0.590545
O2    O     O_R   0.500040 0.599820 0.438020 -0.589192
O3    O     O_R   0.500000 0.400190 0.438070 -0.573788
O4    O     O_R   0.500000 0.599810 0.561930 -0.572446
O5    O     O_R   0.379060 0.499990 0.561940 -0.568533
O6    O     O_R   0.620940 0.500010 0.438060 -0.571920
O7    O     O_R   0.379100 0.500000 0.438040 -0.589450
O8    O     O_R   0.620900 0.500000 0.561960 -0.583467

loop_
_geom_bond_atom_site_label_1
_geom_bond_atom_site_label_2
_ccdc_geom_bond_type
C38   C40   S    
C23   C45   A    
C27   C29   A    
Cu2   O7    S    
C31   H3    S    
C36   C42   T    
C47   H21   S    
C17   O8    A    
C51   H27   S    
C6    C9    A    
C55   H10   S    
C39   C41   S    
C4    C46   A    
C11   H23   S    
C15   C19   A    
C33   C39   S    
C22   N1    A    
C19   C21   A    
C12   O2    A    
C2    C55   A    
C11   C14   A    
C32   C39   S    
C48   H20   S    
C52   H26   S    
C14   C18   A    
C14   H32   S    
C3    C12   S    
C16   O5    A    
C5    I5    S    
C35   H12   S    
C49   H17   S    
Cu2   N2    S    
C1    O1    A    
Cu2   O6    S    
C44   C47   S    
C50   H30   S    
C40   C42   S    
Cu1   O4    S    
C25   H36   S    
C33   H1    S    
C34   C46   A    
C41   C43   S    
C34   H8    S    
C47   H22   S    
C51   H28   S    
C16   O7    A    
C38   H6    S    
C53   C55   A    
Cu1   O1    S    
C54   C56   A    
C3    C44   A    
C33   C40   S    
C51   C52   S    
C32   C35   S    
C35   C38   S    
C17   O6    A    
C7    H14   S    
C5    C7    A    
C6    C8    A    
C54   H9    S    
C23   C44   A    
C6    I6    S    
C48   H19   S    
C37   C43   T    
C52   H25   S    
C2    C4    A    
C24   N2    A    
C3    C56   A    
C47   C48   S    
C10   C45   S    
C31   C33   S    
C50   C51   S    
C49   H18   S    
C11   N1    A    
C17   C37   S    
C52   H24   S    
C50   H29   S    
C26   C29   A    
C18   C30   S    
C48   C49   S    
Cu1   O5    S    
C20   I1    S    
C20   C22   A    
C45   C54   A    
C13   C15   A    
Cu2   O2    S    
C2    H13   S    
C19   C29   S    
C39   H5    S    
C28   I4    S    
C25   C30   A    
C7    C9    A    
C27   I3    S    
C31   C41   S    
C13   H31   S    
Cu1   O8    S    
C21   I2    S    
C25   C27   A    
Cu1   N1    S    
C46   C50   S    
C26   C28   A    
C31   C38   S    
Cu2   O3    S    
C1    C4    S    
C28   C30   A    
C32   H4    S    
C5    C10   A    
C24   H35   S    
C16   C36   S    
C12   O4    A    
C23   H7    S    
Cu1   Cu2   S    
C8    H15   S    
C18   C20   A    
C32   C40   S    
C35   C41   S    
C15   H33   S    
C9    C53   S    
C34   C53   A    
C8    C10   A    
C56   H11   S    
C21   C24   A    
C22   H34   S    
C49   H16   S    
C13   N2    A    
C26   H2    S    
C1    O3    A    
