data_mof_unit_45141.cif
_audit_creation_date              2012-12-10T20:53:54-0500
_audit_creation_method            fapswitch 2.2
_symmetry_space_group_name_H-M    P1
_symmetry_Int_Tables_number       1
_space_group_crystal_system       triclinic
_cell_length_a                    10.468113
_cell_length_b                    15.851491
_cell_length_c                    15.057454
_cell_angle_alpha                 89.830536
_cell_angle_beta                  103.880107
_cell_angle_gamma                 89.942512
_cell_volume                      2425.5888162

loop_
_atom_site_label
_atom_site_type_symbol
_atom_type_description
_atom_site_fract_x
_atom_site_fract_y
_atom_site_fract_z
_atom_type_partial_charge
C1    C     C_R   0.499371 0.338996 0.500004 0.904324
C2    C     C_1   0.499791 0.500539 0.192821 0.022696
C3    C     C_R   0.255368 0.501120 0.462061 0.895075
C4    C     C_R   0.744685 0.500975 0.537941 0.893957
C5    C     C_2   0.112899 0.513666 0.440732 -0.065055
C6    C     C_2   0.887092 0.513783 0.559087 -0.065069
C7    C     C_2   0.068487 0.564747 0.498158 -0.224167
C8    C     C_2   0.930907 0.564616 0.500902 -0.222733
C9    C     C_R   0.533312 0.955721 0.584514 0.047719
C10   C     C_R   0.457149 0.044521 0.414978 0.047680
C11   C     C_R   0.502358 0.913155 0.499781 0.035067
C12   C     C_R   0.500520 0.661031 0.499981 0.910403
C13   C     C_R   0.489056 0.087071 0.499670 0.034781
C14   C     C_R   0.466305 0.955915 0.414965 0.052846
C15   C     C_R   0.524195 0.044328 0.584491 0.052455
C16   C     C_1   0.503241 0.823809 0.499940 -0.059640
C17   C     C_1   0.491193 0.176369 0.499485 -0.059041
C18   C     C_1   0.494935 0.251004 0.499630 -0.214440
C19   C     C_1   0.502293 0.749111 0.499975 -0.210409
C20   C     C_3   0.982830 0.467612 0.636586 -0.420473
C21   C     C_3   0.919032 0.409529 0.695480 -0.332842
C22   C     C_3   0.023507 0.361202 0.765444 -0.904839
C23   C     C_R   0.468334 0.424373 0.948724 0.121627
C24   C     C_3   0.017949 0.466830 0.363877 -0.416216
C25   C     C_3   0.083101 0.407961 0.306744 -0.339922
C26   C     C_3   0.980000 0.358156 0.237966 -0.898541
C27   C     C_3   0.549725 0.094278 0.673704 -0.410385
C28   C     C_3   0.692819 0.124846 0.701718 -0.328216
C29   C     C_3   0.717469 0.177050 0.789124 -0.898670
C30   C     C_3   0.439772 0.906018 0.325703 -0.410633
C31   C     C_3   0.296960 0.874822 0.299045 -0.330583
C32   C     C_3   0.270832 0.823069 0.211281 -0.894945
C33   C     C_3   0.578032 0.905714 0.673589 -0.405510
C34   C     C_R   0.527784 0.576136 0.050563 0.122527
C35   C     C_3   0.459823 0.874663 0.708266 -0.319569
C36   C     C_3   0.504242 0.823710 0.796522 -0.907197
C37   C     C_3   0.411349 0.094598 0.326039 -0.405737
C38   C     C_3   0.528727 0.125334 0.290185 -0.319213
C39   C     C_3   0.483129 0.176987 0.202523 -0.907072
C40   C     C_3   0.435169 0.344140 0.892350 -0.413839
C41   C     C_3   0.401604 0.266417 0.943588 -0.356799
C42   C     C_3   0.367688 0.190855 0.879658 -0.893973
C43   C     C_3   0.558330 0.656886 0.106380 -0.412173
C44   C     C_3   0.584527 0.735699 0.053737 -0.358147
C45   C     C_R   0.497931 0.498588 0.904833 0.002032
C46   C     C_3   0.612934 0.812377 0.116481 -0.896127
C47   C     C_R   0.499633 0.501681 0.094727 0.001916
C48   C     C_R   0.526762 0.573162 0.956012 -0.205767
C49   C     C_R   0.470293 0.427165 0.043444 -0.205559
C50   C     C_1   0.499179 0.499555 0.806995 0.022197
H1    H     H_    0.862869 0.596943 0.445201 0.168604
H2    H     H_    0.049789 0.428658 0.606152 0.224101
H3    H     H_    0.043526 0.515361 0.681815 0.214863
H4    H     H_    0.921726 0.317842 0.274089 0.261897
H5    H     H_    0.912659 0.401781 0.190857 0.267354
H6    H     H_    0.029626 0.316959 0.196959 0.250064
H7    H     H_    0.141255 0.445689 0.268147 0.245176
H8    H     H_    0.149428 0.362626 0.352303 0.216629
H9    H     H_    0.950879 0.428315 0.394744 0.224696
H10   H     H_    0.957297 0.514123 0.317451 0.213013
H11   H     H_    0.654144 0.234240 0.778277 0.264826
H12   H     H_    0.136186 0.597454 0.553402 0.169695
H13   H     H_    0.696598 0.139070 0.846119 0.259714
H14   H     H_    0.822004 0.197118 0.808343 0.250082
H15   H     H_    0.760831 0.069908 0.713042 0.212446
H16   H     H_    0.715648 0.164278 0.646388 0.228183
H17   H     H_    0.481952 0.149268 0.666148 0.209411
H18   H     H_    0.525625 0.057088 0.729942 0.196806
H19   H     H_    0.287899 0.861988 0.153763 0.258490
H20   H     H_    0.336206 0.766853 0.220617 0.264957
H21   H     H_    0.167006 0.801375 0.193859 0.251659
H22   H     H_    0.276075 0.834900 0.354665 0.229589
H23   H     H_    0.448920 0.371406 0.078766 0.137713
H24   H     H_    0.228373 0.929463 0.288789 0.212412
H25   H     H_    0.462107 0.943405 0.269007 0.197514
H26   H     H_    0.508114 0.851377 0.332605 0.209223
H27   H     H_    0.561385 0.767442 0.784863 0.266236
H28   H     H_    0.566055 0.863154 0.851126 0.260578
H29   H     H_    0.416760 0.802073 0.819794 0.246038
H30   H     H_    0.400368 0.929340 0.721183 0.211606
H31   H     H_    0.395853 0.834212 0.655745 0.230190
H32   H     H_    0.639197 0.850949 0.663281 0.206396
H33   H     H_    0.644944 0.943011 0.727376 0.197515
H34   H     H_    0.548347 0.628855 0.920683 0.137455
H35   H     H_    0.419831 0.138117 0.148066 0.260259
H36   H     H_    0.427163 0.233412 0.215326 0.265832
H37   H     H_    0.570020 0.198417 0.178401 0.246506
H38   H     H_    0.594183 0.165222 0.342498 0.230688
H39   H     H_    0.586985 0.070498 0.276129 0.211353
H40   H     H_    0.343313 0.057450 0.272712 0.197311
H41   H     H_    0.350990 0.149560 0.337007 0.205553
H42   H     H_    0.280535 0.205239 0.823151 0.261410
H43   H     H_    0.452187 0.174389 0.850348 0.265009
H44   H     H_    0.344562 0.135594 0.918484 0.249120
H45   H     H_    0.081676 0.319968 0.730284 0.258939
H46   H     H_    0.487311 0.249292 0.000163 0.225205
H47   H     H_    0.315481 0.280444 0.972293 0.225503
H48   H     H_    0.349735 0.357863 0.834164 0.206728
H49   H     H_    0.520507 0.328107 0.863571 0.202787
H50   H     H_    0.527641 0.826180 0.145943 0.265646
H51   H     H_    0.701410 0.800920 0.172914 0.261077
H52   H     H_    0.631297 0.868249 0.076674 0.249410
H53   H     H_    0.671048 0.724680 0.024507 0.223916
H54   H     H_    0.496920 0.749838 0.997410 0.225949
H55   H     H_    0.473735 0.670675 0.136807 0.203443
H56   H     H_    0.090848 0.405785 0.810729 0.265923
H57   H     H_    0.646121 0.645074 0.163410 0.201936
H58   H     H_    0.975221 0.321118 0.808364 0.252078
H59   H     H_    0.860413 0.447739 0.733195 0.245068
H60   H     H_    0.853354 0.363289 0.651316 0.218552
N1    N     N_1   0.499960 0.500020 0.270540 -0.089040
N2    N     N_1   0.500040 0.499980 0.729460 -0.089086
O1    O     O_R   0.500000 0.378020 0.573650 -0.608659
O2    O     O_R   0.500000 0.621980 0.426350 -0.608940
O3    O     O_R   0.500060 0.378020 0.426320 -0.606032
O4    O     O_R   0.499940 0.621980 0.573680 -0.606292
O5    O     O_R   0.317790 0.500010 0.546150 -0.614755
O6    O     O_R   0.682210 0.499990 0.453850 -0.614577
O7    O     O_R   0.317850 0.500010 0.398830 -0.611567
O8    O     O_R   0.682150 0.499990 0.601170 -0.611748
Zn1   Zn    Zn3+2 0.499960 0.500000 0.598370 0.943175
Zn2   Zn    Zn3+2 0.500040 0.500000 0.401630 0.943382

loop_
_geom_bond_atom_site_label_1
_geom_bond_atom_site_label_2
_ccdc_geom_bond_type
C29   H13   S    
C23   C45   A    
C42   H43   S    
C41   C42   S    
C35   C36   S    
C39   H37   S    
C26   H5    S    
C40   H49   S    
C21   H60   S    
C35   H31   S    
C7    C8    S    
C47   C49   A    
C46   H52   S    
C38   H39   S    
C1    C18   S    
C1    O1    A    
C37   H40   S    
C10   C37   S    
C28   C29   S    
C36   H27   S    
C16   C19   T    
C40   H48   S    
C38   C39   S    
C11   C14   A    
C23   C49   A    
C41   H46   S    
C23   C40   S    
C33   H33   S    
C35   H30   S    
O6    Zn2   S    
O5    Zn1   S    
C27   H18   S    
C3    O5    A    
C33   C35   S    
C33   H32   S    
C42   H42   S    
C29   H14   S    
O3    Zn2   S    
C21   C22   S    
N1    Zn2   S    
C9    C33   S    
C4    O6    A    
C25   H7    S    
C14   C30   S    
C26   H4    S    
C44   H53   S    
C44   C46   S    
C32   H21   S    
C12   O2    A    
C44   H54   S    
C46   H51   S    
C29   H11   S    
C2    N1    T    
O4    Zn1   S    
C37   H41   S    
C24   C25   S    
C4    C6    S    
C10   C14   A    
C5    C7    D    
C31   H24   S    
C6    C8    D    
C25   C26   S    
C22   H56   S    
C36   H29   S    
C48   H34   S    
C38   H38   S    
C28   H16   S    
C43   C44   S    
C7    H12   S    
C37   C38   S    
C30   H26   S    
C11   C16   S    
C15   C27   S    
C31   C32   S    
C43   H55   S    
C24   H10   S    
C50   N2    T    
C17   C18   T    
C43   H57   S    
C9    C11   A    
C8    H1    S    
C3    O7    A    
C31   H22   S    
C13   C15   A    
C49   H23   S    
C34   C48   A    
C25   H8    S    
C39   H35   S    
O8    Zn1   S    
C45   C48   A    
C46   H50   S    
C40   C41   S    
C42   H44   S    
C34   C43   S    
C20   H3    S    
C3    C5    S    
C10   C13   A    
C26   H6    S    
C32   H20   S    
C32   H19   S    
C2    C47   S    
C6    C20   S    
C13   C17   S    
C28   H15   S    
C9    C15   A    
N2    Zn1   S    
C20   H2    S    
C36   H28   S    
C30   H25   S    
C30   C31   S    
C5    C24   S    
C45   C50   S    
C24   H9    S    
C22   H58   S    
C12   C19   S    
O7    Zn2   S    
C41   H47   S    
C27   H17   S    
O2    Zn2   S    
C22   H45   S    
O1    Zn1   S    
C20   C21   S    
C27   C28   S    
C4    O8    A    
C34   C47   A    
C1    O3    A    
C39   H36   S    
C21   H59   S    
C12   O4    A    
