data_mof_unit_60503.cif
_audit_creation_date              2013-03-05T16:01:40-0500
_audit_creation_method            fapswitch 2.2
_symmetry_space_group_name_H-M    P1
_symmetry_Int_Tables_number       1
_space_group_crystal_system       triclinic
_cell_length_a                    21.379031
_cell_length_b                    29.18956
_cell_length_c                    29.190284
_cell_angle_alpha                 90.0009
_cell_angle_beta                  89.999014
_cell_angle_gamma                 90.002339
_cell_volume                      18216.0364004

loop_
_atom_site_label
_atom_site_type_symbol
_atom_site_description
_atom_site_fract_x
_atom_site_fract_y
_atom_site_fract_z
_atom_type_partial_charge
O1    O     O_R   1.000000 0.964340 0.063140 -0.602215
O2    O     O_R   0.000000 0.964340 0.936860 -0.603789
O3    O     O_R   0.500000 0.464340 0.563140 -0.602209
O4    O     O_R   0.500000 0.464340 0.436860 -0.603801
O5    O     O_R   0.000000 0.035640 0.063120 -0.597714
O6    O     O_R   0.000000 0.035640 0.936880 -0.593141
O7    O     O_R   0.500000 0.535640 0.563120 -0.597652
O8    O     O_R   0.500000 0.535640 0.436880 -0.593191
C1    C     C_R   0.999999 0.999997 0.086741 0.902488
C2    C     C_R   1.000000 0.999996 0.913259 0.903328
C3    C     C_R   0.499999 0.499997 0.586741 0.902517
C4    C     C_R   0.500000 0.499996 0.413259 0.903294
O9    O     O_R   0.093030 0.964340 0.000000 -0.627944
O10   O     O_R   0.906970 0.964340 0.000000 -0.624702
O11   O     O_R   0.593030 0.464340 0.500000 -0.627941
O12   O     O_R   0.406970 0.464340 0.500000 -0.624703
O13   O     O_R   0.093040 0.035640 0.000000 -0.605369
O14   O     O_R   0.906960 0.035640 0.000000 -0.617047
O15   O     O_R   0.593040 0.535640 0.500000 -0.605361
O16   O     O_R   0.406960 0.535640 0.500000 -0.617047
C5    C     C_R   0.122785 0.999968 0.000011 0.921539
C6    C     C_R   0.877217 0.999964 0.000001 0.921707
C7    C     C_R   0.622786 0.499968 0.500008 0.921517
C8    C     C_R   0.377217 0.499964 0.500001 0.921703
Zn1   Zn    Zn3+2 0.000000 0.952380 0.000000 0.962793
Zn2   Zn    Zn3+2 0.500000 0.452380 0.500000 0.962789
Zn3   Zn    Zn3+2 0.000000 0.047600 0.000000 1.006667
Zn4   Zn    Zn3+2 0.500000 0.547600 0.500000 1.006700
C9    C     C_3   0.229590 0.021646 0.037698 -0.258628
C10   C     C_3   0.770452 0.021332 0.962124 -0.209547
C11   C     C_3   0.770446 0.021335 0.037865 -0.254080
C12   C     C_3   0.229566 0.021026 0.961950 -0.197174
C13   C     C_3   0.729587 0.521410 0.537832 -0.258601
C14   C     C_3   0.270452 0.521331 0.462124 -0.209556
C15   C     C_3   0.270446 0.521336 0.537864 -0.254074
C16   C     C_3   0.729569 0.521265 0.462080 -0.197138
C17   C     C_3   0.270667 0.042025 0.999644 0.453977
C18   C     C_3   0.729371 0.042036 0.999989 0.455017
C19   C     C_3   0.770668 0.542027 0.499909 0.453739
C20   C     C_3   0.229371 0.542036 0.499988 0.455006
H1    H     H_    0.211175 0.040137 0.068075 0.154995
H2    H     H_    0.788892 0.039568 0.931602 0.167759
H3    H     H_    0.788880 0.039565 0.068393 0.153307
H4    H     H_    0.211129 0.039010 0.931278 0.163477
H5    H     H_    0.711170 0.539710 0.568325 0.154962
H6    H     H_    0.288892 0.539567 0.431601 0.167749
H7    H     H_    0.288880 0.539566 0.568392 0.153317
H8    H     H_    0.711136 0.539442 0.431520 0.163561
C21   C     C_3   0.310505 0.998907 0.000000 -0.100475
C22   C     C_3   0.689494 0.998932 0.999995 -0.090642
C23   C     C_3   0.810505 0.498906 0.499995 -0.100534
C24   C     C_3   0.189494 0.498932 0.499995 -0.090643
C25   C     C_3   0.270284 0.977781 0.037947 -0.224059
C26   C     C_3   0.729718 0.977476 0.962231 -0.224478
C27   C     C_3   0.729714 0.977481 0.037760 -0.203751
C28   C     C_3   0.270267 0.977157 0.962416 -0.224989
C29   C     C_3   0.770282 0.477542 0.537806 -0.224137
C30   C     C_3   0.229718 0.477476 0.462232 -0.224486
C31   C     C_3   0.229714 0.477482 0.537761 -0.203742
C32   C     C_3   0.770270 0.477393 0.462272 -0.224912
C33   C     C_3   0.229011 0.955951 0.000363 -0.132171
C34   C     C_3   0.770969 0.955947 0.999997 -0.135848
C35   C     C_3   0.729011 0.455948 0.500085 -0.132133
C36   C     C_3   0.270969 0.455947 0.499998 -0.135848
C37   C     C_3   0.189632 0.999816 0.000008 -0.048621
C38   C     C_3   0.810376 0.999803 0.999997 -0.062356
C39   C     C_3   0.689632 0.499816 0.500003 -0.048581
C40   C     C_3   0.310376 0.499803 0.499997 -0.062354
H9    H     H_    0.288738 0.960051 0.068759 0.163969
H10   H     H_    0.711265 0.959493 0.931564 0.165387
H11   H     H_    0.711260 0.959501 0.068429 0.162986
H12   H     H_    0.288716 0.958915 0.931901 0.164812
H13   H     H_    0.788736 0.459619 0.568508 0.163863
H14   H     H_    0.211265 0.459491 0.431565 0.165376
H15   H     H_    0.211260 0.459502 0.568430 0.162993
H16   H     H_    0.788718 0.459343 0.431642 0.164894
C41   C     C_1   0.999999 0.000010 0.137408 -0.215774
C42   C     C_1   0.999999 0.000008 0.862592 -0.212637
C43   C     C_1   0.499999 0.500010 0.637408 -0.215736
C44   C     C_1   0.499999 0.500008 0.362592 -0.212680
C45   C     C_1   1.000000 0.000013 0.179605 0.008622
C46   C     C_1   0.999999 0.000011 0.820395 0.011294
C47   C     C_1   0.500000 0.500013 0.679605 0.008665
C48   C     C_1   0.499999 0.500011 0.320395 0.011241
C49   C     C_1   0.000000 0.000012 0.229425 0.013110
C50   C     C_1   0.999999 0.000010 0.770575 0.014996
C51   C     C_1   0.500000 0.500012 0.729425 0.013149
C52   C     C_1   0.499998 0.500010 0.270575 0.014948
C53   C     C_1   0.000001 0.000008 0.271622 0.012507
C54   C     C_1   0.999998 0.000006 0.728378 0.013763
C55   C     C_1   0.500001 0.500008 0.771622 0.012541
C56   C     C_1   0.499998 0.500006 0.228378 0.013720
C57   C     C_1   0.000001 0.000002 0.321443 0.010220
C58   C     C_1   0.999998 0.000001 0.678557 0.010937
C59   C     C_1   0.500001 0.500002 0.821443 0.010249
C60   C     C_1   0.499998 0.500001 0.178557 0.010900
C61   C     C_1   0.000001 0.999996 0.363641 -0.194128
C62   C     C_1   0.999999 0.999996 0.636359 -0.193749
C63   C     C_1   0.500001 0.499996 0.863641 -0.194107
C64   C     C_1   0.499999 0.499996 0.136359 -0.193781
O17   O     O_R   0.500000 0.063090 0.964350 -0.587397
O18   O     O_R   0.500000 0.063090 0.035650 -0.586212
O19   O     O_R   0.000000 0.563090 0.464350 -0.587661
O20   O     O_R   0.000000 0.563090 0.535650 -0.585891
C65   C     C_R   0.500009 0.086696 0.000000 1.025834
C66   C     C_R   0.000008 0.586696 0.500000 1.025799
O21   O     O_R   0.406990 0.999940 0.964350 -0.611175
O22   O     O_R   0.593010 0.999940 0.035650 -0.614530
O23   O     O_R   0.593010 0.999940 0.964350 -0.613650
O24   O     O_R   0.406990 0.999940 0.035650 -0.620366
O25   O     O_R   0.906990 0.499940 0.464350 -0.611464
O26   O     O_R   0.093010 0.499940 0.535650 -0.614532
O27   O     O_R   0.093010 0.499940 0.464350 -0.613638
O28   O     O_R   0.906990 0.499940 0.535650 -0.620177
C67   C     C_R   0.377322 0.998431 0.000000 0.960398
C68   C     C_R   0.622679 0.998468 0.999999 0.955800
C69   C     C_R   0.877322 0.498430 0.499999 0.960334
C70   C     C_R   0.122679 0.498468 0.499999 0.955813
Zn5   Zn    Zn3+2 0.500000 0.999950 0.952390 1.019358
Zn6   Zn    Zn3+2 0.500000 0.999950 0.047610 1.008546
Zn7   Zn    Zn3+2 0.000000 0.499950 0.452390 1.019004
Zn8   Zn    Zn3+2 0.000000 0.499950 0.547610 1.008781
O29   O     O_R   0.500000 0.936790 0.964340 -0.612205
O30   O     O_R   0.500000 0.936790 0.035660 -0.612146
O31   O     O_R   0.000000 0.436790 0.464340 -0.612192
O32   O     O_R   0.000000 0.436790 0.535660 -0.612153
C71   C     C_R   0.500000 0.913187 1.000000 0.880456
C72   C     C_R   1.000000 0.413187 0.500000 0.880473
O33   O     O_R   0.052540 0.063140 0.500000 -0.591516
O34   O     O_R   0.947460 0.063140 0.500000 -0.591409
O35   O     O_R   0.552540 0.563140 0.000000 -0.591516
O36   O     O_R   0.447460 0.563140 0.000000 -0.591408
C73   C     C_R   0.000001 0.085663 0.500000 0.876352
C74   C     C_R   0.500001 0.585663 0.000000 0.876355
O37   O     O_R   0.052540 0.999990 0.436840 -0.590775
O38   O     O_R   0.947460 0.999990 0.563160 -0.590533
O39   O     O_R   0.947460 0.999990 0.436840 -0.590557
O40   O     O_R   0.052540 0.999990 0.563160 -0.590567
O41   O     O_R   0.552540 0.499990 0.936840 -0.590767
O42   O     O_R   0.447460 0.499990 0.063160 -0.590541
O43   O     O_R   0.447460 0.499990 0.936840 -0.590551
O44   O     O_R   0.552540 0.499990 0.063160 -0.590578
C75   C     C_R   0.000000 0.999991 0.414313 0.877107
C76   C     C_R   1.000000 0.999991 0.585687 0.877095
C77   C     C_R   0.500000 0.499991 0.914313 0.877120
C78   C     C_R   0.499999 0.499991 0.085687 0.877085
Zn9   Zn    Zn3+2 0.070140 0.999990 0.500000 0.985044
Zn10  Zn    Zn3+2 0.929860 0.999990 0.500000 0.985404
Zn11  Zn    Zn3+2 0.570140 0.499990 0.000000 0.985035
Zn12  Zn    Zn3+2 0.429860 0.499990 0.000000 0.985391
O45   O     O_R   0.052520 0.936840 0.500000 -0.589027
O46   O     O_R   0.947480 0.936840 0.500000 -0.589005
O47   O     O_R   0.552520 0.436840 0.000000 -0.589027
O48   O     O_R   0.447480 0.436840 0.000000 -0.589012
C79   C     C_R   0.999999 0.914301 0.500000 0.877762
C80   C     C_R   0.499999 0.414301 0.000000 0.877762
C81   C     C_1   0.500004 0.137358 0.000001 -0.071696
C82   C     C_1   0.000003 0.637358 0.500002 -0.071768
C83   C     C_1   0.499998 0.179552 0.000004 0.077361
C84   C     C_1   0.999997 0.679552 0.500005 0.077379
C85   C     C_1   0.499994 0.229377 0.000005 0.046310
C86   C     C_1   0.999993 0.729377 0.500006 0.046351
C87   C     C_1   0.999993 0.771580 0.500006 0.033392
C88   C     C_1   0.499993 0.271580 0.000005 0.033371
C89   C     C_1   0.999994 0.821412 0.500004 0.020983
C90   C     C_1   0.499994 0.321412 0.000004 0.020968
C91   C     C_1   0.999996 0.863617 0.500002 -0.188554
C92   C     C_1   0.499996 0.363617 0.000002 -0.188566
C93   C     C_1   0.500001 0.862529 0.999999 -0.212321
C94   C     C_1   0.000001 0.362529 0.499999 -0.212334
C95   C     C_1   0.500001 0.820337 0.999999 0.002802
C96   C     C_1   0.000001 0.320337 0.499999 0.002799
C97   C     C_1   0.500002 0.770524 0.999999 0.009705
C98   C     C_1   0.000002 0.270524 0.499999 0.009702
C99   C     C_1   0.000003 0.228332 0.499999 0.010108
C100  C     C_1   0.500003 0.728332 0.999999 0.010110
C101  C     C_1   0.000004 0.178519 0.499999 0.007797
C102  C     C_1   0.500003 0.678519 1.000000 0.007799
C103  C     C_1   0.000003 0.136326 0.500000 -0.196186
C104  C     C_1   0.500003 0.636326 1.000000 -0.196186
S1    S     S_3+6 0.300745 0.098968 0.999236 0.023440
O49   O     O_2   0.337815 0.106336 0.956139 -0.277668
O50   O     O_2   0.247606 0.132613 0.000821 -0.273713
O51   O     O_3   0.347562 0.106926 0.044810 -0.551985
H17   H     H_    0.321871 0.097992 0.071594 0.346352
S2    S     S_3+6 0.699694 0.099085 0.999960 0.024326
O52   O     O_2   0.659623 0.106062 0.958263 -0.278956
O53   O     O_2   0.661013 0.106945 0.042217 -0.315282
O54   O     O_3   0.759486 0.136454 0.998818 -0.506315
H18   H     H_    0.785623 0.128311 0.025628 0.345719
S3    S     S_3+6 0.800746 0.598973 0.499855 0.023504
O55   O     O_2   0.837729 0.606630 0.456766 -0.278067
O56   O     O_2   0.747609 0.632607 0.501725 -0.273551
O57   O     O_3   0.847656 0.606626 0.545431 -0.551384
H19   H     H_    0.822087 0.597371 0.572173 0.346200
S4    S     S_3+6 0.199694 0.599085 0.499959 0.024334
O58   O     O_2   0.159622 0.606061 0.458261 -0.278984
O59   O     O_2   0.161014 0.606946 0.542215 -0.315231
O60   O     O_3   0.259485 0.636454 0.498814 -0.506315
H20   H     H_    0.285626 0.628310 0.525622 0.345725
H21   H     H_    0.210076 0.920535 0.000659 0.155653
H22   H     H_    0.789882 0.920525 1.000000 0.156111
H23   H     H_    0.710076 0.420530 0.500156 0.155638
H24   H     H_    0.289882 0.420525 0.500001 0.156110

loop_
_geom_bond_atom_site_label_1
_geom_bond_atom_site_label_2
_geom_bond_distance
_ccdc_geom_bond_type
C11   C38   1.531525 S    
C19   C23   1.519792 S    
C72   C94   1.478711 S    
C51   C55   1.231737 T    
O25   Zn7   2.018872 S    
C13   H5    1.110233 S    
O22   Zn6   2.018870 S    
O39   Zn10  1.881656 S    
O15   C7    1.220117 A    
O23   Zn5   2.018882 S    
O24   Zn6   2.018884 S    
C44   C48   1.231731 T    
O35   C74   1.301505 A    
C15   H7    1.110213 S    
C81   C83   1.231648 T    
O38   Zn10  1.881666 S    
O20   C66   1.248090 A    
C2    C42   1.478999 S    
C16   C39   1.531777 S    
C90   C92   1.231960 T    
S1    O49   1.502312 D    
O7    C3    1.248147 A    
C95   C97   1.453999 S    
C13   C39   1.531751 S    
C31   C36   1.545339 S    
C13   C19   1.535889 S    
C16   C19   1.535778 S    
C35   H23   1.110257 S    
C32   C35   1.545360 S    
C14   C20   1.535661 S    
C36   C40   1.532454 S    
O44   Zn11  1.881653 S    
C87   C89   1.454574 S    
C59   C63   1.231775 T    
C102  C104  1.231604 T    
C97   C100  1.231566 T    
O20   Zn8   1.875808 S    
C80   C92   1.479444 S    
C29   H13   1.110206 S    
C27   C34   1.545339 S    
C4    C44   1.478999 S    
C56   C60   1.454292 S    
O36   Zn12  1.881320 S    
O51   H17   0.990433 S    
C10   C18   1.535663 S    
O18   C65   1.248093 A    
C15   C31   1.548174 S    
C7    C39   1.429125 S    
O44   C78   1.301581 A    
C98   C99   1.231566 T    
C34   H22   1.110231 S    
Zn11  O47   1.881403 S    
O23   C68   1.219451 A    
C33   H21   1.110235 S    
O5    Zn3   1.875276 S    
C25   C33   1.545373 S    
C82   C84   1.231648 T    
C65   C81   1.478781 S    
C52   C56   1.231734 T    
C64   C78   1.479121 S    
C101  C103  1.231604 T    
C24   C70   1.428506 S    
O31   C72   1.248267 A    
C13   C29   1.548101 S    
C83   C85   1.454361 S    
C54   C58   1.454292 S    
C23   C29   1.531830 S    
O45   C79   1.301371 A    
O4    C4    1.248140 A    
C9    C37   1.531731 S    
O48   C80   1.301371 A    
O43   C77   1.301581 A    
C9    H1    1.110214 S    
O11   C7    1.219070 A    
C10   C26   1.548234 S    
O37   C75   1.301583 A    
O57   H19   0.990510 S    
C63   C77   1.479121 S    
C25   H9    1.110185 S    
O60   H20   0.990568 S    
O12   C8    1.219002 A    
O1    Zn1   1.875842 S    
C74   C104  1.478837 S    
C93   C95   1.231566 T    
O9    Zn1   2.019284 S    
C3    C43   1.478996 S    
S4    O60   1.680711 S    
C66   C82   1.478781 S    
C96   C98   1.453999 S    
O43   Zn12  1.881656 S    
C29   C35   1.545379 S    
S1    O50   1.502463 D    
C30   C36   1.545351 S    
C24   C30   1.531945 S    
C35   C39   1.532470 S    
O17   C65   1.248079 A    
C34   C38   1.532454 S    
O34   Zn10  1.881320 S    
S3    O55   1.502343 D    
O17   Zn5   1.875798 S    
O16   C8    1.220130 A    
O1    C1    1.248139 A    
C61   C75   1.479121 S    
S4    O59   1.502647 D    
C50   C54   1.231734 T    
O42   C78   1.301583 A    
C49   C53   1.231737 T    
C73   C103  1.478837 S    
O11   Zn2   2.019284 S    
C26   C34   1.545351 S    
C28   H12   1.110189 S    
C20   C24   1.519787 S    
O41   Zn11  1.881669 S    
O13   C5    1.220116 A    
O7    Zn4   1.875276 S    
C9    C25   1.548047 S    
O13   Zn3   2.019521 S    
Zn8   O32   1.876320 S    
Zn9   O45   1.881403 S    
S3    O56   1.502493 D    
Zn7   O31   1.876331 S    
C24   C31   1.531920 S    
O26   C70   1.219481 A    
C19   S3    1.782241 S    
C42   C46   1.231731 T    
C57   C61   1.231775 T    
O29   C71   1.248267 A    
O6    Zn3   1.875268 S    
C26   H10   1.110186 S    
O46   C79   1.301371 A    
C41   C45   1.231731 T    
O40   Zn9   1.881653 S    
O8    C4    1.248146 A    
C17   S1    1.782195 S    
C22   C26   1.531945 S    
C12   H4    1.110207 S    
O9    C5    1.219069 A    
C1    C41   1.478999 S    
C12   C17   1.535733 S    
C36   H24   1.110231 S    
O47   C80   1.301371 A    
O15   Zn4   2.019521 S    
O21   C67   1.219485 A    
C17   C21   1.519773 S    
C10   C38   1.531573 S    
O42   Zn12  1.881666 S    
C11   H3    1.110211 S    
O30   C71   1.248266 A    
C14   H6    1.110205 S    
O36   C74   1.301501 A    
C21   C67   1.428551 S    
C99   C101  1.454022 S    
O37   Zn9   1.881669 S    
O8    Zn4   1.875268 S    
O33   C73   1.301505 A    
O35   Zn11  1.881350 S    
O34   C73   1.301501 A    
C14   C40   1.531573 S    
O2    C2    1.248140 A    
C31   H15   1.110187 S    
O39   C75   1.301581 A    
C85   C88   1.231872 T    
O18   Zn6   1.875808 S    
C30   H14   1.110185 S    
C86   C87   1.231875 T    
C20   S4    1.782018 S    
S1    O51   1.680923 S    
O41   C77   1.301583 A    
O32   C72   1.248266 A    
C62   C76   1.479121 S    
O14   C6    1.220130 A    
O3    Zn2   1.875842 S    
O14   Zn3   2.019495 S    
Zn10  O46   1.881433 S    
O5    C1    1.248147 A    
S4    O58   1.502315 D    
C16   C32   1.548285 S    
O12   Zn2   2.019315 S    
C47   C51   1.454266 S    
O6    C2    1.248146 A    
O4    Zn2   1.875855 S    
C6    C38   1.429010 S    
C18   C22   1.519790 S    
Zn5   O29   1.876331 S    
C71   C93   1.478711 S    
C21   C28   1.531872 S    
O16   Zn4   2.019495 S    
O26   Zn8   2.018870 S    
C22   C27   1.531920 S    
O21   Zn5   2.018872 S    
C11   C18   1.535815 S    
O25   C69   1.219465 A    
C5    C37   1.429125 S    
O22   C68   1.219481 A    
S2    O54   1.680711 S    
C88   C90   1.454574 S    
C15   C20   1.535813 S    
S3    O57   1.680957 S    
O38   C76   1.301583 A    
C18   S2    1.782014 S    
C46   C50   1.454269 S    
O10   C6    1.219002 A    
O2    Zn1   1.875855 S    
C48   C52   1.454269 S    
C79   C91   1.479444 S    
C15   C40   1.531526 S    
C21   C25   1.531827 S    
C60   C64   1.231775 T    
O28   Zn8   2.018884 S    
C100  C102  1.454022 S    
C23   C69   1.428549 S    
C32   H16   1.110210 S    
C16   H8    1.110227 S    
O19   C66   1.248082 A    
C22   C68   1.428506 S    
O10   Zn1   2.019315 S    
C53   C57   1.454292 S    
O54   H18   0.990573 S    
C27   H11   1.110184 S    
O33   Zn9   1.881350 S    
O28   C69   1.219518 A    
O3    C3    1.248139 A    
C8    C40   1.429010 S    
C55   C59   1.454292 S    
O27   C70   1.219451 A    
C43   C47   1.231734 T    
C33   C37   1.532446 S    
O27   Zn7   2.018882 S    
C89   C91   1.231960 T    
Zn12  O48   1.881433 S    
C9    C17   1.535885 S    
C14   C30   1.548235 S    
C58   C62   1.231775 T    
C28   C33   1.545324 S    
C10   H2    1.110203 S    
O40   C76   1.301581 A    
C23   C32   1.531910 S    
C94   C96   1.231566 T    
C11   C27   1.548175 S    
S2    O52   1.502311 D    
S2    O53   1.502647 D    
O24   C67   1.219497 A    
C12   C28   1.548298 S    
C45   C49   1.454266 S    
Zn6   O30   1.876320 S    
C84   C86   1.454358 S    
C12   C37   1.531754 S    
O19   Zn7   1.875798 S    
