data_mof_unit_31775.cif
_audit_creation_date              2012-12-11T14:30:18-0500
_audit_creation_method            fapswitch 2.2
_symmetry_space_group_name_H-M    P1
_symmetry_Int_Tables_number       1
_space_group_crystal_system       triclinic
_cell_length_a                    12.724144
_cell_length_b                    12.721293
_cell_length_c                    27.147987
_cell_angle_alpha                 89.862917
_cell_angle_beta                  90.039555
_cell_angle_gamma                 119.95624
_cell_volume                      3807.3088993

loop_
_atom_site_label
_atom_site_type_symbol
_atom_type_description
_atom_site_fract_x
_atom_site_fract_y
_atom_site_fract_z
_atom_type_partial_charge
C1    C     C_R   0.559895 0.455464 0.822616 0.566981
C2    C     C_R   0.454487 0.558142 0.177518 0.560989
C3    C     C_R   0.089654 0.369693 0.483646 0.298571
C4    C     C_R   0.369253 0.082529 0.033787 0.309477
C5    C     C_R   0.621952 0.720994 0.484077 0.283784
C6    C     C_R   0.289946 0.910773 0.534238 0.305804
C7    C     C_R   0.904013 0.279015 0.984283 0.282399
C8    C     C_R   0.611163 0.711437 0.535064 0.292345
C9    C     C_R   0.361010 0.081496 0.982704 0.303403
C10   C     C_R   0.091101 0.379947 0.534637 0.307132
C11   C     C_R   0.720108 0.628313 0.983473 0.294462
C12   C     C_R   0.440208 0.895915 0.322527 0.567026
C13   C     C_R   0.103543 0.545662 0.177524 0.551089
C14   C     C_R   0.979116 0.496991 0.975771 -0.072710
C15   C     C_R   0.510270 0.998759 0.526735 -0.078613
C16   C     C_R   0.502603 0.482688 0.975723 -0.076121
C17   C     C_R   0.004869 0.513965 0.527164 -0.080318
C18   C     C_R   0.511274 0.015096 0.976146 -0.075969
C19   C     C_R   0.483252 0.490680 0.527402 -0.079997
C20   C     C_R   0.498568 0.984913 0.475169 -0.071022
C21   C     C_R   0.896758 0.442258 0.677583 0.549556
C22   C     C_R   0.993313 0.508945 0.027327 -0.078802
C23   C     C_R   0.480961 0.502644 0.475854 -0.073494
C24   C     C_R   0.509893 0.003920 0.027921 -0.089690
C25   C     C_R   0.017861 0.515584 0.475541 -0.075970
C26   C     C_R   0.491255 0.484896 0.027327 -0.078219
C27   C     C_R   0.063488 0.715872 0.967464 0.278764
C28   C     C_R   0.729397 0.080284 0.519031 0.306284
C29   C     C_R   0.284381 0.342705 0.968240 0.288489
C30   C     C_R   0.925434 0.653289 0.519554 0.286960
C31   C     C_R   0.649473 0.934734 0.969687 0.269599
C32   C     C_R   0.544421 0.104269 0.822790 0.566238
C33   C     C_R   0.347953 0.271237 0.519692 0.302672
C34   C     C_R   0.717321 0.068153 0.467156 0.279447
C35   C     C_R   0.074890 0.727958 0.019307 0.306292
C36   C     C_R   0.347739 0.283489 0.467831 0.278000
C37   C     C_R   0.648916 0.923859 0.021826 0.331046
C38   C     C_R   0.939219 0.655423 0.467697 0.288155
C39   C     C_R   0.272865 0.344902 0.020120 0.284509
C40   C     C_R   0.987602 0.583510 0.893980 0.258719
C41   C     C_R   0.637150 0.077847 0.599623 0.246680
C42   C     C_R   0.416301 0.402392 0.894280 0.256952
C43   C     C_R   0.558061 0.454417 0.677509 0.549292
C44   C     C_R   0.926799 0.562786 0.600127 0.245054
C45   C     C_R   0.595985 0.012212 0.895163 0.263076
C46   C     C_R   0.439685 0.363135 0.599949 0.246324
C47   C     C_R   0.584642 0.990268 0.393678 0.259628
C48   C     C_R   0.075183 0.636494 0.099829 0.248212
C49   C     C_R   0.403706 0.416159 0.394182 0.258247
C50   C     C_R   0.577772 0.950782 0.103057 0.252010
C51   C     C_R   0.012310 0.596260 0.393968 0.256954
C52   C     C_R   0.364595 0.436551 0.100412 0.242360
C53   C     C_R   0.047372 0.532651 0.128518 -0.011749
C54   C     C_R   0.895538 0.439924 0.822625 0.568736
C55   C     C_R   0.468830 0.943455 0.373146 0.025179
C56   C     C_R   0.468076 0.515509 0.128532 0.000581
C57   C     C_R   0.057345 0.525785 0.373354 0.021457
C58   C     C_R   0.488399 0.961769 0.130118 -0.058746
C59   C     C_R   0.472869 0.532011 0.373578 0.025231
C60   C     C_R   0.533067 0.049047 0.628238 -0.014640
C61   C     C_R   0.941302 0.467752 0.873512 0.025100
C62   C     C_R   0.514828 0.467240 0.628495 -0.013011
C63   C     C_R   0.525252 0.056454 0.873742 0.024278
C64   C     C_R   0.953185 0.485392 0.628591 -0.014136
C65   C     C_R   0.545684 0.103788 0.677485 0.550762
C66   C     C_R   0.531609 0.473200 0.873477 0.021675
C67   C     C_R   0.011342 0.600087 0.945502 0.053231
C68   C     C_R   0.626298 0.050921 0.548621 0.039329
C69   C     C_R   0.399671 0.409447 0.945836 0.052824
C70   C     C_R   0.954267 0.579154 0.549145 0.033772
C71   C     C_R   0.586057 0.986521 0.946781 0.054803
C72   C     C_R   0.421447 0.374335 0.549191 0.035057
C73   C     C_R   0.601526 0.015887 0.445086 0.057918
C74   C     C_R   0.046455 0.625161 0.048992 0.036662
C75   C     C_R   0.410789 0.399450 0.445726 0.053463
C76   C     C_R   0.455470 0.559901 0.322618 0.569662
C77   C     C_R   0.580558 0.960535 0.051012 0.076060
C78   C     C_R   0.988058 0.588786 0.445480 0.055431
C79   C     C_R   0.375670 0.419662 0.049492 0.030906
C80   C     C_R   0.918559 0.369208 0.903647 -0.155287
C81   C     C_R   0.418637 0.986225 0.606912 -0.180407
C82   C     C_R   0.629694 0.550605 0.903265 -0.151410
C83   C     C_R   0.015328 0.432956 0.607273 -0.180486
C84   C     C_R   0.444664 0.073778 0.903023 -0.151030
C85   C     C_R   0.563894 0.581913 0.607418 -0.183194
C86   C     C_R   0.370765 0.922935 0.403010 -0.151330
C87   C     C_R   0.443595 0.899487 0.178204 0.534241
C88   C     C_R   0.983296 0.417973 0.107514 -0.186457
C89   C     C_R   0.547786 0.630658 0.403597 -0.154866
C90   C     C_R   0.425460 0.011861 0.107282 -0.178914
C91   C     C_R   0.077551 0.447906 0.403257 -0.150140
C92   C     C_R   0.582455 0.568993 0.106976 -0.146793
C93   C     C_R   0.935829 0.381666 0.954347 -0.031685
C94   C     C_R   0.405433 0.961580 0.556394 -0.043346
C95   C     C_R   0.617424 0.556073 0.953916 -0.023585
C96   C     C_R   0.040844 0.445130 0.556793 -0.041963
C97   C     C_R   0.436711 0.054392 0.953692 -0.022704
C98   C     C_R   0.104226 0.544301 0.322591 0.566405
C99   C     C_R   0.549759 0.595469 0.557106 -0.049073
C100  C     C_R   0.383433 0.942191 0.453563 -0.025967
C101  C     C_R   0.956113 0.404293 0.057174 -0.047470
C102  C     C_R   0.552254 0.618169 0.454297 -0.032676
C103  C     C_R   0.437799 0.036871 0.056751 -0.044791
C104  C     C_R   0.059369 0.442114 0.453909 -0.023943
C105  C     C_R   0.595899 0.554567 0.056734 -0.032911
C106  C     C_R   0.903044 0.288463 0.035279 0.289971
C107  C     C_R   0.280951 0.912129 0.483245 0.297492
C108  C     C_R   0.711332 0.618405 0.034484 0.300150
Cr1   Cr    Cr6+3 0.487630 0.241180 0.750000 1.108189
Cr2   Cr    Cr6+3 0.753550 0.512370 0.750000 1.108306
Cr3   Cr    Cr6+3 0.758820 0.246450 0.750000 1.110386
Cr4   Cr    Cr6+3 0.241180 0.487630 0.250000 1.105166
Cr5   Cr    Cr6+3 0.512370 0.753550 0.250000 1.085008
Cr6   Cr    Cr6+3 0.246450 0.758820 0.250000 1.107523
H1    H     H_    0.965176 0.340417 0.130038 0.177145
H2    H     H_    0.395885 0.114137 0.886507 0.150537
H3    H     H_    0.032673 0.372756 0.629653 0.184162
H4    H     H_    0.719235 0.598828 0.887104 0.154139
H5    H     H_    0.219870 0.789729 0.102454 0.339061
H6    H     H_    0.712857 0.958734 0.377979 0.347286
H7    H     H_    0.209234 0.423215 0.105137 0.336547
H8    H     H_    0.049598 0.756646 0.376371 0.354280
H9    H     H_    0.686610 0.977675 0.157042 0.332484
H10   H     H_    0.244998 0.287325 0.377816 0.346919
H11   H     H_    0.790555 0.222239 0.603340 0.334722
H12   H     H_    0.280997 0.880378 0.387068 0.150976
H13   H     H_    0.957288 0.712314 0.877579 0.345500
H14   H     H_    0.433581 0.210782 0.602469 0.333883
H15   H     H_    0.756786 0.043680 0.881268 0.351921
H16   H     H_    0.783744 0.574502 0.604477 0.332140
H17   H     H_    0.293141 0.242192 0.876906 0.354980
H18   H     H_    0.118428 0.899721 0.018094 0.380904
H19   H     H_    0.858782 0.065254 0.445144 0.335811
H20   H     H_    0.096354 0.258987 0.020467 0.353209
H21   H     H_    0.933518 0.801713 0.453635 0.353701
H22   H     H_    0.752314 0.849537 0.021256 0.364902
H23   H     H_    0.659834 0.630511 0.128989 0.183233
H24   H     H_    0.204767 0.141006 0.445664 0.337956
H25   H     H_    0.904098 0.134854 0.517681 0.373990
H26   H     H_    0.061733 0.856685 0.943717 0.336328
H27   H     H_    0.228443 0.096373 0.518483 0.376016
H28   H     H_    0.792678 0.930767 0.950813 0.339852
H29   H     H_    0.833453 0.737855 0.519631 0.350022
H30   H     H_    0.132199 0.196925 0.954313 0.356569
H31   H     H_    0.817910 0.190762 0.091925 0.311590
H32   H     H_    0.182217 0.933714 0.434578 0.327502
H33   H     H_    0.810025 0.632058 0.090936 0.317454
H34   H     H_    0.119014 0.399747 0.387196 0.153649
H35   H     H_    0.067702 0.248919 0.435354 0.323249
H36   H     H_    0.350330 0.165829 0.089631 0.320858
H37   H     H_    0.744654 0.820520 0.436540 0.320141
H38   H     H_    0.190564 0.823275 0.590176 0.319358
H39   H     H_    0.927879 0.180308 0.936685 0.323107
H40   H     H_    0.621514 0.808408 0.591521 0.319360
H41   H     H_    0.242819 0.059407 0.932859 0.330068
H42   H     H_    0.177702 0.366954 0.590681 0.319070
H43   H     H_    0.818247 0.749676 0.935092 0.323188
H44   H     H_    0.358919 0.021515 0.128577 0.190961
H45   H     H_    0.594669 0.720503 0.387545 0.155735
H46   H     H_    0.340956 0.967511 0.629372 0.184510
H47   H     H_    0.876192 0.279460 0.887701 0.156093
H48   H     H_    0.622654 0.659661 0.629822 0.182133
O1    O     O_R   0.460870 0.120930 0.805240 -0.518633
O2    O     O_R   0.120930 0.460870 0.194760 -0.492791
O3    O     O_R   0.539130 0.660060 0.305240 -0.518595
O4    O     O_R   0.339940 0.879070 0.194760 -0.477561
O5    O     O_R   0.498910 0.350470 0.801870 -0.469370
O6    O     O_R   0.851560 0.501090 0.698130 -0.439697
O7    O     O_R   0.649530 0.148440 0.801870 -0.465105
O8    O     O_R   0.498910 0.350470 0.698130 -0.437955
O9    O     O_R   0.851560 0.501090 0.801870 -0.467340
O10   O     O_R   0.649530 0.148440 0.698130 -0.439473
O11   O     O_R   0.350470 0.498910 0.301870 -0.467400
O12   O     O_R   0.660060 0.539130 0.694760 -0.488936
O13   O     O_R   0.501090 0.851560 0.198130 -0.481345
O14   O     O_R   0.148440 0.649530 0.301870 -0.469589
O15   O     O_R   0.350470 0.498910 0.198130 -0.442104
O16   O     O_R   0.501090 0.851560 0.301870 -0.469610
O17   O     O_R   0.148440 0.649530 0.198130 -0.436505
O18   O     O_3   0.666667 0.333333 0.750000 -0.303571
O19   O     O_3   0.333333 0.666667 0.250000 -0.295002
O20   O     O_3   0.142002 0.749324 0.120714 -0.589267
O21   O     O_3   0.677701 0.005577 0.363180 -0.632090
O22   O     O_3   0.251971 0.386103 0.122023 -0.589418
O23   O     O_R   0.879070 0.339940 0.805240 -0.516427
O24   O     O_3   0.996646 0.673763 0.363364 -0.623168
O25   O     O_3   0.660515 0.928088 0.126616 -0.577125
O26   O     O_3   0.327486 0.322780 0.363558 -0.628491
O27   O     O_3   0.749763 0.143271 0.620891 -0.585262
O28   O     O_3   0.004282 0.676912 0.863260 -0.627895
O29   O     O_3   0.395435 0.250290 0.620870 -0.586796
O30   O     O_3   0.676230 0.999320 0.865281 -0.628359
O31   O     O_3   0.863276 0.612032 0.621510 -0.585065
O32   O     O_3   0.323169 0.325155 0.863799 -0.621667
O33   O     O_3   0.112829 0.838580 0.041950 -0.607537
O34   O     O_R   0.460870 0.120930 0.694760 -0.484906
O35   O     O_3   0.818935 0.113440 0.437776 -0.693484
O36   O     O_3   0.162683 0.272214 0.042945 -0.602624
O37   O     O_3   0.903853 0.721078 0.438381 -0.688872
O38   O     O_3   0.709018 0.872262 0.045164 -0.580060
O39   O     O_3   0.292852 0.181879 0.438501 -0.692072
O40   O     O_3   0.840098 0.119025 0.541854 -0.609141
O41   O     O_3   0.111366 0.817684 0.938067 -0.689993
O42   O     O_3   0.276765 0.160320 0.542597 -0.607553
O43   O     O_3   0.706259 0.889102 0.940780 -0.692708
O44   O     O_3   0.887382 0.725751 0.542119 -0.602306
O45   O     O_R   0.660060 0.539130 0.805240 -0.517158
O46   O     O_3   0.183356 0.277640 0.939037 -0.686883
O47   O     O_3   0.859482 0.183079 0.062485 -0.608654
O48   O     O_3   0.169443 0.881984 0.463788 -0.693144
O49   O     O_3   0.816970 0.680862 0.061353 -0.605604
O50   O     O_3   0.120088 0.288500 0.464248 -0.708784
O51   O     O_3   0.303058 0.122455 0.060053 -0.592131
O52   O     O_3   0.702604 0.832876 0.464693 -0.704587
O53   O     O_3   0.184357 0.867348 0.561209 -0.592920
O54   O     O_3   0.873893 0.167405 0.965067 -0.705900
O55   O     O_3   0.671240 0.816951 0.562114 -0.601720
O56   O     O_R   0.879070 0.339940 0.694760 -0.487325
O57   O     O_3   0.278757 0.109699 0.962550 -0.695414
O58   O     O_3   0.134136 0.317271 0.561620 -0.600506
O59   O     O_3   0.831421 0.709769 0.963877 -0.711875
O60   O     O_R   0.120930 0.460870 0.305240 -0.518791
O61   O     O_R   0.539130 0.660060 0.194760 -0.488106
O62   O     O_R   0.339940 0.879070 0.305240 -0.519135

loop_
_geom_bond_atom_site_label_1
_geom_bond_atom_site_label_2
_ccdc_geom_bond_type
C3    C104  A    
C12   O16   A    
C32   O7    A    
C32   O1    A    
C35   C74   A    
C50   O25   S    
C89   C102  A    
C86   H12   S    
C34   O35   S    
H27   O42   S    
C91   C104  A    
H16   O31   S    
C58   C87   S    
C11   O59   S    
C15   C94   A    
C88   C101  A    
C64   C83   A    
C10   O58   S    
C37   O38   S    
C107  O48   S    
C44   C64   A    
C44   O31   S    
C21   O6    A    
C46   C62   A    
C59   C76   S    
C18   C24   A    
C84   C97   A    
C76   O11   A    
C28   C68   A    
C8    C99   A    
C52   O22   S    
C31   O43   S    
C5    O52   S    
Cr5   O3    S    
H24   O39   S    
H8    O24   S    
H29   O44   S    
C45   C71   A    
C1    O5    A    
C61   C80   A    
C30   O44   S    
C4    C103  A    
C101  C106  A    
C33   C36   A    
C30   C38   A    
Cr1   O34   S    
C2    O15   A    
Cr3   O10   S    
C59   C89   A    
H28   O43   S    
C42   O32   S    
C12   O62   A    
C21   C64   S    
C8    O55   S    
Cr1   O5    S    
C33   C72   A    
H32   O48   S    
Cr2   O6    S    
Cr5   O61   S    
C6    O53   S    
C6    C94   A    
H37   O52   S    
H18   O33   S    
H19   O35   S    
C6    C107  A    
H35   O50   S    
H41   O57   S    
Cr2   O45   S    
C51   C57   A    
Cr3   O56   S    
C10   C96   A    
C52   C79   A    
C86   C100  A    
C46   O29   S    
C14   C93   A    
C29   C69   A    
C7    O54   S    
C35   O33   S    
Cr5   O13   S    
C65   O34   A    
Cr2   O9    S    
C9    O57   S    
C31   C71   A    
Cr4   O11   S    
C28   C34   A    
C17   C70   A    
C84   H2    S    
C81   H46   S    
H43   O59   S    
C85   H48   S    
C24   C103  A    
C19   C72   A    
C15   C20   A    
Cr4   O60   S    
H33   O49   S    
C92   H23   S    
C26   C105  A    
C7    C93   A    
C91   H34   S    
C30   C70   A    
C43   O8    A    
C89   H45   S    
C41   C68   A    
H31   O47   S    
Cr2   O12   S    
C16   C26   A    
C48   C53   A    
Cr4   O2    S    
H38   O53   S    
Cr5   O19   S    
Cr3   O23   S    
H13   O28   S    
C65   O10   A    
C25   C78   A    
C50   C58   A    
C48   C74   A    
C42   C66   A    
C23   C102  A    
C47   C73   A    
C47   O21   S    
Cr1   O1    S    
H26   O41   S    
H10   O26   S    
C19   C99   A    
C38   C78   A    
C27   C35   A    
C13   O17   A    
C106  O47   S    
C37   C77   A    
C45   C63   A    
C42   C69   A    
C40   C61   A    
C31   C37   A    
Cr3   O7    S    
H5    O20   S    
C39   C79   A    
C90   H44   S    
C19   C23   A    
C13   C53   S    
C85   C99   A    
C36   C75   A    
C66   C82   A    
C98   O14   A    
C60   C81   A    
C24   C77   A    
C45   O30   S    
C20   C100  A    
Cr2   O18   S    
C14   C67   A    
Cr6   O4    S    
C29   C39   A    
C49   C75   A    
C1    C66   S    
C7    C106  A    
C29   O46   S    
C76   O3    A    
H42   O58   S    
C17   C96   A    
C105  C108  A    
H40   O55   S    
C44   C70   A    
C22   C101  A    
C58   C90   A    
H7    O22   S    
C18   C97   A    
C39   O36   S    
C60   C65   S    
C21   O56   A    
Cr3   O18   S    
C27   O41   S    
H17   O32   S    
C36   O39   S    
C82   H4    S    
C50   C77   A    
C108  O49   S    
Cr1   O8    S    
C40   C67   A    
C13   O2    A    
C47   C55   A    
C80   H47   S    
C11   C95   A    
C18   C71   A    
H20   O36   S    
C5    C102  A    
C100  C107  A    
C9    C97   A    
C4    O51   S    
C57   C91   A    
C38   O37   S    
C46   C72   A    
C54   O9    A    
C16   C69   A    
C3    O50   S    
C41   C60   A    
C23   C75   A    
H25   O40   S    
C5    C8    A    
C25   C104  A    
Cr4   O19   S    
C54   C61   S    
C82   C95   A    
C32   C63   S    
Cr6   O19   S    
C87   O13   A    
C33   O42   S    
C15   C68   A    
C26   C79   A    
C49   C59   A    
C41   O27   S    
C63   C84   A    
H36   O51   S    
H14   O29   S    
C17   C25   A    
C83   H3    S    
C88   H1    S    
C80   C93   A    
C51   C78   A    
C28   O40   S    
C51   O24   S    
C2    C56   S    
C48   O20   S    
C81   C94   A    
C16   C95   A    
Cr1   O18   S    
C14   C22   A    
C49   O26   S    
C83   C96   A    
C55   C86   A    
C57   C98   S    
C98   O60   A    
Cr6   O14   S    
C2    O61   A    
C43   O12   A    
C20   C73   A    
Cr5   O16   S    
C53   C88   A    
H9    O25   S    
C1    O45   A    
H6    O21   S    
H21   O37   S    
C90   C103  A    
H22   O38   S    
C12   C55   S    
C27   C67   A    
C34   C73   A    
C87   O4    A    
C92   C105  A    
C56   C92   A    
C40   O28   S    
H15   O30   S    
Cr6   O17   S    
C11   C108  A    
C3    C10   A    
C22   C74   A    
C62   C85   A    
H11   O27   S    
Cr6   O62   S    
C4    C9    A    
C54   O23   A    
H39   O54   S    
C52   C56   A    
C43   C62   S    
Cr4   O15   S    
H30   O46   S    
