data_mof_unit_24490.cif
_audit_creation_date              2012-12-11T14:10:41-0500
_audit_creation_method            fapswitch 2.2
_symmetry_space_group_name_H-M    P1
_symmetry_Int_Tables_number       1
_space_group_crystal_system       triclinic
_cell_length_a                    19.975836
_cell_length_b                    17.242439
_cell_length_c                    15.472682
_cell_angle_alpha                 89.999464
_cell_angle_beta                  52.021464
_cell_angle_gamma                 90.000179
_cell_volume                      4200.76578182

loop_
_atom_site_label
_atom_site_type_symbol
_atom_type_description
_atom_site_fract_x
_atom_site_fract_y
_atom_site_fract_z
_atom_type_partial_charge
C1    C     C_R   0.347869 0.183121 0.032738 0.071921
C2    C     C_R   0.652131 0.816878 0.967262 0.071903
C3    C     C_R   0.619140 0.198359 0.010488 0.061188
C4    C     C_R   0.380858 0.801641 0.989514 0.061178
C5    C     C_R   0.880858 0.698359 0.989514 0.061178
C6    C     C_R   0.119141 0.301641 0.010487 0.061181
C7    C     C_R   0.152134 0.683121 0.967257 0.071946
C8    C     C_R   0.847870 0.316876 0.032735 0.071744
C9    C     C_3   0.335963 0.279800 0.534564 0.908036
C10   C     C_3   0.664061 0.720241 0.465398 0.907967
C11   C     C_3   0.757833 0.225543 0.445302 0.895571
C12   C     C_3   0.242320 0.774123 0.554455 0.895937
C13   C     C_3   0.742298 0.725826 0.554502 0.895832
C14   C     C_3   0.257692 0.274137 0.445524 0.895912
C15   C     C_3   0.164018 0.779819 0.465454 0.908064
C16   C     C_3   0.835748 0.220522 0.534857 0.907726
C17   C     C_2   0.266454 0.700019 0.987339 -0.173597
C18   C     C_2   0.733551 0.299977 0.012653 -0.173562
C19   C     C_2   0.811726 0.746243 0.909836 -0.178941
C20   C     C_2   0.188272 0.253757 0.090166 -0.179025
C21   C     C_2   0.688272 0.246242 0.090165 -0.179017
C22   C     C_2   0.311732 0.753756 0.909829 -0.178929
C23   C     C_2   0.233549 0.200021 0.012656 -0.173559
C24   C     C_2   0.766449 0.799978 0.987346 -0.173590
C25   C     C_R   0.347530 0.830247 0.221707 -0.116506
C26   C     C_R   0.652482 0.169738 0.778304 -0.116375
C27   C     C_R   0.608107 0.803011 0.785332 -0.062525
C28   C     C_R   0.391897 0.196991 0.214666 -0.062522
C29   C     C_R   0.891860 0.303017 0.214683 -0.062592
C30   C     C_R   0.108107 0.696990 0.785331 -0.062516
C31   C     C_R   0.152466 0.330243 0.778293 -0.116497
C32   C     C_R   0.847532 0.669755 0.221706 -0.116467
C33   C     C_R   0.367876 0.888351 0.895269 -0.150642
C34   C     C_R   0.632124 0.111648 0.104730 -0.150644
C35   C     C_R   0.664172 0.908616 0.058830 -0.138172
C36   C     C_R   0.335827 0.091384 0.941170 -0.138217
C37   C     C_R   0.835828 0.408616 0.941169 -0.138052
C38   C     C_R   0.164174 0.591382 0.058826 -0.138198
C39   C     C_R   0.132125 0.388351 0.104730 -0.150636
C40   C     C_R   0.867874 0.611649 0.895271 -0.150663
C41   C     C_R   0.398212 0.104659 0.310223 -0.139025
C42   C     C_R   0.601796 0.895344 0.689772 -0.139071
C43   C     C_R   0.643254 0.078785 0.682654 -0.103844
C44   C     C_R   0.356765 0.921203 0.317354 -0.103651
C45   C     C_R   0.856767 0.578801 0.317356 -0.103720
C46   C     C_R   0.143232 0.421199 0.682644 -0.103630
C47   C     C_R   0.101791 0.604658 0.689775 -0.139003
C48   C     C_R   0.898163 0.395350 0.310250 -0.139207
C49   C     C_R   0.298262 0.157013 0.004333 0.092493
C50   C     C_R   0.701737 0.842986 0.995667 0.092500
C51   C     C_R   0.647344 0.187919 0.070973 0.096668
C52   C     C_R   0.352656 0.812080 0.929027 0.096625
C53   C     C_R   0.852653 0.687919 0.929029 0.096642
C54   C     C_R   0.147345 0.312081 0.070972 0.096632
C55   C     C_R   0.201741 0.657011 0.995660 0.092511
C56   C     C_R   0.798264 0.342985 0.004331 0.092486
C57   C     C_R   0.306289 0.863460 0.324044 0.143242
C58   C     C_R   0.693746 0.136508 0.675973 0.143105
C59   C     C_R   0.623823 0.820207 0.687848 0.133070
C60   C     C_R   0.376189 0.179796 0.312145 0.133073
C61   C     C_R   0.876105 0.320220 0.312189 0.133008
C62   C     C_R   0.123817 0.679794 0.687851 0.133095
C63   C     C_R   0.193706 0.363455 0.675954 0.143238
C64   C     C_R   0.806290 0.636541 0.324044 0.143207
C65   C     C_3   0.301499 0.204990 0.520493 -0.372885
C66   C     C_3   0.698553 0.795029 0.479485 -0.372845
C67   C     C_3   0.792656 0.151094 0.458740 -0.365123
C68   C     C_3   0.207691 0.848793 0.541216 -0.365314
C69   C     C_3   0.707637 0.651188 0.541227 -0.365243
C70   C     C_3   0.292325 0.348797 0.458782 -0.365257
C71   C     C_3   0.198479 0.704998 0.479507 -0.372899
C72   C     C_3   0.801091 0.295113 0.520614 -0.372797
C73   C     C_3   0.623881 0.694119 0.584022 -0.330403
C74   C     C_3   0.376104 0.305907 0.415953 -0.330487
C75   C     C_3   0.281245 0.747385 0.438284 -0.337240
C76   C     C_3   0.718565 0.252375 0.561549 -0.336979
C77   C     C_3   0.218745 0.247391 0.561698 -0.337251
C78   C     C_3   0.781284 0.752586 0.438315 -0.337169
C79   C     C_3   0.876211 0.194323 0.416176 -0.330203
C80   C     C_3   0.123900 0.805918 0.584064 -0.330488
C81   C     C_3   0.660479 0.768061 0.596162 -0.095305
C82   C     C_3   0.339534 0.231943 0.403830 -0.095278
C83   C     C_3   0.245858 0.821687 0.424497 -0.088686
C84   C     C_3   0.754144 0.178306 0.575532 -0.088730
C85   C     C_3   0.254134 0.321681 0.575503 -0.088674
C86   C     C_3   0.745866 0.678319 0.424493 -0.088719
C87   C     C_3   0.839454 0.268068 0.403874 -0.095241
C88   C     C_3   0.160467 0.731943 0.596167 -0.095292
H1    H     H_    0.326654 0.780457 0.201844 0.131541
H2    H     H_    0.673353 0.219530 0.798168 0.131747
H3    H     H_    0.607271 0.745639 0.813226 0.126752
H4    H     H_    0.392734 0.254362 0.186770 0.126725
H5    H     H_    0.892702 0.245644 0.186789 0.126973
H6    H     H_    0.107270 0.754362 0.813224 0.126706
H7    H     H_    0.173339 0.280452 0.798157 0.131550
H8    H     H_    0.826659 0.719545 0.201842 0.131580
H9    H     H_    0.362324 0.914433 0.836349 0.120303
H10   H     H_    0.637678 0.085565 0.163649 0.120372
H11   H     H_    0.681947 0.941053 0.101761 0.119012
H12   H     H_    0.318052 0.058947 0.898240 0.118988
H13   H     H_    0.818054 0.441054 0.898238 0.119015
H14   H     H_    0.181949 0.558944 0.101756 0.118985
H15   H     H_    0.137678 0.414432 0.163649 0.120309
H16   H     H_    0.862321 0.585567 0.836352 0.120336
H17   H     H_    0.403816 0.076541 0.367966 0.106995
H18   H     H_    0.596194 0.923462 0.632028 0.107035
H19   H     H_    0.654260 0.045085 0.616190 0.108044
H20   H     H_    0.345767 0.954912 0.383805 0.107897
H21   H     H_    0.845771 0.545099 0.383812 0.107904
H22   H     H_    0.154229 0.454907 0.616191 0.107904
H23   H     H_    0.096187 0.576541 0.632033 0.106992
H24   H     H_    0.903760 0.423459 0.368003 0.107098
H25   H     H_    0.558140 0.672386 0.645471 0.181029
H26   H     H_    0.441828 0.327661 0.354488 0.181020
H27   H     H_    0.346635 0.724282 0.378329 0.182563
H28   H     H_    0.653054 0.275273 0.621340 0.182609
H29   H     H_    0.153350 0.224297 0.621639 0.182558
H30   H     H_    0.846697 0.775659 0.378389 0.182562
H31   H     H_    0.942048 0.172762 0.354866 0.181035
H32   H     H_    0.058181 0.827679 0.645543 0.181026
H33   H     H_    0.305916 0.145979 0.545284 0.170110
H34   H     H_    0.694175 0.854055 0.454682 0.170134
H35   H     H_    0.788176 0.091800 0.434736 0.171955
H36   H     H_    0.212472 0.907987 0.565183 0.171876
H37   H     H_    0.712372 0.591974 0.565201 0.171862
H38   H     H_    0.287554 0.407995 0.434816 0.171881
H39   H     H_    0.194049 0.645992 0.454717 0.170118
H40   H     H_    0.805195 0.354216 0.545475 0.170110
H41   H     H_    0.267911 0.693447 0.055854 0.151084
H42   H     H_    0.732092 0.306548 0.944138 0.151207
H43   H     H_    0.808282 0.738701 0.843001 0.168240
H44   H     H_    0.191717 0.261299 0.157000 0.168211
H45   H     H_    0.691718 0.238699 0.156999 0.168283
H46   H     H_    0.308288 0.761300 0.842994 0.168224
H47   H     H_    0.232090 0.193451 0.944142 0.151085
H48   H     H_    0.767908 0.806548 0.055861 0.151116
N1    N     N_R   0.408680 0.130810 0.995780 -0.068314
N2    N     N_R   0.591320 0.869190 0.004220 -0.068316
N3    N     N_R   0.591320 0.130810 0.004220 -0.063378
N4    N     N_R   0.408680 0.869190 0.995780 -0.063361
N5    N     N_R   0.908680 0.630810 0.995780 -0.063369
N6    N     N_R   0.091320 0.369190 0.004220 -0.063360
N7    N     N_R   0.091320 0.630810 0.004220 -0.068315
N8    N     N_R   0.908680 0.369190 0.995780 -0.068318
N9    N     N_R   0.421410 0.867210 0.153620 -0.054818
N10   N     N_R   0.578590 0.132790 0.846380 -0.054860
N11   N     N_R   0.578590 0.867210 0.846380 -0.058474
N12   N     N_R   0.421410 0.132790 0.153620 -0.058469
N13   N     N_R   0.921410 0.367210 0.153620 -0.058507
N14   N     N_R   0.078590 0.632790 0.846380 -0.058469
N15   N     N_R   0.078590 0.367210 0.846380 -0.054822
N16   N     N_R   0.921410 0.632790 0.153620 -0.054827
N17   N     N_R   0.403840 0.921910 0.935760 -0.051000
N18   N     N_R   0.596160 0.078090 0.064240 -0.051017
N19   N     N_R   0.596160 0.921910 0.064240 -0.052941
N20   N     N_R   0.403840 0.078090 0.935760 -0.052938
N21   N     N_R   0.903840 0.421910 0.935760 -0.052944
N22   N     N_R   0.096160 0.578090 0.064240 -0.052938
N23   N     N_R   0.096160 0.421910 0.064240 -0.050996
N24   N     N_R   0.903840 0.578090 0.935760 -0.051016
N25   N     N_R   0.426250 0.076100 0.213650 -0.047970
N26   N     N_R   0.573750 0.923900 0.786350 -0.047965
N27   N     N_R   0.573750 0.076100 0.786350 -0.048850
N28   N     N_R   0.426250 0.923900 0.213650 -0.048853
N29   N     N_R   0.926250 0.576100 0.213650 -0.048845
N30   N     N_R   0.073750 0.423900 0.786350 -0.048850
N31   N     N_R   0.073750 0.576100 0.786350 -0.047974
N32   N     N_R   0.926250 0.423900 0.213650 -0.047957
Ni1   Ni    Ni4+2 0.500000 0.131570 0.000000 0.231350
Ni2   Ni    Ni4+2 0.500000 0.868430 0.000000 0.231368
Ni3   Ni    Ni4+2 1.000000 0.631570 0.000000 0.231364
Ni4   Ni    Ni4+2 1.000000 0.368430 0.000000 0.231349
Ni5   Ni    Ni4+2 0.488900 1.000000 0.862310 0.221640
Ni6   Ni    Ni4+2 0.511100 1.000000 0.137690 0.221662
Ni7   Ni    Ni4+2 0.988900 0.500000 0.862310 0.221683
Ni8   Ni    Ni4+2 0.011100 0.500000 0.137690 0.221655
C89   C     C_1   0.355719 0.262695 0.053862 0.048177
N33   N     N_1   0.361764 0.327001 0.069658 -0.069450
C90   C     C_1   0.644280 0.737305 0.946140 0.048230
N34   N     N_1   0.638234 0.672998 0.930345 -0.069421
C91   C     C_1   0.587900 0.270564 0.000253 -0.012450
N35   N     N_1   0.562797 0.328385 0.992105 -0.074734
C92   C     C_1   0.412099 0.729436 0.999751 -0.012491
N36   N     N_1   0.437200 0.671616 0.007900 -0.074759
C93   C     C_1   0.912100 0.770564 0.999748 -0.012481
N37   N     N_1   0.937202 0.828385 0.007895 -0.074745
C94   C     C_1   0.087898 0.229436 0.000255 -0.012474
N38   N     N_1   0.062794 0.171616 0.992110 -0.074744
C95   C     C_1   0.144286 0.762694 0.946131 0.048173
N39   N     N_1   0.138243 0.827001 0.930333 -0.069459
C96   C     C_1   0.855724 0.237301 0.053850 0.048420
N40   N     N_1   0.861772 0.172994 0.069638 -0.069273
F1    F     F_    0.374858 0.284581 0.583568 -0.687988
F2    F     F_    0.625184 0.715500 0.416361 -0.687907
F3    F     F_    0.717645 0.229347 0.397836 -0.698164
F4    F     F_    0.282706 0.769966 0.601636 -0.697963
F5    F     F_    0.782648 0.729924 0.601737 -0.697987
F6    F     F_    0.217324 0.270000 0.398322 -0.698015
F7    F     F_    0.125105 0.784620 0.416472 -0.687913
F8    F     F_    0.874464 0.216074 0.584123 -0.688063

loop_
_geom_bond_atom_site_label_1
_geom_bond_atom_site_label_2
_ccdc_geom_bond_type
N2    N19   A    
C68   C80   S    
C29   H5    S    
C80   H32   S    
C41   N25   A    
N2    Ni2   S    
N13   Ni4   S    
C14   C70   S    
C16   C72   S    
N5    Ni3   S    
N6    N23   A    
C72   C76   S    
C71   H39   S    
C68   H36   S    
C47   C62   A    
C7    N7    A    
N16   N29   A    
C65   C82   S    
N26   Ni5   S    
C91   N35   T    
C33   C52   A    
C27   H3    S    
C12   C68   S    
C34   C51   A    
C10   C66   S    
C41   H17   S    
C72   H40   S    
N12   N25   A    
N17   Ni5   S    
C5    C53   A    
C78   H30   S    
C35   N19   A    
C77   H29   S    
C11   C76   S    
C10   F2    S    
C10   C73   S    
C45   H21   S    
C23   C49   S    
C39   C54   A    
C4    N4    A    
C8    C96   S    
C74   H26   S    
C13   C81   S    
C16   C84   S    
C73   H25   S    
C14   C77   S    
C37   N21   A    
C26   N10   A    
C76   C84   S    
C2    C50   A    
C43   C58   A    
C9    C85   S    
N9    Ni2   S    
C37   C56   A    
C60   C82   S    
C21   H45   S    
C38   C55   A    
N14   Ni3   S    
C11   C87   S    
C79   H31   S    
C70   C74   S    
C66   H34   S    
C69   C73   S    
C44   N28   A    
C65   H33   S    
C6    N6    A    
C61   C87   S    
C17   C55   S    
N1    Ni1   S    
C16   F8    S    
N11   Ni2   S    
C18   C56   S    
N4    N17   A    
C38   H14   S    
C19   C53   S    
C34   N18   A    
C69   H37   S    
C67   C84   S    
C71   C75   S    
C63   C85   S    
C24   C50   S    
C12   F4    S    
C8    C56   A    
N13   N32   A    
C25   C57   A    
C20   H44   S    
C35   H11   S    
C79   C87   S    
C11   C67   S    
C44   H20   S    
C19   H43   S    
C66   C78   S    
C29   C61   A    
N20   Ni5   S    
C64   C86   S    
C28   N12   A    
N18   Ni6   S    
C17   H41   S    
C96   N40   T    
C2    N2    A    
C75   C83   S    
C31   C63   A    
C65   C77   S    
C32   C64   A    
C8    N8    A    
N10   Ni1   S    
N16   Ni3   S    
C3    C51   A    
C15   C83   S    
N3    N18   A    
C70   H38   S    
C62   C88   S    
C6    C94   S    
N21   Ni7   S    
N15   Ni4   S    
C22   H46   S    
N1    N20   A    
N29   Ni8   S    
C42   C59   A    
C92   N36   T    
C58   C84   S    
C40   H16   S    
C47   N31   A    
N5    N24   A    
C5    N5    A    
C15   C80   S    
C32   N16   A    
C20   C23   D    
C44   C57   A    
C12   C88   S    
C35   C50   A    
C57   C83   S    
N12   Ni1   S    
N30   Ni7   S    
C67   C79   S    
C36   H12   S    
C43   H19   S    
C1    C89   S    
N28   Ni6   S    
C26   C58   A    
C38   N22   A    
C28   C60   A    
C13   F5    S    
C73   C81   S    
C7    C55   A    
N19   Ni6   S    
C20   C54   S    
C48   H24   S    
C42   H18   S    
C4    C52   A    
C6    C54   A    
N23   Ni8   S    
C46   H22   S    
C3    C91   S    
N24   Ni7   S    
C18   H42   S    
C3    N3    A    
C2    C90   S    
C14   C82   S    
N27   Ni5   S    
C21   C51   S    
C72   C87   S    
C1    N1    A    
C36   N20   A    
N7    N22   A    
N6    Ni4   S    
C74   C82   S    
N22   Ni8   S    
N32   Ni8   S    
C18   C21   D    
C13   C78   S    
C10   C86   S    
N4    Ni2   S    
C46   N30   A    
C39   N23   A    
C68   C83   S    
C40   N24   A    
C22   C52   S    
C59   C81   S    
C41   C60   A    
C11   F3    S    
N11   N26   A    
C67   H35   S    
C24   H48   S    
C42   N26   A    
C39   H15   S    
N9    N28   A    
C90   N34   T    
C32   H8    S    
N15   N30   A    
C15   C71   S    
N10   N27   A    
N8    Ni4   S    
C45   C64   A    
C25   H1    S    
C17   C22   D    
C69   C86   S    
C23   H47   S    
C5    C93   S    
C16   C79   S    
C34   H10   S    
C30   C62   A    
C19   C24   D    
C33   N17   A    
N7    Ni3   S    
C94   N38   T    
C80   C88   S    
C27   N11   A    
C27   C59   A    
C66   C81   S    
C37   H13   S    
N25   Ni6   S    
C78   C86   S    
C93   N37   T    
C46   C63   A    
C13   C69   S    
C47   H23   S    
N14   N31   A    
C1    C49   A    
C31   N15   A    
C76   H28   S    
C15   F7    S    
N3    Ni1   S    
N31   Ni7   S    
C9    F1    S    
C4    C92   S    
C95   N39   T    
C9    C65   S    
C29   N13   A    
C30   N14   A    
C31   H7    S    
C89   N33   T    
C77   C85   S    
C71   C88   S    
C28   H4    S    
C75   H27   S    
C30   H6    S    
C40   C53   A    
C9    C74   S    
C12   C75   S    
C48   C61   A    
C7    C95   S    
C25   N9    A    
C26   H2    S    
C33   H9    S    
N8    N21   A    
C14   F6    S    
C70   C85   S    
C45   N29   A    
C48   N32   A    
C36   C49   A    
C43   N27   A    
