data_mof_unit_45580.cif
_audit_creation_date              2012-10-26T18:43:49-0400
_audit_creation_method            fapswitch 2.2
_symmetry_space_group_name_H-M    P1
_symmetry_Int_Tables_number       1
_space_group_crystal_system       triclinic
_cell_length_a                    9.550135
_cell_length_b                    10.856729
_cell_length_c                    17.326557
_cell_angle_alpha                 90.280361
_cell_angle_beta                  85.428377
_cell_angle_gamma                 89.434365
_cell_volume                      1790.64149381

loop_
_atom_site_label
_atom_site_type_symbol
_atom_type_description
_atom_site_fract_x
_atom_site_fract_y
_atom_site_fract_z
_atom_type_partial_charge
C1    C     C_R   0.499586 0.737461 0.497422 0.543840
C2    C     C_R   0.529136 0.515341 0.266354 0.014794
C3    C     C_R   0.372746 0.937538 0.499353 0.024406
C4    C     C_R   0.481018 0.504588 0.649831 0.530866
C5    C     C_R   0.498534 0.870313 0.489740 -0.006345
C6    C     C_R   0.624672 0.934172 0.473746 -0.167935
C7    C     C_R   0.625308 0.062557 0.477353 -0.163265
C8    C     C_R   0.501145 0.128482 0.499870 -0.000569
C9    C     C_R   0.375549 0.063418 0.510222 0.016439
C10   C     C_3   0.259504 0.059887 0.574845 -0.094504
C11   C     C_3   0.248879 0.922109 0.556760 -0.101983
C12   C     C_R   0.341739 0.499958 0.777541 -0.142923
C13   C     C_R   0.935057 0.439189 0.443247 0.180283
C14   C     C_R   0.917212 0.565999 0.553155 -0.028798
C15   C     C_R   0.065789 0.564557 0.553824 -0.044033
C16   C     C_R   0.500359 0.262211 0.501206 0.544490
C17   C     C_R   0.083301 0.440990 0.442247 0.154707
C18   C     C_3   0.095506 0.306231 0.424221 -0.113782
C19   C     C_3   0.934968 0.303428 0.428348 -0.033607
C20   C     C_R   0.518747 0.502892 0.350259 0.548342
C21   C     C_R   0.469744 0.519219 0.733949 0.013207
C22   C     C_R   0.586855 0.558440 0.770905 -0.132492
C23   C     C_R   0.433213 0.593029 0.150945 -0.112135
C24   C     C_R   0.577365 0.575457 0.850508 -0.110836
C25   C     C_R   0.451368 0.550163 0.894816 0.043985
C26   C     C_R   0.332906 0.514881 0.857663 -0.119834
C27   C     C_3   0.306443 0.079872 0.657162 -0.301396
C28   C     C_3   0.314533 0.215469 0.678988 -0.413418
C29   C     C_3   0.114530 0.881528 0.519414 -0.277489
C30   C     C_3   0.072030 0.958593 0.450962 -0.437053
C31   C     C_3   0.183841 0.270267 0.348158 -0.253711
C32   C     C_3   0.174276 0.355028 0.278026 -0.416094
C33   C     C_R   0.425244 0.581384 0.230968 -0.142811
C34   C     C_R   0.643014 0.463889 0.221228 -0.130696
C35   C     C_R   0.650686 0.474530 0.141103 -0.119744
C36   C     C_R   0.544612 0.537024 0.105291 0.042855
C37   C     C_2   0.441222 0.557605 0.979805 -0.136256
C38   C     C_2   0.553869 0.541092 0.020348 -0.134698
Cu1   Cu    Cu3+1 0.359330 0.500020 0.500000 0.910715
Cu2   Cu    Cu3+1 0.640670 0.499980 0.500000 0.946377
H1    H     H_    0.685578 0.577776 0.738215 0.115157
H2    H     H_    0.134264 0.255734 0.473678 0.119871
H3    H     H_    0.889043 0.251763 0.479212 0.134030
H4    H     H_    0.724088 0.413312 0.247642 0.122642
H5    H     H_    0.655448 0.519396 0.990557 0.111579
H6    H     H_    0.234300 0.496707 0.890796 0.096581
H7    H     H_    0.352805 0.646585 0.125547 0.101200
H8    H     H_    0.249236 0.471925 0.749947 0.116124
H9    H     H_    0.337000 0.566164 0.009294 0.110332
H10   H     H_    0.668811 0.608970 0.876740 0.098015
H11   H     H_    0.411193 0.255857 0.650801 0.173403
H12   H     H_    0.738204 0.431862 0.106947 0.096762
H13   H     H_    0.220796 0.267222 0.662262 0.159670
H14   H     H_    0.319861 0.224252 0.742560 0.130318
H15   H     H_    0.227887 0.036234 0.699002 0.139770
H16   H     H_    0.409890 0.034583 0.663580 0.152545
H17   H     H_    0.029877 0.049614 0.470849 0.128554
H18   H     H_    0.161769 0.970503 0.406983 0.156864
H19   H     H_    0.987340 0.910668 0.422764 0.131677
H20   H     H_    0.131600 0.785925 0.498016 0.179517
H21   H     H_    0.025512 0.880629 0.564777 0.128013
H22   H     H_    0.090436 0.325024 0.241724 0.122620
H23   H     H_    0.723250 0.885253 0.461064 0.135162
H24   H     H_    0.157500 0.452920 0.295024 0.159915
H25   H     H_    0.274036 0.348114 0.240620 0.147473
H26   H     H_    0.295604 0.267391 0.361589 0.178254
H27   H     H_    0.158302 0.174712 0.331505 0.124119
H28   H     H_    0.908565 0.185109 0.337765 0.223808
H29   H     H_    0.895148 0.336557 0.314570 0.233653
H30   H     H_    0.723464 0.109112 0.464518 0.145236
H31   H     H_    0.164511 0.114047 0.563818 0.137197
H32   H     H_    0.273457 0.860170 0.605061 0.122933
H33   H     H_    0.854674 0.618504 0.596763 0.114304
H34   H     H_    0.114512 0.615494 0.598153 0.111811
H35   H     H_    0.338501 0.624871 0.265298 0.118278
N1    N     N_R   0.852130 0.499070 0.499500 -0.242554
N2    N     N_R   0.148040 0.499110 0.499500 -0.247579
N3    N     N_3   0.870697 0.271329 0.357235 -0.627402
O1    O     O_R   0.381190 0.680360 0.500000 -0.508949
O2    O     O_R   0.618770 0.680320 0.499990 -0.508880
O3    O     O_R   0.367430 0.500040 0.613600 -0.516827
O4    O     O_R   0.605020 0.500000 0.613590 -0.511959
O5    O     O_R   0.381230 0.319680 0.500010 -0.513509
O6    O     O_R   0.618810 0.319640 0.500000 -0.489781
O7    O     O_R   0.394980 0.500000 0.386410 -0.506371
O8    O     O_R   0.632570 0.499960 0.386400 -0.482476

loop_
_geom_bond_atom_site_label_1
_geom_bond_atom_site_label_2
_ccdc_geom_bond_type
C10   C27   S    
C31   H26   S    
Cu2   O6    S    
C35   C36   A    
C12   H8    S    
C7    H30   S    
C7    C8    A    
C31   H27   S    
C29   C30   S    
C1    C5    S    
Cu1   N2    S    
C18   C19   S    
C18   H2    S    
C5    C6    A    
C28   H11   S    
C27   H15   S    
C22   H1    S    
C30   H17   S    
C16   O6    A    
C34   C35   A    
Cu2   O8    S    
C38   H5    S    
C25   C37   S    
C29   H20   S    
C33   H35   S    
C4    O3    A    
C8    C9    A    
C23   C33   A    
C20   O8    A    
Cu2   O2    S    
C9    C10   S    
C10   H31   S    
C2    C34   A    
C8    C16   S    
C21   C22   A    
C30   H19   S    
C24   H10   S    
H29   N3    S    
C19   H3    S    
H28   N3    S    
C29   H21   S    
C23   H7    S    
C13   C19   S    
C2    C20   S    
C14   H33   S    
Cu2   O4    S    
C34   H4    S    
C24   C25   A    
Cu1   O3    S    
Cu1   Cu2   S    
C28   H14   S    
C27   H16   S    
C25   C26   A    
C12   C21   A    
C16   O5    A    
Cu2   N1    S    
C12   C26   A    
C14   N1    A    
C6    H23   S    
C19   N3    S    
C37   C38   D    
C3    C9    A    
C37   H9    S    
C31   C32   S    
C13   N1    A    
C20   O7    A    
C17   N2    A    
C17   C18   S    
C32   H24   S    
C2    C33   A    
C1    O1    A    
C22   C24   A    
Cu1   O7    S    
C35   H12   S    
C11   H32   S    
C3    C5    A    
C28   H13   S    
C6    C7    A    
C13   C17   A    
C36   C38   S    
C32   H22   S    
C4    C21   S    
C15   N2    A    
C30   H18   S    
C3    C11   S    
C10   C11   S    
C26   H6    S    
Cu1   O5    S    
C15   H34   S    
C4    O4    A    
C11   C29   S    
C23   C36   A    
C27   C28   S    
C1    O2    A    
C14   C15   A    
C18   C31   S    
Cu1   O1    S    
C32   H25   S    
