data_mof_unit_16717.cif
_audit_creation_date              2012-12-10T17:22:43-0500
_audit_creation_method            fapswitch 2.2
_symmetry_space_group_name_H-M    P1
_symmetry_Int_Tables_number       1
_space_group_crystal_system       triclinic
_cell_length_a                    10.616537
_cell_length_b                    10.756998
_cell_length_c                    9.618437
_cell_angle_alpha                 89.949837
_cell_angle_beta                  89.955574
_cell_angle_gamma                 92.75886
_cell_volume                      1097.17145416

loop_
_atom_site_label
_atom_site_type_symbol
_atom_type_description
_atom_site_fract_x
_atom_site_fract_y
_atom_site_fract_z
_atom_type_partial_charge
C1    C     C_R   0.496696 0.262671 0.500081 0.786756
C2    C     C_3   0.959465 0.499882 0.367724 -0.135122
C3    C     C_3   0.036870 0.397188 0.434147 -0.176228
C4    C     C_3   0.122531 0.499113 0.500744 0.026732
C5    C     C_R   0.284273 0.119174 0.623201 -0.194192
C6    C     C_R   0.183693 0.049068 0.681676 -0.143446
C7    C     C_R   0.183755 0.919685 0.681275 -0.139931
C8    C     C_R   0.284421 0.859617 0.622640 -0.176539
C9    C     C_R   0.387823 0.928777 0.563627 0.097178
C10   C     C_R   0.387706 0.060189 0.563821 0.093577
C11   C     C_R   0.489311 0.128492 0.500155 -0.098233
C12   C     C_R   0.259495 0.499181 0.500155 0.756393
C13   C     C_R   0.585963 0.068376 0.433467 -0.198051
C14   C     C_R   0.586132 0.940105 0.433385 -0.208886
C15   C     C_R   0.489603 0.870480 0.499933 -0.083135
C16   C     C_R   0.664200 0.668828 0.143551 -0.196842
C17   C     C_R   0.739871 0.755939 0.071922 -0.238318
C18   C     C_R   0.738761 0.758720 0.927913 0.171608
C19   C     C_R   0.663418 0.670234 0.856187 -0.182407
C20   C     C_R   0.580611 0.583342 0.925271 0.177400
C21   C     C_R   0.580671 0.583086 0.074589 0.212814
C22   C     C_R   0.423097 0.420986 0.073944 -0.057127
C23   C     C_R   0.497359 0.737070 0.499957 0.763921
C24   C     C_R   0.423175 0.420962 0.926174 -0.057953
C25   C     C_R   0.740542 0.500243 0.499845 0.758935
C26   C     C_3   0.040726 0.499070 0.632219 -0.136000
C27   C     C_3   0.952733 0.397171 0.565507 -0.163949
C28   C     C_3   0.877608 0.499865 0.499242 0.035049
C29   C     C_3   0.963406 0.601676 0.565776 -0.182802
C30   C     C_3   0.047457 0.601743 0.434484 -0.169818
Cu1   Cu    Cu3+1 0.499990 0.499990 0.640660 0.924219
Cu2   Cu    Cu3+1 0.500010 0.500010 0.359340 0.930868
H1    H     H_    0.910943 0.313473 0.619039 0.124891
H2    H     H_    0.104953 0.865499 0.725310 0.125076
H3    H     H_    0.279067 0.759038 0.621925 0.147371
H4    H     H_    0.663167 0.894833 0.383367 0.130197
H5    H     H_    0.359939 0.356176 0.129038 0.135437
H6    H     H_    0.674998 0.673473 0.253054 0.203318
H7    H     H_    0.800397 0.821438 0.129604 0.147670
H8    H     H_    0.672951 0.673630 0.746629 0.195835
H9    H     H_    0.360096 0.356123 0.871216 0.132671
H10   H     H_    0.076524 0.498867 0.740642 0.136051
H11   H     H_    0.931021 0.685450 0.619306 0.109320
H12   H     H_    0.089408 0.685526 0.381271 0.132988
H13   H     H_    0.923578 0.500439 0.259331 0.141062
H14   H     H_    0.070253 0.313514 0.380559 0.126571
H15   H     H_    0.662851 0.121275 0.383449 0.144166
H16   H     H_    0.278866 0.219328 0.622865 0.133049
H17   H     H_    0.104770 0.095293 0.726162 0.129309
N1    N     N_R   0.501210 0.501210 0.147910 -0.192745
N2    N     N_R   0.501250 0.501290 0.852040 -0.190851
O1    O     O_R   0.499990 0.319640 0.618810 -0.576858
O2    O     O_R   0.500000 0.319660 0.381240 -0.574075
O3    O     O_R   0.316850 0.499960 0.618770 -0.595290
O4    O     O_R   0.316860 0.499980 0.381190 -0.574837
O5    O     O_R   0.500000 0.680340 0.618760 -0.596962
O6    O     O_R   0.500010 0.680360 0.381190 -0.586951
O7    O     O_R   0.683140 0.500020 0.618810 -0.594268
O8    O     O_R   0.683150 0.500040 0.381230 -0.602868
C31   C     C_3   0.819006 0.855934 0.850772 -0.427108
C32   C     C_3   0.767786 0.985190 0.868502 -0.793505
H18   H     H_    0.669633 0.986139 0.828537 0.263749
H19   H     H_    0.769116 0.013037 0.979666 0.245800
H20   H     H_    0.827348 0.054144 0.808789 0.227705
H21   H     H_    0.917503 0.856088 0.889818 0.195423
H22   H     H_    0.821315 0.835252 0.737761 0.182186

loop_
_geom_bond_atom_site_label_1
_geom_bond_atom_site_label_2
_ccdc_geom_bond_type
C32   H20   S    
C4    C26   S    
C16   C21   A    
C22   H5    S    
Cu1   O5    S    
C4    C12   S    
C2    C28   S    
C9    C10   A    
Cu2   O4    S    
C19   C20   A    
C1    C11   S    
C2    C30   S    
Cu1   O1    S    
C22   N1    A    
C4    C30   S    
C10   C11   A    
C24   N2    A    
C15   C23   S    
C17   C18   A    
C9    C15   A    
C31   H22   S    
C23   O5    A    
C2    H13   S    
C12   O3    A    
C13   C14   A    
C27   H1    S    
C25   C28   S    
C24   H9    S    
C11   C13   A    
C3    H14   S    
C30   H12   S    
C26   C27   S    
C29   C30   S    
Cu2   O6    S    
C31   C32   S    
C5    C6    A    
Cu1   O7    S    
C18   C31   S    
C28   C29   S    
C7    H2    S    
Cu2   N1    S    
C31   H21   S    
C2    C3    S    
C6    C7    A    
C3    C27   S    
Cu1   O3    S    
C14   H4    S    
C32   H18   S    
C5    H16   S    
C22   C24   A    
C12   O4    A    
C16   C17   A    
C25   O7    A    
C5    C10   A    
C3    C4    S    
Cu2   O2    S    
C7    C8    A    
C20   C21   A    
C26   H10   S    
C26   C29   S    
C32   H19   S    
C18   C19   A    
C19   H8    S    
C16   H6    S    
C27   C28   S    
C23   O6    A    
C17   H7    S    
C20   N2    A    
C21   N1    A    
C1    O2    A    
C25   O8    A    
Cu2   O8    S    
C14   C15   A    
C1    O1    A    
C13   H15   S    
C29   H11   S    
C6    H17   S    
Cu1   Cu2   S    
Cu1   N2    S    
C8    C9    A    
C8    H3    S    
