data_mof_unit_32107.cif
_audit_creation_date              2012-12-11T16:23:57-0500
_audit_creation_method            fapswitch 2.2
_symmetry_space_group_name_H-M    P1
_symmetry_Int_Tables_number       1
_space_group_crystal_system       triclinic
_cell_length_a                    14.736033
_cell_length_b                    14.748328
_cell_length_c                    33.302136
_cell_angle_alpha                 95.748819
_cell_angle_beta                  96.146766
_cell_angle_gamma                 61.159101
_cell_volume                      6293.64274609

loop_
_atom_site_label
_atom_site_type_symbol
_atom_type_description
_atom_site_fract_x
_atom_site_fract_y
_atom_site_fract_z
_atom_type_partial_charge
C1    C     C_R   0.391045 0.699400 0.445980 0.542617
C2    C     C_1   0.308240 0.334081 0.230233 0.078896
C3    C     C_2   0.185812 0.504892 0.577688 0.595004
C4    C     C_2   0.491762 0.205186 0.924412 0.602995
C5    C     C_2   0.813275 0.194798 0.895589 0.623559
C6    C     C_2   0.756572 0.212670 0.807375 0.631941
C7    C     C_2   0.831573 0.500290 0.608628 0.627146
C8    C     C_2   0.999024 0.360822 0.799705 0.590154
C9    C     C_2   0.883691 0.458432 0.694654 0.620084
C10   C     C_2   0.473163 0.813908 0.904537 0.598225
C11   C     C_2   0.125446 0.013202 0.786574 0.604693
C12   C     C_2   0.168208 0.847800 0.676570 0.602732
C13   C     C_1   0.310014 0.341488 0.266526 0.088743
C14   C     C_2   0.146202 0.477867 0.098877 0.591165
C15   C     C_2   0.159000 0.526235 0.313689 0.581705
C16   C     C_R   0.405455 0.386579 0.434043 0.552646
C17   C     C_R   0.293752 0.292036 0.102226 -0.026028
C18   C     C_R   0.744025 0.381395 0.407480 0.008265
C19   C     C_R   0.714704 0.462971 0.382079 -0.143308
C20   C     C_R   0.727860 0.443591 0.341046 -0.116103
C21   C     C_R   0.772338 0.341979 0.324244 0.009545
C22   C     C_R   0.809141 0.259042 0.349565 -0.110329
C23   C     C_R   0.795842 0.277360 0.391379 0.038699
C24   C     C_R   0.318245 0.347963 0.309929 0.015351
C25   C     C_R   0.810663 0.305751 0.200531 0.371114
C26   C     C_R   0.781322 0.324701 0.280354 0.354989
C27   C     C_R   0.837213 0.387422 0.143005 0.053739
C28   C     C_R   0.700322 0.410464 0.447397 0.586835
C29   C     C_R   0.869834 0.376508 0.104042 -0.112483
C30   C     C_R   0.900826 0.198974 0.096818 -0.125338
C31   C     C_R   0.866235 0.209364 0.135138 -0.133040
C32   C     C_R   0.836390 0.302072 0.158858 0.012616
C33   C     C_R   0.906114 0.281393 0.081537 -0.001459
C34   C     C_R   0.371766 0.752474 0.408428 0.018911
C35   C     C_R   0.402708 0.265915 0.329265 -0.121400
C36   C     C_R   0.278643 0.779670 0.384666 -0.108618
C37   C     C_R   0.269973 0.804702 0.344763 -0.098560
C38   C     C_R   0.354095 0.803382 0.327987 0.030796
C39   C     C_R   0.443626 0.785632 0.352842 -0.119299
C40   C     C_R   0.393335 0.701442 0.561172 0.544289
C41   C     C_R   0.452392 0.760383 0.392800 -0.132618
C42   C     C_R   0.349089 0.818979 0.203030 0.352139
C43   C     C_R   0.351201 0.812025 0.284186 0.348133
C44   C     C_R   0.262963 0.824661 0.134083 -0.107494
C45   C     C_R   0.241525 0.858105 0.094904 -0.115721
C46   C     C_R   0.427046 0.275130 0.370492 -0.124976
C47   C     C_R   0.383366 0.899115 0.104377 -0.111093
C48   C     C_R   0.404842 0.865589 0.143610 -0.090014
C49   C     C_R   0.341485 0.832941 0.159432 0.030732
C50   C     C_R   0.298280 0.900347 0.080440 0.018311
C51   C     C_R   0.376670 0.369647 0.587249 0.001713
C52   C     C_R   0.407422 0.388572 0.549229 0.564805
C53   C     C_R   0.278149 0.434742 0.603003 0.040099
C54   C     C_R   0.266590 0.432073 0.644219 -0.097072
C55   C     C_R   0.349706 0.363860 0.669367 0.007998
C56   C     C_R   0.442705 0.292891 0.652388 -0.122669
C57   C     C_R   0.384735 0.229167 0.167893 0.051216
C58   C     C_R   0.455831 0.295466 0.611999 -0.145626
C59   C     C_R   0.328494 0.369559 0.794200 0.352960
C60   C     C_R   0.341427 0.366897 0.713325 0.349396
C61   C     C_R   0.222836 0.413125 0.853843 -0.098674
C62   C     C_R   0.210082 0.387619 0.891185 -0.139080
C63   C     C_R   0.395772 0.270282 0.899559 0.044225
C64   C     C_R   0.702943 0.412406 0.562342 0.577947
C65   C     C_R   0.406508 0.293648 0.861104 -0.099090
C66   C     C_R   0.319619 0.360964 0.837237 -0.000888
C67   C     C_R   0.294479 0.310963 0.913207 -0.003516
C68   C     C_R   0.375128 0.216056 0.125760 -0.143148
C69   C     C_R   0.758548 0.375632 0.602109 -0.011636
C70   C     C_R   0.808695 0.425584 0.626359 0.021414
C71   C     C_R   0.835468 0.404258 0.667902 0.044078
C72   C     C_R   0.815061 0.331094 0.683876 -0.006156
C73   C     C_R   0.774181 0.276450 0.658899 -0.131260
C74   C     C_R   0.746517 0.298095 0.618561 -0.141191
C75   C     C_R   0.831916 0.245721 0.827554 0.042781
C76   C     C_R   0.367195 0.367017 0.393046 -0.005325
C77   C     C_R   0.854902 0.241926 0.870229 0.018510
C78   C     C_R   0.961133 0.324942 0.864796 -0.151057
C79   C     C_R   0.225604 0.388305 0.121482 0.038782
C80   C     C_R   0.944709 0.323192 0.823008 0.047913
C81   C     C_R   0.879189 0.284718 0.804212 -0.005203
C82   C     C_1   0.854099 0.295843 0.761421 0.110967
C83   C     C_1   0.836019 0.310144 0.725947 0.079340
C84   C     C_R   0.919686 0.282767 0.888583 -0.036001
C85   C     C_R   0.374851 0.756861 0.601414 -0.010536
C86   C     C_R   0.280076 0.789544 0.618520 -0.115622
C87   C     C_R   0.268026 0.821604 0.659617 0.064659
C88   C     C_R   0.277848 0.446458 0.374233 -0.123464
C89   C     C_R   0.352487 0.823632 0.683564 0.012872
C90   C     C_R   0.233607 0.400503 0.163824 -0.119329
C91   C     C_R   0.444729 0.797255 0.665925 -0.128196
C92   C     C_R   0.456094 0.763824 0.625206 -0.121386
C93   C     C_R   0.400186 0.850346 0.833232 -0.130263
C94   C     C_R   0.383431 0.866094 0.874790 0.039219
C95   C     C_R   0.198611 0.972508 0.857140 -0.146896
C96   C     C_R   0.215605 0.958882 0.815989 0.064138
C97   C     C_R   0.317649 0.896328 0.804065 -0.004592
C98   C     C_1   0.337130 0.871215 0.761941 0.084107
C99   C     C_1   0.346860 0.850103 0.726286 0.077698
C100  C     C_R   0.252180 0.438324 0.332612 0.055643
C101  C     C_R   0.310227 0.321223 0.186971 -0.016382
C102  C     C_R   0.280909 0.928627 0.886752 -0.014090
C103  C     C_R   0.963489 0.264033 0.045534 0.557694
C104  C     C_R   0.273325 0.259769 0.059991 0.573108
C105  C     C_R   0.259450 0.959275 0.043716 0.555208
C106  C     C_R   0.962231 0.268019 0.930929 0.583444
C107  C     C_R   0.272189 0.265806 0.946255 0.564306
C108  C     C_R   0.255658 0.965752 0.928919 0.590625
C109  C     C_2   0.837942 0.186934 0.417028 0.584028
C110  C     C_2   0.815583 0.484878 0.167338 0.604006
C111  C     C_2   0.471053 0.143466 0.190706 0.586013
Cr1   Cr    Cr6+3 0.576280 0.580550 0.506370 1.053668
Cr2   Cr    Cr6+3 0.346780 0.572400 0.496520 1.079639
Cr3   Cr    Cr6+3 0.576960 0.347070 0.497150 1.072048
Cr4   Cr    Cr6+3 0.087320 0.083240 0.984860 1.066414
Cr5   Cr    Cr6+3 0.087720 0.316210 0.996740 1.088232
Cr6   Cr    Cr6+3 0.317350 0.090340 0.995890 1.090557
H1    H     H_    0.874574 0.440261 0.092580 0.177694
H2    H     H_    0.120566 0.023448 0.866371 0.164572
H3    H     H_    0.179423 0.472220 0.179024 0.181220
H4    H     H_    0.429430 0.143309 0.111332 0.186024
H5    H     H_    0.884338 0.034564 0.419998 0.349688
H6    H     H_    0.701279 0.508862 0.322302 0.153465
H7    H     H_    0.846873 0.180265 0.336565 0.179870
H8    H     H_    0.835631 0.552908 0.220747 0.353135
H9    H     H_    0.928242 0.124716 0.080061 0.146018
H10   H     H_    0.865737 0.143658 0.146844 0.146409
H11   H     H_    0.524900 0.740484 0.410514 0.133028
H12   H     H_    0.214763 0.775229 0.395996 0.160203
H13   H     H_    0.577092 0.991657 0.190885 0.354849
H14   H     H_    0.199099 0.820170 0.326554 0.164677
H15   H     H_    0.214142 0.797777 0.145177 0.151107
H16   H     H_    0.429047 0.930535 0.093898 0.155492
H17   H     H_    0.466813 0.871515 0.162271 0.173918
H18   H     H_    0.049360 0.637312 0.575030 0.351944
H19   H     H_    0.531516 0.243200 0.601023 0.143731
H20   H     H_    0.132472 0.423760 0.901594 0.156223
H21   H     H_    0.192806 0.483957 0.656799 0.198998
H22   H     H_    0.453412 0.196451 0.311966 0.169355
H23   H     H_    0.176421 0.856749 0.076901 0.148214
H24   H     H_    0.640897 0.091976 0.925554 0.358675
H25   H     H_    0.749424 0.203520 0.947449 0.347288
H26   H     H_    0.720982 0.136370 0.759954 0.351547
H27   H     H_    0.760285 0.218988 0.670997 0.151134
H28   H     H_    0.709822 0.257487 0.600830 0.148511
H29   H     H_    0.894294 0.528854 0.563698 0.352697
H30   H     H_    0.083217 0.337474 0.752132 0.372969
H31   H     H_    0.877384 0.546392 0.745764 0.375314
H32   H     H_    0.525114 0.756709 0.959847 0.349278
H33   H     H_    0.477760 0.800597 0.823371 0.166347
H34   H     H_    0.509262 0.785307 0.340860 0.143227
H35   H     H_    0.509441 0.799218 0.684057 0.147976
H36   H     H_    0.530164 0.738914 0.612900 0.164205
H37   H     H_    0.217080 0.784115 0.600391 0.180386
H38   H     H_    0.071328 0.082290 0.733491 0.363256
H39   H     H_    0.093416 0.850267 0.724359 0.369760
H40   H     H_    0.230378 0.517007 0.391697 0.171097
H41   H     H_    0.004211 0.603616 0.097586 0.350053
H42   H     H_    0.050899 0.576812 0.266872 0.354870
H43   H     H_    0.674793 0.543177 0.393392 0.139501
H44   H     H_    0.507481 0.237406 0.670665 0.148787
H45   H     H_    0.155648 0.469661 0.837004 0.201750
H46   H     H_    0.482892 0.257983 0.849526 0.213852
H47   H     H_    0.013680 0.352803 0.878693 0.151763
H48   H     H_    0.496124 0.212591 0.384153 0.156079
N1    N     N_R   0.730135 0.391382 0.216308 -0.174835
N2    N     N_R   0.427292 0.820035 0.267750 -0.217509
N3    N     N_R   0.425866 0.824156 0.227939 -0.209234
N4    N     N_R   0.243181 0.427620 0.769965 -0.200756
N5    N     N_R   0.249582 0.426738 0.730327 -0.193332
N6    N     N_R   0.426777 0.309952 0.737652 -0.218137
N7    N     N_R   0.420411 0.310960 0.777206 -0.191008
N8    N     N_R   0.715990 0.400773 0.255533 -0.204122
N9    N     N_R   0.858933 0.236741 0.264218 -0.205491
N10   N     N_R   0.873422 0.227524 0.224930 -0.201018
N11   N     N_R   0.273605 0.810175 0.219502 -0.216145
N12   N     N_R   0.274836 0.806405 0.259246 -0.211812
O1    O     O_R   0.679450 0.499830 0.463150 -0.512123
O2    O     O_R   0.340240 0.172500 0.045430 -0.511265
O3    O     O_R   0.309670 0.000990 0.032050 -0.497929
O4    O     O_R   0.480650 0.664000 0.464630 -0.507525
O5    O     O_R   0.168330 0.982130 0.939200 -0.502600
O6    O     O_R   0.000140 0.178170 0.944610 -0.484271
O7    O     O_R   0.983010 0.336750 0.948660 -0.504157
O8    O     O_R   0.181800 0.312190 0.959860 -0.505568
O9    O     O_R   0.338500 0.175680 0.956950 -0.469969
O10   O     O_R   0.308050 0.003930 0.950020 -0.469576
O11   O     O_3   0.164130 0.163270 0.992500 -0.281335
O12   O     O_R   0.356040 0.477400 0.534170 -0.461032
O13   O     O_R   0.323930 0.675950 0.455370 -0.510600
O14   O     O_R   0.354700 0.475360 0.451930 -0.493312
O15   O     O_R   0.494470 0.320860 0.448390 -0.507947
O16   O     O_R   0.662580 0.357570 0.460050 -0.466632
O17   O     O_R   0.680900 0.502040 0.551870 -0.480107
O18   O     O_R   0.481990 0.666040 0.546870 -0.501411
O19   O     O_R   0.325370 0.678160 0.544080 -0.504891
O20   O     O_2   0.860981 0.195740 0.453057 -0.488835
O21   O     O_R   0.854459 0.090286 0.399628 -0.696860
O22   O     O_2   0.767075 0.568129 0.151573 -0.495663
O23   O     O_R   0.495910 0.323070 0.537100 -0.524883
O24   O     O_R   0.854618 0.481484 0.207651 -0.655174
O25   O     O_2   0.501181 0.160117 0.224900 -0.516521
O26   O     O_R   0.519637 0.043159 0.172560 -0.716161
O27   O     O_2   0.174706 0.480994 0.541970 -0.491492
O28   O     O_R   0.109109 0.596731 0.595150 -0.673554
O29   O     O_2   0.495415 0.219801 0.961219 -0.483321
O30   O     O_R   0.579893 0.130081 0.905528 -0.650461
O31   O     O_2   0.813472 0.113309 0.884101 -0.451115
O32   O     O_R   0.775077 0.243149 0.932914 -0.674616
O33   O     O_2   0.674763 0.238848 0.822433 -0.473370
O34   O     O_R   0.663920 0.359620 0.542290 -0.498568
O35   O     O_R   0.778603 0.152863 0.770861 -0.661598
O36   O     O_2   0.805197 0.586457 0.625086 -0.482808
O37   O     O_R   0.882999 0.471744 0.572865 -0.648491
O38   O     O_2   0.003428 0.439806 0.811562 -0.530204
O39   O     O_R   0.046880 0.305036 0.764739 -0.667769
O40   O     O_2   0.961436 0.458510 0.685006 -0.464964
O41   O     O_R   0.839241 0.510254 0.730670 -0.674211
O42   O     O_2   0.561251 0.786966 0.895467 -0.485939
O43   O     O_R   0.457865 0.792887 0.942550 -0.678679
O44   O     O_2   0.038578 0.031849 0.794269 -0.489822
O45   O     O_3   0.500010 0.500010 0.500010 -0.270153
O46   O     O_R   0.138800 0.045570 0.750622 -0.656786
O47   O     O_2   0.087686 0.882953 0.654876 -0.490011
O48   O     O_R   0.165949 0.829651 0.716762 -0.671274
O49   O     O_2   0.164538 0.495353 0.066389 -0.490588
O50   O     O_R   0.051635 0.544923 0.115594 -0.689083
O51   O     O_2   0.120406 0.612137 0.331221 -0.518165
O52   O     O_R   0.113793 0.511110 0.276268 -0.685041
O53   O     O_R   0.170070 0.978950 0.027680 -0.512089
O54   O     O_R   0.001760 0.175230 0.026640 -0.497145
O55   O     O_R   0.984760 0.333570 0.037150 -0.502240
O56   O     O_R   0.183410 0.309240 0.041890 -0.458856

loop_
_geom_bond_atom_site_label_1
_geom_bond_atom_site_label_2
_ccdc_geom_bond_type
H39   O48   S    
C44   C49   A    
N6    N7    A    
C30   H9    S    
C78   H47   S    
C93   C94   A    
C46   H48   S    
C29   C33   A    
C27   C29   A    
N4    N5    A    
C74   H28   S    
H38   O46   S    
C95   C96   A    
C31   H10   S    
C15   C100  S    
C21   C26   S    
C8    O38   D    
C11   O44   D    
C7    C70   S    
C63   C65   A    
C97   C98   S    
C109  O21   S    
C10   O43   S    
C6    C75   S    
C39   C41   A    
C57   C111  S    
C53   C54   A    
Cr5   O55   S    
Cr2   O13   S    
Cr5   O11   S    
C4    C63   S    
H8    O24   S    
C90   C101  A    
C62   C67   A    
C89   C99   S    
C110  O24   S    
C19   H43   S    
H42   O52   S    
C48   H17   S    
C36   C37   A    
Cr3   O16   S    
C17   C104  S    
C14   O49   D    
Cr6   O9    S    
C59   C66   S    
C40   O19   A    
C91   H35   S    
C80   C81   A    
C78   C80   A    
C104  O2    A    
C6    O35   S    
C10   C94   S    
C39   H34   S    
C17   C79   A    
C18   C19   A    
C73   C74   A    
C2    C13   T    
N9    N10   A    
C12   O47   D    
C20   H6    S    
C108  O10   A    
C35   H22   S    
C109  O20   D    
C61   C66   A    
C43   N12   A    
C19   C20   A    
C27   C110  S    
C106  O6    A    
C79   C90   A    
C64   O17   A    
Cr5   O56   S    
C1    C34   S    
C50   C105  S    
C84   C106  S    
C64   O34   A    
C102  C108  S    
C92   H36   S    
C52   O23   A    
C89   C91   A    
C16   O15   A    
C76   C88   A    
Cr4   O54   S    
C30   C33   A    
Cr6   O3    S    
H18   O28   S    
C55   C60   S    
C1    O13   A    
C25   C32   S    
C88   H40   S    
Cr1   O17   S    
Cr3   O23   S    
C21   C22   A    
C47   H16   S    
C3    O27   D    
C41   H11   S    
C93   H33   S    
C61   C62   A    
C34   C41   A    
Cr2   O14   S    
C111  O25   D    
C46   C76   A    
C57   C68   A    
C85   C92   A    
C42   N3    A    
C10   O42   D    
C81   C82   S    
C47   C50   A    
C9    O41   S    
C103  O54   A    
C38   C39   A    
C23   C109  S    
C63   C67   A    
C24   C35   A    
Cr3   O15   S    
C51   C52   S    
C3    O28   S    
C18   C28   S    
H30   O39   S    
Cr6   O10   S    
C11   O46   S    
N2    N3    A    
C1    O4    A    
C86   C87   A    
C75   C81   A    
C77   C84   A    
C95   H2    S    
C85   C86   A    
C56   H44   S    
C82   C83   T    
C45   H23   S    
H5    O21   S    
C18   C23   A    
C13   C24   S    
C51   C53   A    
H32   O43   S    
C90   H3    S    
C40   C85   S    
H24   O30   S    
Cr1   O18   S    
C37   C38   A    
C16   O14   A    
C37   H14   S    
C25   N10   A    
H26   O35   S    
C47   C48   A    
C107  O9    A    
N1    N8    A    
C30   C31   A    
C106  O7    A    
C96   C97   A    
C65   H46   S    
C55   C56   A    
C28   O16   A    
C64   C69   S    
C69   C74   A    
C51   C58   A    
H29   O37   S    
C14   C79   S    
Cr3   O45   S    
C4    O29   D    
C75   C77   A    
C33   C103  S    
C88   C100  A    
C104  O56   A    
C65   C66   A    
C87   C89   A    
Cr2   O19   S    
C105  O3    A    
C5    C77   S    
C59   N7    A    
C93   C97   A    
C72   C83   S    
C91   C92   A    
Cr4   O5    S    
Cr2   O12   S    
C44   C45   A    
C4    O30   S    
Cr1   O1    S    
Cr5   O8    S    
C9    O40   D    
C103  O55   A    
C61   H45   S    
C26   N9    A    
C54   C55   A    
C48   C49   A    
C17   C68   A    
C12   C87   S    
C14   O50   S    
C110  O22   D    
C16   C76   S    
C60   N6    A    
Cr1   O45   S    
C31   C32   A    
C9    C71   S    
C72   C73   A    
C8    O39   S    
Cr6   O11   S    
C68   H4    S    
Cr4   O6    S    
C24   C100  A    
C95   C102  A    
C22   H7    S    
Cr1   O4    S    
C6    O33   D    
C43   N2    A    
C25   N1    A    
C44   H15   S    
C57   C101  A    
C29   H1    S    
C107  O8    A    
C26   N8    A    
C108  O5    A    
C15   O51   D    
C60   N5    A    
C105  O53   A    
Cr3   O34   S    
C7    O36   D    
C86   H37   S    
C38   C43   S    
C42   N11   A    
C36   H12   S    
C5    O31   D    
C11   C96   S    
Cr4   O11   S    
C3    C53   S    
C67   C107  S    
C12   O48   S    
C54   H21   S    
H31   O41   S    
C45   C50   A    
Cr5   O7    S    
C56   C58   A    
C34   C36   A    
C52   O12   A    
C62   H20   S    
C69   C70   A    
Cr2   O45   S    
C7    O37   S    
C70   C71   A    
C27   C32   A    
C42   C49   S    
N11   N12   A    
Cr4   O53   S    
C78   C84   A    
C71   C72   A    
C20   C21   A    
C94   C102  A    
C98   C99   T    
C5    O32   S    
C8    C80   S    
C111  O26   S    
C22   C23   A    
C2    C101  S    
H25   O32   S    
C59   N4    A    
C35   C46   A    
C28   O1    A    
H41   O50   S    
C73   H27   S    
C15   O52   S    
H13   O26   S    
Cr6   O2    S    
C40   O18   A    
C58   H19   S    
