data_mof_unit_64728.cif
_audit_creation_date              2012-12-10T17:56:56-0500
_audit_creation_method            fapswitch 2.2
_symmetry_space_group_name_H-M    P1
_symmetry_Int_Tables_number       1
_space_group_crystal_system       triclinic
_cell_length_a                    18.630862
_cell_length_b                    18.684552
_cell_length_c                    18.713649
_cell_angle_alpha                 109.389199
_cell_angle_beta                  109.392887
_cell_angle_gamma                 109.287465
_cell_volume                      5035.96397138

loop_
_atom_site_label
_atom_site_type_symbol
_atom_type_description
_atom_site_fract_x
_atom_site_fract_y
_atom_site_fract_z
_atom_type_partial_charge
C1    C     C_R   0.379783 0.379883 0.500136 0.828980
C2    C     C_R   0.313818 0.313995 0.500536 0.001922
C3    C     C_R   0.325558 0.580750 0.319030 0.399576
C4    C     C_R   0.619082 0.498209 0.620571 0.908439
C5    C     C_R   0.259723 0.583236 0.257776 0.337138
C6    C     C_R   0.184400 0.503587 0.188637 -0.278409
C7    C     C_R   0.172116 0.424022 0.183968 -0.204210
C8    C     C_R   0.233911 0.421244 0.247090 0.379894
C9    C     C_R   0.311692 0.499991 0.313732 -0.283177
C10   C     C_R   0.739049 0.770659 0.571883 -0.181408
C11   C     C_R   0.803954 0.833730 0.572175 -0.275709
C12   C     C_3   0.809407 0.501600 0.810067 -0.001057
C13   C     C_R   0.814196 0.813261 0.498831 -0.105472
C14   C     C_R   0.760410 0.730369 0.424392 0.519907
C15   C     C_R   0.697778 0.665973 0.426006 -0.265293
C16   C     C_R   0.620440 0.620333 0.499867 0.940019
C17   C     C_R   0.686578 0.686597 0.499193 -0.086612
C18   C     C_R   0.996983 0.379858 0.876617 0.982457
C19   C     C_R   0.876753 0.501741 0.878178 0.921352
C20   C     C_R   0.996631 0.619952 0.116776 0.910704
C21   C     C_R   0.118148 0.501318 0.119545 0.924273
C22   C     C_R   0.000946 0.879890 0.380220 0.916834
C23   C     C_3   0.846607 0.586768 0.804911 -0.448733
C24   C     C_R   0.120190 0.120184 0.500007 0.846218
C25   C     C_R   0.999560 0.120259 0.619241 0.950059
C26   C     C_R   0.880082 0.879769 0.499683 0.927750
C27   C     C_R   0.078321 0.321833 0.821364 0.313069
C28   C     C_R   0.378859 0.499763 0.379363 0.951851
C29   C     C_R   0.079850 0.258855 0.756437 0.424447
C30   C     C_R   0.000155 0.187537 0.684619 -0.279746
C31   C     C_R   0.920051 0.180209 0.673904 -0.257324
C32   C     C_R   0.917048 0.243350 0.735087 0.413151
C33   C     C_R   0.996895 0.314130 0.809627 -0.278620
C34   C     C_3   0.735492 0.499622 0.832206 -0.494591
C35   C     C_R   0.978779 0.747881 0.167383 0.529927
C36   C     C_R   0.978724 0.811016 0.232715 -0.284673
C37   C     C_R   0.001517 0.814384 0.313462 -0.089146
C38   C     C_R   0.022330 0.753780 0.329039 -0.143737
C39   C     C_R   0.018801 0.688551 0.263078 -0.269373
C40   C     C_3   0.700545 0.419465 0.647662 -0.403519
C41   C     C_R   0.996984 0.685897 0.182973 -0.108761
C42   C     C_3   0.767071 0.417204 0.720919 0.376442
C43   C     C_3   0.774301 0.585639 0.733177 0.384553
C44   C     C_3   0.661122 0.492611 0.757356 -0.536888
C45   C     C_R   0.241586 0.321816 0.499768 -0.179671
C46   C     C_3   0.687552 0.498687 0.688098 0.024461
C47   C     C_3   0.704915 0.696982 0.282194 -0.274950
C48   C     C_3   0.184976 0.310954 0.722891 -0.297912
C49   C     C_3   0.015629 0.811792 0.090807 -0.309831
C50   C     C_3   0.886535 0.450958 0.691886 -0.283348
C51   C     C_3   0.845933 0.681922 0.695181 -0.338726
C52   C     C_R   0.176869 0.257053 0.498255 -0.195805
C53   C     C_R   0.186410 0.186535 0.500246 -0.008789
C54   C     C_R   0.259449 0.179563 0.502603 -0.180151
C55   C     C_R   0.322821 0.242938 0.501399 -0.182997
H1    H     H_    0.720907 0.422368 0.598861 0.226709
H2    H     H_    0.636966 0.357523 0.611326 0.141406
H3    H     H_    0.730952 0.787067 0.628851 0.163645
H4    H     H_    0.845482 0.898610 0.628881 0.160454
H5    H     H_    0.657970 0.600495 0.370323 0.170141
H6    H     H_    0.859202 0.124877 0.617332 0.203143
H7    H     H_    0.726979 0.362847 0.727308 0.124691
H8    H     H_    0.960931 0.857121 0.220469 0.166458
H9    H     H_    0.039241 0.755765 0.391197 0.167253
H10   H     H_    0.034018 0.640843 0.274581 0.160155
H11   H     H_    0.903666 0.597914 0.794739 0.195238
H12   H     H_    0.761943 0.559802 0.894166 0.216475
H13   H     H_    0.647320 0.545882 0.784873 0.211618
H14   H     H_    0.600255 0.429478 0.726448 0.191601
H15   H     H_    0.708103 0.443160 0.841895 0.204880
H16   H     H_    0.406299 0.706743 0.378917 0.384653
H17   H     H_    0.211752 0.658746 0.243322 0.336751
H18   H     H_    0.251380 0.349064 0.298900 0.332836
H19   H     H_    0.721965 0.690968 0.229837 0.197975
H20   H     H_    0.692247 0.752945 0.298608 0.168254
H21   H     H_    0.644636 0.635131 0.255774 0.159289
H22   H     H_    0.205468 0.384353 0.898499 0.372210
H23   H     H_    0.762901 0.639932 0.764981 0.084510
H24   H     H_    0.247328 0.314923 0.727849 0.202930
H25   H     H_    0.197072 0.378888 0.755302 0.163927
H26   H     H_    0.136050 0.276419 0.652284 0.141102
H27   H     H_    0.840662 0.288077 0.756393 0.366452
H28   H     H_    0.082282 0.820092 0.122697 0.172897
H29   H     H_    0.015579 0.872948 0.125441 0.163031
H30   H     H_    0.999022 0.799389 0.023629 0.184641
H31   H     H_    0.947231 0.496411 0.755956 0.179587
H32   H     H_    0.862766 0.487243 0.663317 0.198030
H33   H     H_    0.904640 0.414137 0.647768 0.189714
H34   H     H_    0.872069 0.644288 0.868711 0.160406
H35   H     H_    0.906010 0.718486 0.760146 0.160113
H36   H     H_    0.804423 0.713091 0.695356 0.162281
H37   H     H_    0.866489 0.685618 0.646674 0.211536
H38   H     H_    0.234776 0.376935 0.498774 0.144660
H39   H     H_    0.120328 0.262436 0.496904 0.142655
H40   H     H_    0.266448 0.124602 0.503855 0.147232
H41   H     H_    0.379223 0.237417 0.502429 0.142310
H42   H     H_    0.113471 0.363376 0.131097 0.202964
O1    O     O_R   0.408680 0.356690 0.448540 -0.625792
O2    O     O_R   0.052580 0.908350 0.460820 -0.631080
O3    O     O_R   0.039640 0.091520 0.447910 -0.625854
O4    O     O_R   0.408060 0.460070 0.551440 -0.631051
O5    O     O_R   0.143620 0.091540 0.551930 -0.615114
O6    O     O_R   0.947420 0.091470 0.539000 -0.640010
O7    O     O_R   0.051410 0.091490 0.643030 -0.571271
O8    O     O_R   0.856380 0.908290 0.447890 -0.616950
O9    O     O_R   0.960370 0.908300 0.551910 -0.629381
O10   O     O_R   0.592410 0.448290 0.540650 -0.616208
O11   O     O_R   0.591790 0.551670 0.643550 -0.649445
O12   O     O_R   0.049540 0.460010 0.906120 -0.576571
O13   O     O_R   0.591940 0.539930 0.448560 -0.620445
O14   O     O_R   0.591320 0.643310 0.551460 -0.617365
O15   O     O_R   0.408210 0.448330 0.356450 -0.620096
O16   O     O_R   0.407590 0.551710 0.459350 -0.577577
O17   O     O_R   0.946090 0.356640 0.906180 -0.632021
O18   O     O_3   0.403730 0.655649 0.385415 -0.746024
O19   O     O_3   0.270120 0.663453 0.268125 -0.764763
O20   O     O_3   0.215028 0.340861 0.241402 -0.739096
O21   O     O_3   0.775624 0.711077 0.354578 -0.618513
O22   O     O_3   0.154299 0.390401 0.897175 -0.744281
O23   O     O_R   0.853500 0.448290 0.905220 -0.643897
O24   O     O_3   0.158587 0.265188 0.764339 -0.594060
O25   O     O_3   0.835179 0.232792 0.718782 -0.721938
O26   O     O_3   0.952095 0.740085 0.085390 -0.627394
O27   O     O_3   0.824012 0.390641 0.699304 -0.620468
O28   O     O_3   0.798265 0.593305 0.670375 -0.620462
O29   O     O_R   0.956960 0.551660 0.905160 -0.640227
O30   O     O_R   0.945110 0.539900 0.088450 -0.625900
O31   O     O_R   0.048570 0.643270 0.088390 -0.619613
O32   O     O_R   0.037700 0.448250 0.089410 -0.630592
O33   O     O_R   0.141150 0.551620 0.089350 -0.586041
O34   O     O_R   0.948590 0.908340 0.356800 -0.619235
Zn1   Zn    Zn3+2 0.500420 0.430970 0.431290 0.987230
Zn2   Zn    Zn3+2 0.499580 0.569030 0.568710 0.978565
Zn3   Zn    Zn3+2 0.928250 0.430930 0.997320 0.976747
Zn4   Zn    Zn3+2 0.066410 0.568980 0.997240 0.995292
Zn5   Zn    Zn3+2 0.930570 0.999900 0.430450 0.965925
Zn6   Zn    Zn3+2 0.069430 0.999920 0.569370 0.993379

loop_
_geom_bond_atom_site_label_1
_geom_bond_atom_site_label_2
_ccdc_geom_bond_type
C8    C9    A    
C22   O34   A    
O12   Zn4   S    
C11   C13   A    
C15   H5    S    
C31   H6    S    
O33   Zn4   S    
C18   O12   A    
C45   H38   S    
C18   O17   A    
C20   C41   S    
C42   O27   S    
C7    C8    A    
C39   C41   A    
C4    C46   S    
C53   C54   A    
C27   C33   A    
C43   H23   S    
C40   C46   S    
C4    O11   A    
C12   C23   S    
C29   C30   A    
C48   H24   S    
C36   C37   A    
C10   H3    S    
C47   H21   S    
C20   O31   A    
C2    C55   A    
C51   H35   S    
C30   C31   A    
C51   H37   S    
C27   C29   A    
C10   C17   A    
C23   H11   S    
C49   O26   S    
C23   C43   S    
C48   H26   S    
C12   C19   S    
C1    C2    S    
C12   C42   S    
C51   H36   S    
C47   O21   S    
C35   C36   A    
C16   C17   S    
C14   O21   S    
C29   O24   S    
O30   Zn3   S    
O13   Zn1   S    
C22   O2    A    
C36   H8    S    
C34   H15   S    
C24   O5    A    
C50   H33   S    
C3    C5    A    
C40   C42   S    
O16   Zn2   S    
C13   C14   A    
C39   H10   S    
C43   O28   S    
C11   H4    S    
C26   O8    A    
C43   C46   S    
C44   C46   S    
C8    O20   S    
C38   H9    S    
C2    C45   A    
C38   C39   A    
C4    O10   A    
H18   O20   S    
C16   O13   A    
C51   O28   S    
C49   H30   S    
C50   O27   S    
C20   O30   A    
O34   Zn5   S    
C10   C11   A    
O31   Zn4   S    
C48   O24   S    
C25   O6    A    
O9    Zn6   S    
C45   C52   A    
C40   H1    S    
C24   C53   S    
C22   C37   S    
C28   O15   A    
O5    Zn6   S    
C34   H12   S    
O6    Zn5   S    
C37   C38   A    
C3    C9    A    
C32   O25   S    
C26   O9    A    
C31   C32   A    
C23   H34   S    
O17   Zn3   S    
H16   O18   S    
C44   H14   S    
O15   Zn1   S    
C52   H39   S    
C21   O32   A    
C54   H40   S    
C50   H32   S    
O8    Zn5   S    
C19   O23   A    
C27   O22   S    
C5    O19   S    
C13   C26   S    
C44   H13   S    
C12   C34   S    
C1    O4    A    
C52   C53   A    
C49   H29   S    
C25   C30   S    
C15   C17   A    
C34   C44   S    
C42   H7    S    
C54   C55   A    
C40   H2    S    
C7    H42   S    
O7    Zn6   S    
C24   O3    A    
O14   Zn2   S    
C47   H19   S    
C55   H41   S    
H22   O22   S    
C1    O1    A    
O29   Zn4   S    
C25   O7    A    
C6    C7    A    
O4    Zn2   S    
H17   O19   S    
C19   O29   A    
C32   C33   A    
C48   H25   S    
C35   O26   S    
C47   H20   S    
O11   Zn2   S    
C3    O18   S    
C6    C21   S    
C49   H28   S    
C5    C6    A    
O10   Zn1   S    
O23   Zn3   S    
C35   C41   A    
C18   C33   S    
C21   O33   A    
C28   O16   A    
C50   H31   S    
O32   Zn3   S    
C16   O14   A    
O1    Zn1   S    
C14   C15   A    
O2    Zn6   S    
H27   O25   S    
O3    Zn5   S    
C9    C28   S    
