data_mof_unit_56713.cif
_audit_creation_date              2012-12-10T17:21:13-0500
_audit_creation_method            fapswitch 2.2
_symmetry_space_group_name_H-M    P1
_symmetry_Int_Tables_number       1
_space_group_crystal_system       triclinic
_cell_length_a                    10.226221
_cell_length_b                    10.624371
_cell_length_c                    10.746978
_cell_angle_alpha                 91.488978
_cell_angle_beta                  95.642841
_cell_angle_gamma                 81.26798
_cell_volume                      1148.42981697

loop_
_atom_site_label
_atom_site_type_symbol
_atom_type_description
_atom_site_fract_x
_atom_site_fract_y
_atom_site_fract_z
_atom_type_partial_charge
C1    C     C_R   0.444091 0.503823 0.267212 0.931092
C2    C     C_2   0.929074 0.505254 0.518100 0.193796
C3    C     C_R   0.500205 0.258008 0.499873 0.817024
C4    C     C_R   0.555826 0.487098 0.732560 0.940415
C5    C     C_R   0.500334 0.741960 0.500057 0.834974
C6    C     C_3   0.642328 0.049937 0.480253 -0.391892
C7    C     C_3   0.641406 0.907249 0.477473 -0.402471
C8    C     C_3   0.459117 0.081791 0.623423 -0.440763
C9    C     C_3   0.399220 0.083505 0.387941 0.004419
C10   C     C_3   0.500339 0.121246 0.496499 0.124356
C11   C     C_3   0.889210 0.590071 0.628656 -0.305887
C12   C     C_3   0.500758 0.878402 0.498608 0.151889
C13   C     C_3   0.938774 0.524633 0.753291 -0.900690
C14   C     C_3   0.425973 0.126828 0.256882 -0.398920
C15   C     C_3   0.306956 0.121986 0.159910 -0.899388
C16   C     C_3   0.461289 0.937280 0.625250 -0.418372
C17   C     C_3   0.399939 0.937805 0.391119 -0.401091
C18   C     C_2   0.412535 0.490753 0.134202 -0.383814
C19   C     C_2   0.510880 0.444891 0.065241 -0.158599
C20   C     C_2   0.587041 0.464707 0.864639 -0.389824
C21   C     C_2   0.488210 0.448388 0.931919 -0.154540
C22   C     C_2   0.072286 0.487185 0.492541 -0.151331
H1    H     H_    0.713476 0.073968 0.559423 0.181982
H2    H     H_    0.877726 0.391970 0.376043 0.128459
H3    H     H_    0.679147 0.078529 0.392726 0.171454
H4    H     H_    0.128679 0.620429 0.615937 0.179021
H5    H     H_    0.670751 0.867677 0.385545 0.179312
H6    H     H_    0.716633 0.862507 0.551617 0.167629
H7    H     H_    0.528181 0.110545 0.702038 0.171301
H8    H     H_    0.533569 0.895224 0.702889 0.162784
H9    H     H_    0.298236 0.131258 0.407074 0.157915
H10   H     H_    0.426244 0.891037 0.301142 0.164769
H11   H     H_    0.900556 0.432583 0.757419 0.274284
H12   H     H_    0.298130 0.919000 0.404727 0.162555
H13   H     H_    0.048902 0.505901 0.766519 0.249531
H14   H     H_    0.902842 0.586649 0.831457 0.236457
H15   H     H_    0.925251 0.683015 0.624755 0.136385
H16   H     H_    0.783239 0.620188 0.627509 0.260114
H17   H     H_    0.283617 0.023471 0.147968 0.259266
H18   H     H_    0.218404 0.185717 0.188904 0.252724
H19   H     H_    0.330263 0.154723 0.068421 0.257701
H20   H     H_    0.446605 0.226431 0.261101 0.205273
H21   H     H_    0.514455 0.066326 0.223606 0.212948
H22   H     H_    0.357445 0.130374 0.638572 0.180453
H23   H     H_    0.361317 0.916769 0.643378 0.181592
H24   H     H_    0.386719 0.449530 0.890031 0.187549
H25   H     H_    0.612171 0.415608 0.106364 0.185092
H26   H     H_    0.688166 0.463894 0.907114 0.150449
H27   H     H_    0.311568 0.520122 0.092528 0.151698
H28   H     H_    0.106581 0.416995 0.423170 0.140988
N1    N     N_2   0.157300 0.551950 0.551120 -0.203803
N2    N     N_2   0.842730 0.448000 0.448950 -0.219178
O1    O     O_R   0.568940 0.489540 0.307530 -0.610175
O2    O     O_R   0.348880 0.522880 0.340350 -0.606039
O3    O     O_R   0.610030 0.298130 0.483570 -0.621628
O4    O     O_R   0.389960 0.331470 0.516390 -0.623592
O5    O     O_R   0.651120 0.477120 0.659650 -0.619418
O6    O     O_R   0.431060 0.510460 0.692470 -0.608539
O7    O     O_R   0.610040 0.668530 0.483610 -0.647984
O8    O     O_R   0.389970 0.701870 0.516430 -0.618044
Zn1   Zn    Zn3+2 0.646940 0.477740 0.478080 0.908480
Zn2   Zn    Zn3+2 0.353060 0.522260 0.521920 0.919853

loop_
_geom_bond_atom_site_label_1
_geom_bond_atom_site_label_2
_ccdc_geom_bond_type
C16   H23   S    
C6    C10   S    
C11   H16   S    
C9    C14   S    
C13   H11   S    
C6    C7    S    
C9    C10   S    
C3    O3    A    
C22   H28   S    
C1    O2    A    
C18   H27   S    
C8    C16   S    
C3    C10   S    
C2    C22   S    
C12   C17   S    
O5    Zn1   S    
C11   C13   S    
C15   H17   S    
C1    C18   S    
C20   H26   S    
N1    Zn2   S    
C2    N2    D    
O6    Zn2   S    
C5    C12   S    
C8    H7    S    
O3    Zn1   S    
C5    O7    A    
C9    C17   S    
C19   C21   S    
C2    C11   S    
C21   H24   S    
C9    H9    S    
C19   H25   S    
H2    N2    S    
C7    C12   S    
O4    Zn2   S    
C15   H18   S    
O7    Zn1   S    
C6    H3    S    
C17   H12   S    
C6    H1    S    
C16   H8    S    
C4    C20   S    
C8    H22   S    
C13   H13   S    
C7    H5    S    
C20   C21   D    
C15   H19   S    
C13   H14   S    
O8    Zn2   S    
C18   C19   D    
C3    O4    A    
C4    O6    A    
C11   H15   S    
C17   H10   S    
C1    O1    A    
C14   C15   S    
C14   H21   S    
N2    Zn1   S    
O2    Zn2   S    
C5    O8    A    
H4    N1    S    
C14   H20   S    
O1    Zn1   S    
C8    C10   S    
C7    H6    S    
C12   C16   S    
C4    O5    A    
C22   N1    D    
