data_mof_unit_48888.cif
_audit_creation_date              2012-12-11T15:56:43-0500
_audit_creation_method            fapswitch 2.2
_symmetry_space_group_name_H-M    P1
_symmetry_Int_Tables_number       1
_space_group_crystal_system       triclinic
_cell_length_a                    14.668375
_cell_length_b                    7.201229
_cell_length_c                    13.593728
_cell_angle_alpha                 90.692475
_cell_angle_beta                  99.981068
_cell_angle_gamma                 89.23569
_cell_volume                      1413.98208588

loop_
_atom_site_label
_atom_site_type_symbol
_atom_type_description
_atom_site_fract_x
_atom_site_fract_y
_atom_site_fract_z
_atom_type_partial_charge
O1    O     O_R   0.336930 0.638190 0.166330 -0.547658
O2    O     O_R   0.663070 0.361810 0.833670 -0.548927
O3    O     O_R   0.163070 0.138190 0.333670 -0.546322
O4    O     O_R   0.836930 0.861810 0.666330 -0.547057
O5    O     O_R   0.147900 0.305430 0.139630 -0.533937
O6    O     O_R   0.852100 0.694570 0.860370 -0.536609
O7    O     O_R   0.352100 0.805430 0.360370 -0.542738
O8    O     O_R   0.647900 0.194570 0.639630 -0.541496
C1    C     C_R   0.115129 0.477652 0.113249 0.741007
C2    C     C_R   0.884860 0.522347 0.886761 0.722021
C3    C     C_R   0.384756 0.977472 0.386844 0.689044
C4    C     C_R   0.615083 0.022573 0.613335 0.702762
O9    O     O_R   0.335280 0.308290 0.154310 -0.501465
O10   O     O_R   0.664720 0.691710 0.845690 -0.502855
O11   O     O_R   0.164720 0.808290 0.345690 -0.514362
O12   O     O_R   0.835280 0.191710 0.654310 -0.509841
O13   O     O_R   0.351790 0.140890 0.348460 -0.538302
O14   O     O_R   0.648210 0.859110 0.651540 -0.530631
O15   O     O_R   0.148210 0.640890 0.151540 -0.520823
O16   O     O_R   0.851790 0.359110 0.848460 -0.524146
C5    C     C_R   0.367588 0.475744 0.136986 0.765367
C6    C     C_R   0.639219 0.523625 0.870801 0.761444
C7    C     C_R   0.137499 0.978653 0.368314 0.784241
C8    C     C_R   0.862768 0.021075 0.631818 0.792536
O17   O     O_3   0.255200 0.472570 0.313680 -0.389623
O18   O     O_3   0.744800 0.527430 0.686320 -0.383968
O19   O     O_3   0.244800 0.972570 0.186320 -0.368056
O20   O     O_3   0.755200 0.027430 0.813680 -0.379735
V1    V     V_3+5 0.249040 0.196590 0.238190 1.489260
V2    V     V_3+5 0.750960 0.803410 0.761810 1.489084
V3    V     V_3+5 0.250960 0.696590 0.261810 1.460243
V4    V     V_3+5 0.749040 0.303410 0.738190 1.477472
C9    C     C_R   0.994402 0.866269 0.423191 0.547325
C10   C     C_R   0.005396 0.133440 0.575725 0.570762
C11   C     C_R   0.485952 0.326693 0.042020 0.565980
C12   C     C_R   0.540225 0.672235 0.987831 0.564242
C13   C     C_R   0.926306 0.870793 0.485045 -0.040620
C14   C     C_R   0.074607 0.125317 0.515494 -0.053788
C15   C     C_R   0.564124 0.342335 0.994664 -0.024300
C16   C     C_R   0.489384 0.656918 0.066606 -0.010062
C17   C     C_R   0.931434 0.007724 0.562345 -0.270427
C18   C     C_R   0.068728 0.990938 0.437406 -0.275480
C19   C     C_R   0.578571 0.512692 0.949252 -0.272344
C20   C     C_R   0.445659 0.486360 0.078335 -0.272830
C21   C     C_1   0.533852 0.008382 0.533233 -0.167624
C22   C     C_1   0.465969 0.991676 0.466958 -0.173090
C23   C     C_1   0.966005 0.508088 0.966894 -0.142819
C24   C     C_1   0.033866 0.491862 0.033236 -0.140267
F1    F     F_    0.986745 0.742559 0.345850 -0.704667
F2    F     F_    0.012735 0.260548 0.651468 -0.692959
F3    F     F_    0.453313 0.156984 0.056983 -0.695417
F4    F     F_    0.555581 0.841863 0.953281 -0.696249
C25   C     C_3   0.848877 0.729651 0.465115 -0.254615
C26   C     C_3   0.756142 0.819979 0.421807 -0.750201
H1    H     H_    0.737880 0.934585 0.470141 0.200337
H2    H     H_    0.758572 0.875609 0.346451 0.238782
H3    H     H_    0.701219 0.713914 0.415422 0.214779
H4    H     H_    0.863306 0.620562 0.411275 0.223980
H5    H     H_    0.843729 0.651929 0.533645 0.197964
C27   C     C_3   0.155637 0.256481 0.540433 -0.299561
C28   C     C_3   0.129261 0.451111 0.501064 -0.566735
H6    H     H_    0.104861 0.446492 0.419090 0.252151
H7    H     H_    0.073512 0.511731 0.537672 0.235738
H8    H     H_    0.190491 0.542594 0.517243 0.183139
H9    H     H_    0.178246 0.264291 0.622755 0.212249
H10   H     H_    0.217259 0.205412 0.510729 0.153086
C29   C     C_3   0.639545 0.193871 0.011370 -0.193573
C30   C     C_3   0.732174 0.269929 0.065145 -0.801509
H11   H     H_    0.761331 0.371349 0.018831 0.217969
H12   H     H_    0.723185 0.338261 0.136633 0.225312
H13   H     H_    0.782877 0.153819 0.081971 0.229622
H14   H     H_    0.621911 0.087824 0.061215 0.223237
H15   H     H_    0.647606 0.121235 0.941320 0.254827
C31   C     C_3   0.500899 0.804352 0.148583 -0.181863
C32   C     C_3   0.545188 0.725649 0.249944 -0.856355
H16   H     H_    0.498984 0.627393 0.278913 0.236875
H17   H     H_    0.611205 0.652841 0.243533 0.230039
H18   H     H_    0.560214 0.841321 0.304827 0.222380
H19   H     H_    0.549343 0.909387 0.133444 0.223124
H20   H     H_    0.435483 0.879228 0.153531 0.247526

loop_
_geom_bond_atom_site_label_1
_geom_bond_atom_site_label_2
_ccdc_geom_bond_type
O17   V3    S    
O1    C5    A    
O19   V1    S    
O13   V1    S    
O3    C7    A    
O15   V3    S    
C25   H5    S    
C21   C22   T    
O7    C3    A    
C7    C18   S    
C9    C18   A    
O9    V1    S    
C14   C18   A    
O4    C8    A    
C9    F1    S    
O1    V3    S    
O2    V4    S    
C29   H14   S    
O3    V1    S    
C1    O15   A    
C6    C19   S    
C2    O16   A    
C30   H11   S    
O2    C6    A    
C29   H15   S    
C12   F4    S    
C13   C25   S    
O11   C7    A    
C27   H10   S    
O12   C8    A    
C31   H20   S    
C8    C17   S    
C10   C17   A    
O10   V2    S    
O5    V1    S    
C26   H2    S    
C10   F2    S    
O7    V3    S    
C31   C32   S    
C29   C30   S    
O8    V4    S    
C12   C16   A    
O18   V4    S    
C15   C19   A    
C25   C26   S    
C9    C13   A    
C27   C28   S    
C28   H8    S    
C11   C15   A    
C32   H16   S    
O5    C1    A    
C5    C20   S    
C23   C24   T    
O8    C4    A    
C28   H7    S    
O9    C5    A    
C11   C20   A    
C32   H17   S    
C14   C27   S    
O6    V2    S    
C27   H9    S    
C31   H19   S    
C11   F3    S    
O14   V2    S    
O16   V4    S    
C26   H1    S    
C3    O13   A    
C10   C14   A    
C15   C29   S    
C4    C21   S    
C12   C19   A    
O6    C2    A    
C25   H4    S    
O11   V3    S    
O12   V4    S    
O10   C6    A    
O20   V2    S    
C30   H13   S    
C16   C31   S    
C13   C17   A    
C28   H6    S    
C32   H18   S    
C16   C20   A    
C1    C24   S    
C30   H12   S    
C4    O14   A    
C2    C23   S    
C3    C22   S    
O4    V2    S    
C26   H3    S    
