data_mof_unit_53111.cif
_audit_creation_date              2012-12-10T18:31:54-0500
_audit_creation_method            fapswitch 2.2
_symmetry_space_group_name_H-M    P1
_symmetry_Int_Tables_number       1
_space_group_crystal_system       triclinic
_cell_length_a                    10.726362
_cell_length_b                    14.880342
_cell_length_c                    15.49399
_cell_angle_alpha                 80.589446
_cell_angle_beta                  91.809455
_cell_angle_gamma                 104.258734
_cell_volume                      2364.48581327

loop_
_atom_site_label
_atom_site_type_symbol
_atom_type_description
_atom_site_fract_x
_atom_site_fract_y
_atom_site_fract_z
_atom_type_partial_charge
C1    C     C_R   0.479778 0.441041 0.662200 0.889822
C2    C     C_3   0.119498 0.495792 0.494570 -0.120525
C3    C     C_3   0.085200 0.554001 0.406821 -0.024416
C4    C     C_3   0.087929 0.541250 0.572626 -0.463096
C5    C     C_R   0.454698 0.405791 0.754929 -0.101158
C6    C     C_R   0.531611 0.596508 0.245000 -0.079820
C7    C     C_R   0.340357 0.293624 0.873962 -0.157128
C8    C     C_R   0.370490 0.319074 0.785104 -0.157904
C9    C     C_R   0.502619 0.467831 0.812996 -0.187868
C10   C     C_R   0.455100 0.450753 0.898182 0.071804
C11   C     C_R   0.384798 0.358438 0.931559 0.023081
C12   C     C_R   0.742126 0.501279 0.497619 0.918693
C13   C     C_R   0.481753 0.521620 0.951891 -0.124096
C14   C     C_R   0.457871 0.494520 0.042736 -0.045952
C15   C     C_R   0.407757 0.398492 0.076785 -0.213150
C16   C     C_R   0.365779 0.331781 0.021973 0.456368
C17   C     C_R   0.528424 0.619053 0.918140 0.381648
C18   C     C_R   0.583858 0.682405 0.974605 0.370771
C19   C     C_R   0.576407 0.651578 0.065384 -0.074878
C20   C     C_R   0.494901 0.562977 0.098076 0.018097
C21   C     C_R   0.644652 0.707641 0.124499 -0.123721
C22   C     C_R   0.627568 0.677092 0.214279 -0.176575
C23   C     C_R   0.517813 0.559114 0.337875 0.909261
C24   C     C_R   0.456009 0.545590 0.185815 0.114484
C25   C     C_R   0.704088 0.839905 0.635777 -0.241019
C26   C     C_R   0.658294 0.749011 0.618457 0.063613
C27   C     C_R   0.533137 0.801193 0.500904 -0.003819
C28   C     C_R   0.581823 0.895499 0.511643 -0.010754
C29   C     C_R   0.665357 0.914217 0.583133 0.084190
C30   C     C_R   0.542338 0.970545 0.458222 0.021435
C31   C     C_R   0.558942 0.056296 0.490877 0.022042
C32   C     C_R   0.654236 0.076483 0.554177 -0.171695
C33   C     C_R   0.707759 0.006769 0.599949 0.169847
C34   C     C_R   0.257471 0.498995 0.498133 0.938424
C35   C     C_R   0.492716 0.966313 0.372561 0.154482
C36   C     C_R   0.437265 0.037000 0.330577 -0.185707
C37   C     C_R   0.432080 0.113393 0.370751 0.108393
C38   C     C_R   0.489793 0.122858 0.452992 -0.009177
C39   C     C_R   0.374461 0.182611 0.327894 -0.282556
C40   C     C_R   0.378169 0.261607 0.365660 0.064466
C41   C     C_R   0.472332 0.197400 0.494333 0.242209
C42   C     C_3   0.890508 0.398078 0.486690 -0.070025
C43   C     C_3   0.031933 0.391094 0.502467 0.261869
C44   C     C_3   0.948290 0.570672 0.414452 -0.096189
C45   C     C_3   0.942455 0.530393 0.580348 0.307316
C46   C     C_3   0.878280 0.500609 0.494724 -0.111944
H1    H     H_    0.136421 0.617588 0.561531 0.199872
H2    H     H_    0.687244 0.716972 0.259488 0.199958
H3    H     H_    0.280524 0.224251 0.897050 0.194730
H4    H     H_    0.327226 0.271715 0.740537 0.207133
H5    H     H_    0.576503 0.530340 0.790165 0.202492
H6    H     H_    0.830054 0.346120 0.538090 0.212219
H7    H     H_    0.402512 0.373492 0.146391 0.176010
H8    H     H_    0.714717 0.772652 0.101737 0.186540
H9    H     H_    0.343645 0.318402 0.329062 0.179064
H10   H     H_    0.401384 0.033507 0.264919 0.164794
H11   H     H_    0.768913 0.850770 0.689995 0.190837
H12   H     H_    0.690956 0.691868 0.657018 0.138013
H13   H     H_    0.460988 0.781634 0.453008 0.181154
H14   H     H_    0.690188 0.147501 0.567065 0.194580
H15   H     H_    0.331836 0.177810 0.264020 0.177238
H16   H     H_    0.895401 0.555724 0.353584 0.168897
H17   H     H_    0.079924 0.509077 0.355567 0.183905
H18   H     H_    0.927755 0.600861 0.586540 0.110177
H19   H     H_    0.126223 0.511520 0.635451 0.205622
N1    N     N_R   0.573860 0.731700 0.552730 -0.121374
N2    N     N_R   0.426060 0.268290 0.447230 -0.107046
O1    O     O_R   0.462770 0.383110 0.605620 -0.576623
O2    O     O_R   0.510160 0.531900 0.639510 -0.635646
O3    O     O_R   0.661510 0.425600 0.483070 -0.596144
O4    O     O_R   0.708900 0.574390 0.516960 -0.618977
O5    O     O_R   0.489840 0.468100 0.360490 -0.616954
O6    O     O_R   0.537230 0.616890 0.394380 -0.584483
O7    O     O_R   0.291100 0.425610 0.483040 -0.585215
O8    O     O_R   0.338490 0.574400 0.516930 -0.611896
Zn1   Zn    Zn3+2 0.468350 0.400660 0.477370 1.019907
Zn2   Zn    Zn3+2 0.531650 0.599340 0.522630 0.973137
I1    I     I_    0.803194 0.355349 0.362602 -0.320102
I2    I     I_    0.941056 0.716124 0.415628 -0.310334
I3    I     I_    0.229982 0.677450 0.349926 -0.274197
O9    O     O_3   0.306841 0.240258 0.057615 -0.600770
C47   C     C_3   0.400872 0.187597 0.071349 0.049675
H20   H     H_    0.458123 0.204111 0.130356 0.155941
H21   H     H_    0.467852 0.201478 0.014380 0.148108
C48   C     C_3   0.333955 0.083537 0.085223 -0.773324
H22   H     H_    0.281021 0.065219 0.025253 0.258049
H23   H     H_    0.406276 0.041135 0.099542 0.218789
H24   H     H_    0.264649 0.066481 0.140729 0.265500
I4    I     I_    0.259735 0.476717 0.220072 -0.345970
O10   O     O_3   0.644086 0.774018 0.939258 -0.583639
C49   C     C_3   0.564512 0.834305 0.950904 0.090276
H25   H     H_    0.578220 0.854548 0.017078 0.164473
H26   H     H_    0.460294 0.801914 0.942758 0.113712
C50   C     C_3   0.601784 0.923251 0.883666 -0.733012
H27   H     H_    0.589025 0.905468 0.816528 0.259843
H28   H     H_    0.540038 0.971220 0.892021 0.209374
H29   H     H_    0.703867 0.959664 0.892391 0.276460
O11   O     O_3   0.515076 0.654194 0.830775 -0.609887
C51   C     C_3   0.394297 0.677092 0.817803 0.118688
H30   H     H_    0.411410 0.754598 0.801036 0.166561
H31   H     H_    0.327906 0.653599 0.875752 0.117806
C52   C     C_3   0.325370 0.634333 0.741305 -0.805440
H32   H     H_    0.302539 0.556536 0.756571 0.256631
H33   H     H_    0.233986 0.656432 0.728633 0.194189
H34   H     H_    0.386306 0.658524 0.681517 0.281211
I5    I     I_    0.846457 0.047011 0.696359 -0.314853
I6    I     I_    0.470585 0.182182 0.633579 -0.343189
I7    I     I_    0.050371 0.311697 0.631246 -0.267180
I8    I     I_    0.540016 0.880725 0.287174 -0.365991
I9    I     I_    0.079618 0.294650 0.422335 -0.224364
O12   O     O_3   0.889788 0.461164 0.652951 -0.589498
C53   C     C_3   0.870581 0.502939 0.725345 0.084832
H35   H     H_    0.797198 0.544552 0.709926 0.130615
H36   H     H_    0.962383 0.549112 0.744175 0.141677
C54   C     C_3   0.821529 0.426143 0.802587 -0.745785
H37   H     H_    0.894245 0.384790 0.821006 0.273982
H38   H     H_    0.803030 0.458018 0.859411 0.199816
H39   H     H_    0.730563 0.378464 0.785108 0.260256

loop_
_geom_bond_atom_site_label_1
_geom_bond_atom_site_label_2
_ccdc_geom_bond_type
C22   H2    S    
O2    Zn2   S    
C35   C36   A    
C9    H5    S    
O5    Zn1   S    
C24   I4    S    
C53   H36   S    
O9    C47   S    
C7    C8    A    
C41   N2    A    
C48   H22   S    
C7    C11   A    
O7    Zn1   S    
C30   C35   A    
C1    C5    S    
C15   H7    S    
C28   C29   A    
C19   C21   A    
C21   H8    S    
O11   C51   S    
C15   C16   A    
C6    C22   A    
C29   C33   A    
C1    O1    A    
C52   H34   S    
C18   C19   A    
C42   C46   S    
C20   C24   A    
C4    H19   S    
C19   C20   A    
C54   H38   S    
C40   N2    A    
C43   I9    S    
C9    C10   A    
C35   I8    S    
C34   O8    A    
C50   H28   S    
C54   H39   S    
C2    C34   S    
C44   I2    S    
C21   C22   A    
C52   H32   S    
C25   H11   S    
C23   O6    A    
C3    I3    S    
C53   H35   S    
C44   C46   S    
C4    C45   S    
C48   H23   S    
C25   C29   A    
C39   H15   S    
C3    C44   S    
C26   N1    A    
C14   C20   A    
C7    H3    S    
C38   C41   A    
C12   C46   S    
C49   H25   S    
C50   H29   S    
C44   H16   S    
C25   C26   A    
C45   C46   S    
C1    O2    A    
C18   O10   S    
C2    C4    S    
C5    C9    A    
C37   C38   A    
C36   H10   S    
C49   H26   S    
O8    Zn2   S    
C11   C16   A    
C51   H30   S    
C2    C43   S    
C40   H9    S    
C6    C24   A    
C17   C18   A    
C52   H33   S    
C26   H12   S    
C34   O7    A    
C51   H31   S    
C12   O4    A    
C42   I1    S    
C47   H21   S    
O3    Zn1   S    
C42   C43   S    
C32   H14   S    
C8    H4    S    
O4    Zn2   S    
C17   O11   S    
C48   H24   S    
N1    Zn2   S    
C12   O3    A    
C36   C37   A    
C41   I6    S    
O12   C53   S    
C23   O5    A    
C31   C32   A    
C33   I5    S    
C10   C13   A    
C5    C8    A    
C45   O12   S    
C3    H17   S    
O1    Zn1   S    
C47   C48   S    
C45   H18   S    
C31   C38   A    
C13   C17   A    
C32   C33   A    
C28   C30   A    
C2    C3    S    
C37   C39   A    
C27   N1    A    
C27   H13   S    
C49   C50   S    
O10   C49   S    
C30   C31   A    
C6    C23   S    
C16   O9    S    
C43   I7    S    
C50   H27   S    
C10   C11   A    
C39   C40   A    
C51   C52   S    
C47   H20   S    
C27   C28   A    
O6    Zn2   S    
C14   C15   A    
N2    Zn1   S    
C13   C14   A    
C53   C54   S    
C54   H37   S    
C42   H6    S    
C4    H1    S    
