data_mof_unit_54838.cif
_audit_creation_date              2012-12-11T16:17:55-0500
_audit_creation_method            fapswitch 2.2
_symmetry_space_group_name_H-M    P1
_symmetry_Int_Tables_number       1
_space_group_crystal_system       triclinic
_cell_length_a                    14.042862
_cell_length_b                    14.042646
_cell_length_c                    30.076597
_cell_angle_alpha                 97.128483
_cell_angle_beta                  97.150437
_cell_angle_gamma                 61.428734
_cell_volume                      5154.08811724

loop_
_atom_site_label
_atom_site_type_symbol
_atom_type_description
_atom_site_fract_x
_atom_site_fract_y
_atom_site_fract_z
_atom_type_partial_charge
C1    C     C_R   0.386276 0.709139 0.441582 0.556474
C2    C     C_R   0.408088 0.328947 0.221753 0.290161
C3    C     C_R   0.417605 0.337894 0.268729 -0.086377
C4    C     C_R   0.335347 0.344828 0.292992 -0.013828
C5    C     C_R   0.311770 0.334362 0.199214 0.035075
C6    C     C_1   0.300550 0.321957 0.151132 -0.034203
C7    C     C_1   0.347923 0.353355 0.341007 -0.075011
C8    C     C_1   0.290516 0.303425 0.111274 -0.014585
C9    C     C_R   0.765660 0.368975 0.400047 -0.033816
C10   C     C_R   0.764146 0.279636 0.373684 -0.190150
C11   C     C_R   0.784140 0.262793 0.328463 -0.187025
C12   C     C_R   0.398673 0.380915 0.426597 0.539888
C13   C     C_R   0.804205 0.335803 0.308846 -0.005966
C14   C     C_R   0.815990 0.419799 0.335379 0.296212
C15   C     C_R   0.800784 0.433984 0.381459 0.275833
C16   C     C_R   0.820385 0.405768 0.156358 -0.109354
C17   C     C_R   0.853034 0.394259 0.113259 -0.129644
C18   C     C_R   0.885928 0.207046 0.105300 -0.129229
C19   C     C_R   0.853314 0.218813 0.148465 -0.120364
C20   C     C_R   0.824206 0.316968 0.174463 0.042890
C21   C     C_1   0.812512 0.322549 0.221330 -0.017469
C22   C     C_1   0.807695 0.327563 0.261134 0.003318
C23   C     C_R   0.710514 0.405518 0.442425 0.545650
C24   C     C_R   0.890608 0.293328 0.088087 0.019701
C25   C     C_R   0.367080 0.762468 0.399656 0.022175
C26   C     C_R   0.450182 0.779316 0.386228 -0.164183
C27   C     C_R   0.446977 0.804263 0.342500 -0.119440
C28   C     C_R   0.359456 0.815336 0.312142 -0.007778
C29   C     C_R   0.272102 0.808085 0.325860 -0.102226
C30   C     C_R   0.275931 0.778919 0.369115 0.259569
C31   C     C_R   0.259380 0.835226 0.153562 -0.111494
C32   C     C_R   0.235743 0.863847 0.109322 -0.127574
C33   C     C_R   0.394727 0.891927 0.115090 -0.129485
C34   C     C_R   0.389625 0.711799 0.568208 0.542519
C35   C     C_R   0.417928 0.863599 0.159387 -0.114535
C36   C     C_R   0.347989 0.839126 0.178961 0.042368
C37   C     C_1   0.359112 0.829797 0.226149 -0.019801
C38   C     C_1   0.361987 0.824343 0.265717 -0.019018
C39   C     C_R   0.300553 0.897116 0.090378 0.020239
C40   C     C_R   0.377443 0.372015 0.596489 -0.013344
C41   C     C_R   0.460439 0.344467 0.631205 -0.099864
C42   C     C_R   0.436986 0.354889 0.675640 0.268570
C43   C     C_R   0.330937 0.382593 0.685052 0.026244
C44   C     C_R   0.247719 0.408190 0.650496 -0.156677
C45   C     C_R   0.403066 0.383573 0.552599 0.535926
C46   C     C_R   0.270433 0.405703 0.606277 -0.149824
C47   C     C_R   0.219242 0.430206 0.840490 0.293980
C48   C     C_R   0.214014 0.403985 0.883159 -0.100788
C49   C     C_R   0.383906 0.237185 0.875032 -0.148986
C50   C     C_R   0.387962 0.261935 0.832213 -0.174790
C51   C     C_R   0.303848 0.355834 0.814332 0.044921
C52   C     C_1   0.303961 0.371899 0.768495 0.018572
C53   C     C_1   0.310768 0.379678 0.730011 -0.002713
C54   C     C_R   0.294590 0.305684 0.900116 -0.021894
C55   C     C_1   0.769639 0.372224 0.611239 -0.024527
C56   C     C_R   0.713900 0.407320 0.568344 0.536697
C57   C     C_R   0.891364 0.372772 0.722563 -0.079473
C58   C     C_R   0.905728 0.364775 0.769174 0.293279
C59   C     C_R   0.817892 0.249733 0.760628 -0.157419
C60   C     C_R   0.801869 0.260128 0.714291 -0.115348
C61   C     C_R   0.837633 0.322498 0.695220 -0.016839
C62   C     C_R   0.869072 0.302347 0.788287 0.023477
C63   C     C_1   0.887723 0.289780 0.835949 -0.036185
C64   C     C_1   0.806051 0.346654 0.648886 -0.069015
C65   C     C_1   0.911040 0.280327 0.875691 -0.010363
C66   C     C_1   0.374276 0.761047 0.613188 -0.006972
C67   C     C_1   0.366123 0.363574 0.380866 -0.031192
C68   C     C_R   0.308169 0.762047 0.721258 -0.168900
C69   C     C_R   0.298971 0.779167 0.767486 -0.138570
C70   C     C_R   0.368135 0.908766 0.771423 -0.105563
C71   C     C_R   0.379614 0.890979 0.724394 0.288521
C72   C     C_R   0.348394 0.817028 0.699750 0.058379
C73   C     C_R   0.329345 0.851999 0.792668 -0.002298
C74   C     C_1   0.312113 0.875948 0.839790 -0.059327
C75   C     C_1   0.362062 0.791350 0.652319 -0.005056
C76   C     C_1   0.292558 0.904001 0.878542 -0.019019
C77   C     C_R   0.950250 0.273178 0.048060 0.540976
C78   C     C_R   0.241602 0.346124 0.270527 -0.134469
C79   C     C_R   0.275300 0.270088 0.065418 0.544346
C80   C     C_R   0.260945 0.953897 0.048805 0.540855
C81   C     C_R   0.953032 0.268739 0.921776 0.545599
C82   C     C_R   0.276259 0.266500 0.939654 0.548382
C83   C     C_R   0.261315 0.951042 0.922809 0.545602
C84   C     C_R   0.229326 0.341988 0.223679 -0.160754
Cr1   Cr    Cr6+3 0.581000 0.584320 0.508140 1.033601
Cr2   Cr    Cr6+3 0.339110 0.576430 0.496080 1.015073
Cr3   Cr    Cr6+3 0.579910 0.339270 0.495810 1.018379
Cr4   Cr    Cr6+3 0.082090 0.079210 0.982490 1.015881
Cr5   Cr    Cr6+3 0.082460 0.324610 0.994920 1.017871
Cr6   Cr    Cr6+3 0.323630 0.087860 0.996130 1.014605
H1    H     H_    0.178395 0.350330 0.289193 0.107723
H2    H     H_    0.856902 0.149626 0.162468 0.103185
H3    H     H_    0.914333 0.128341 0.086738 0.125831
H4    H     H_    0.777081 0.196763 0.308187 0.123628
H5    H     H_    0.163003 0.866704 0.091072 0.126122
H6    H     H_    0.205135 0.815979 0.168711 0.108537
H7    H     H_    0.203228 0.819577 0.302213 0.110889
H8    H     H_    0.521188 0.766610 0.408650 0.156579
H9    H     H_    0.486803 0.866474 0.179000 0.108174
H10   H     H_    0.446474 0.916690 0.101318 0.126298
H11   H     H_    0.156270 0.343091 0.206488 0.120368
H12   H     H_    0.514667 0.810463 0.331901 0.140162
H13   H     H_    0.144297 0.458132 0.901908 0.130095
H14   H     H_    0.165565 0.431058 0.657811 0.127361
H15   H     H_    0.205199 0.429965 0.579877 0.117698
H16   H     H_    0.542857 0.321671 0.624216 0.134533
H17   H     H_    0.454485 0.205359 0.812334 0.105735
H18   H     H_    0.447074 0.161047 0.887194 0.140742
H19   H     H_    0.919106 0.421113 0.707977 0.125825
H20   H     H_    0.789374 0.201663 0.774909 0.122685
H21   H     H_    0.758741 0.222154 0.693493 0.146542
H22   H     H_    0.284765 0.704773 0.702203 0.114890
H23   H     H_    0.267456 0.736182 0.783509 0.111501
H24   H     H_    0.386921 0.967597 0.791801 0.092730
H25   H     H_    0.490016 0.337706 0.286236 0.125820
H26   H     H_    0.855292 0.462279 0.100857 0.129262
H27   H     H_    0.798175 0.481949 0.176470 0.117897
H28   H     H_    0.739853 0.227049 0.387075 0.155023
O1    O     O_R   0.688580 0.499770 0.460490 -0.469900
O2    O     O_R   0.348600 0.476260 0.536540 -0.498028
O3    O     O_R   0.494840 0.313840 0.539010 -0.513598
O4    O     O_R   0.672120 0.351750 0.545910 -0.498134
O5    O     O_3   0.500010 0.500010 0.500010 -0.249536
O6    O     O_R   0.167510 0.972920 0.030390 -0.521408
O7    O     O_R   0.990840 0.178580 0.027590 -0.503201
O8    O     O_R   0.972840 0.345510 0.038590 -0.517768
O9    O     O_R   0.181550 0.320660 0.045200 -0.494610
O10   O     O_R   0.346150 0.177650 0.050510 -0.514701
O11   O     O_R   0.314200 0.996600 0.036060 -0.503466
O12   O     O_R   0.480400 0.672610 0.462660 -0.508613
O13   O     O_R   0.168690 0.969990 0.933130 -0.509014
O14   O     O_R   0.991920 0.175870 0.937430 -0.493519
O15   O     O_R   0.974010 0.342590 0.941330 -0.509686
O16   O     O_R   0.182630 0.317940 0.955040 -0.501830
O17   O     O_R   0.347320 0.174720 0.953250 -0.514784
O18   O     O_R   0.315290 0.993890 0.945900 -0.494496
O19   O     O_3   0.162730 0.163890 0.991180 -0.239424
O20   O     O_R   0.315310 0.685650 0.451800 -0.464349
O21   O     O_R   0.346220 0.474990 0.446280 -0.512447
O22   O     O_R   0.492270 0.312460 0.441630 -0.502495
O23   O     O_R   0.669740 0.350480 0.455640 -0.506614
O24   O     O_R   0.691150 0.501150 0.557860 -0.511196
O25   O     O_R   0.482790 0.673890 0.552920 -0.492864
O26   O     O_R   0.317880 0.687030 0.549170 -0.508003
O27   O     O_3   0.191025 0.766108 0.381361 -0.539367
C85   C     C_3   0.194375 0.669992 0.358852 0.014710
H29   H     H_    0.277208 0.599255 0.362850 0.144398
H30   H     H_    0.169700 0.680496 0.322446 0.114937
C86   C     C_3   0.115404 0.644312 0.378668 -0.353455
H31   H     H_    0.031105 0.711098 0.373542 0.144731
H32   H     H_    0.119410 0.567494 0.361980 0.086069
H33   H     H_    0.136797 0.634646 0.415211 0.179884
O28   O     O_3   0.136066 0.523112 0.822850 -0.550842
C87   C     C_3   0.160321 0.609682 0.835826 -0.023735
H34   H     H_    0.239806 0.591539 0.823919 0.119107
H35   H     H_    0.162572 0.626234 0.873046 0.126197
C88   C     C_3   0.072423 0.711804 0.814931 -0.379824
H36   H     H_    0.992102 0.733114 0.826563 0.149502
H37   H     H_    0.090657 0.780541 0.825004 0.109632
H38   H     H_    0.069168 0.698259 0.777716 0.153198
O29   O     O_3   0.520828 0.330699 0.709047 -0.602400
C89   C     C_3   0.513821 0.427526 0.732630 0.000127
H39   H     H_    0.572942 0.402755 0.762524 0.160158
H40   H     H_    0.432679 0.480652 0.745816 0.120906
C90   C     C_3   0.542356 0.492366 0.703894 -0.267189
H41   H     H_    0.605753 0.435921 0.681340 0.184184
H42   H     H_    0.469287 0.543812 0.682411 0.143607
C91   C     C_3   0.583316 0.564485 0.732929 -0.470371
H43   H     H_    0.523159 0.619127 0.757202 0.156976
H44   H     H_    0.596901 0.614639 0.711209 0.156193
H45   H     H_    0.661318 0.513722 0.751893 0.148459
O30   O     O_3   0.491018 0.320480 0.198364 -0.564303
C92   C     C_3   0.557143 0.210303 0.183723 0.015488
H46   H     H_    0.590835 0.209524 0.152074 0.161472
H47   H     H_    0.511474 0.162774 0.175474 0.121503
C93   C     C_3   0.651939 0.154381 0.218602 -0.275759
H48   H     H_    0.698029 0.201012 0.225706 0.178090
H49   H     H_    0.620368 0.152423 0.250359 0.153754
C94   C     C_3   0.728563 0.038066 0.201913 -0.488258
H50   H     H_    0.684737 0.988963 0.195920 0.148697
H51   H     H_    0.797119 0.000527 0.227622 0.147103
H52   H     H_    0.762038 0.037307 0.170229 0.140928
O31   O     O_3   0.961758 0.412819 0.795336 -0.533359
C95   C     C_3   0.887206 0.514671 0.815032 0.016669
H53   H     H_    0.928367 0.532530 0.846445 0.177474
H54   H     H_    0.812778 0.515633 0.824977 0.101118
C96   C     C_3   0.855367 0.605141 0.784026 -0.388217
H55   H     H_    0.802968 0.597475 0.754490 0.123415
H56   H     H_    0.809269 0.685449 0.802419 0.091989
H57   H     H_    0.929228 0.601074 0.772311 0.198736
O32   O     O_3   0.413721 0.946789 0.700318 -0.565385
C97   C     C_3   0.475807 0.990694 0.726845 -0.001473
H58   H     H_    0.540549 0.929151 0.748636 0.119428
H59   H     H_    0.421696 0.064129 0.747583 0.140632
C98   C     C_3   0.530143 0.025254 0.695743 -0.248989
H60   H     H_    0.582103 0.953710 0.673684 0.173371
H61   H     H_    0.466661 0.087787 0.674137 0.188264
C99   C     C_3   0.600218 0.071962 0.722311 -0.466743
H62   H     H_    0.549416 0.145337 0.743700 0.180234
H63   H     H_    0.638994 0.095346 0.698712 0.176358
H64   H     H_    0.665084 0.010565 0.743860 0.131029
O33   O     O_3   0.823819 0.499326 0.315513 -0.525415
C100  C     C_3   0.933836 0.465574 0.309636 -0.007024
H65   H     H_    0.969435 0.389275 0.287360 0.118434
H66   H     H_    0.982790 0.452855 0.342452 0.123822
C101  C     C_3   0.940440 0.554248 0.287869 -0.371035
H67   H     H_    0.905163 0.631570 0.309381 0.162598
H68   H     H_    0.026342 0.530976 0.283613 0.092505
H69   H     H_    0.894703 0.566893 0.254361 0.154711
O34   O     O_3   0.810717 0.518631 0.406600 -0.525615
C102  C     C_3   0.910207 0.475418 0.433464 0.016637
H70   H     H_    0.978147 0.408965 0.414824 0.095347
H71   H     H_    0.901323 0.442507 0.463596 0.143522
C103  C     C_3   0.940434 0.566103 0.448716 -0.252666
H72   H     H_    0.944855 0.602472 0.418740 0.168608
H73   H     H_    0.876487 0.630647 0.469402 0.175748
C104  C     C_3   0.049916 0.523423 0.476216 -0.479869
H74   H     H_    0.047579 0.486670 0.506443 0.144065
H75   H     H_    0.068552 0.591542 0.487279 0.148746
H76   H     H_    0.115665 0.461509 0.455577 0.146588

loop_
_geom_bond_atom_site_label_1
_geom_bond_atom_site_label_2
_ccdc_geom_bond_type
C58   C62   A    
C100  H65   S    
C63   C65   T    
C40   C41   A    
C90   H41   S    
C41   C42   A    
C35   C36   A    
Cr3   O22   S    
Cr4   O6    S    
C34   C66   S    
O27   C85   S    
C44   H14   S    
C42   O29   S    
Cr2   O26   S    
C92   H46   S    
C70   H24   S    
C104  H76   S    
C40   C46   A    
C100  H66   S    
C79   O10   A    
C69   H23   S    
C26   C27   A    
C37   C38   T    
C74   C76   T    
C18   C24   A    
C36   C37   S    
C89   H39   S    
C15   O34   S    
C86   H32   S    
C23   O1    A    
C5    C6    S    
C103  H73   S    
C31   H6    S    
C85   C86   S    
C46   H15   S    
C59   H20   S    
C88   H38   S    
C95   H53   S    
C18   C19   A    
C73   C74   S    
C32   C39   A    
C82   O17   A    
Cr1   O1    S    
C96   H57   S    
C19   H2    S    
Cr6   O11   S    
C86   H31   S    
C43   C53   S    
C91   H45   S    
C57   H19   S    
C62   C63   S    
C102  H70   S    
C16   C17   A    
C8    C79   S    
C12   O22   A    
C69   C73   A    
C99   H62   S    
Cr5   O16   S    
C29   C30   A    
C9    C10   A    
C31   C36   A    
C89   H40   S    
C68   C72   A    
C98   C99   S    
C56   O24   A    
C93   H49   S    
C59   C60   A    
C90   H42   S    
C13   C14   A    
C1    C25   S    
C84   H11   S    
Cr1   O25   S    
C70   C73   A    
C4    C7    S    
C35   H9    S    
C76   C83   S    
C100  C101  S    
C44   C46   A    
O29   C89   S    
C49   H18   S    
C85   H30   S    
Cr5   O8    S    
C92   H47   S    
C40   C45   S    
C12   C67   S    
C34   O25   A    
C17   C24   A    
Cr5   O15   S    
O33   C100  S    
C51   C52   S    
C1    O20   A    
C97   C98   S    
C87   C88   S    
C1    O12   A    
C41   H16   S    
C86   H33   S    
Cr3   O3    S    
C5    C84   A    
C101  H67   S    
C68   C69   A    
C81   O14   A    
C47   C51   A    
C47   O28   S    
C45   O3    A    
C104  H74   S    
C48   H13   S    
O32   C97   S    
C88   H36   S    
C60   C61   A    
C56   O4    A    
C82   O16   A    
C61   C64   S    
C48   C54   A    
C43   C44   A    
O31   C95   S    
C4    C78   A    
Cr4   O7    S    
C10   H28   S    
Cr1   O12   S    
C89   C90   S    
Cr6   O18   S    
C65   C81   S    
C31   C32   A    
C28   C38   S    
C16   C20   A    
Cr2   O5    S    
C34   O26   A    
C55   C64   T    
C32   H5    S    
C55   C56   S    
C50   C51   A    
C87   H34   S    
C12   O21   A    
C33   C39   A    
C52   C53   T    
Cr3   O23   S    
C57   C61   A    
C83   O13   A    
C83   O18   A    
C70   C71   A    
C94   H50   S    
Cr2   O21   S    
C26   H8    S    
C45   O2    A    
C93   H48   S    
C102  H71   S    
C49   C50   A    
C90   C91   S    
Cr5   O19   S    
C50   H17   S    
C98   H61   S    
C2    C5    A    
C42   C43   A    
Cr4   O14   S    
C3    C4    A    
C28   C29   A    
C54   C82   S    
Cr6   O19   S    
C77   O7    A    
O30   C92   S    
C11   H4    S    
C30   O27   S    
C85   H29   S    
Cr5   O9    S    
C92   C93   S    
C25   C30   A    
C79   O9    A    
C91   H43   S    
C59   C62   A    
C80   O11   A    
C103  H72   S    
C87   H35   S    
C9    C23   S    
C47   C48   A    
C103  C104  S    
Cr1   O24   S    
Cr3   O4    S    
C6    C8    T    
C81   O15   A    
C78   H1    S    
C104  H75   S    
C27   H12   S    
C95   C96   S    
C29   H7    S    
C33   H10   S    
C97   H58   S    
C93   C94   S    
C19   C20   A    
C2    C3    A    
C25   C26   A    
C71   C72   A    
C60   H21   S    
C3    H25   S    
C16   H27   S    
C39   C80   S    
Cr3   O5    S    
Cr6   O17   S    
C11   C13   A    
C101  H69   S    
C72   C75   S    
C57   C58   A    
C94   H52   S    
C66   C75   T    
C14   O33   S    
C91   H44   S    
C33   C35   A    
C95   H54   S    
C13   C22   S    
Cr1   O5    S    
C99   H64   S    
C101  H68   S    
C9    C15   A    
Cr4   O19   S    
C96   H56   S    
C80   O6    A    
C10   C11   A    
Cr2   O20   S    
C7    C67   T    
C98   H60   S    
C78   C84   A    
C24   C77   S    
C96   H55   S    
C102  C103  S    
C20   C21   S    
C88   H37   S    
O34   C102  S    
C23   O23   A    
C27   C28   A    
Cr2   O2    S    
C18   H3    S    
Cr6   O10   S    
C14   C15   A    
C58   O31   S    
C99   H63   S    
Cr4   O13   S    
C71   O32   S    
O28   C87   S    
C21   C22   T    
C68   H22   S    
C77   O8    A    
C49   C54   A    
C17   H26   S    
C2    O30   S    
C94   H51   S    
C97   H59   S    
