data_mof_unit_62230.cif
_audit_creation_date              2012-12-10T21:09:09-0500
_audit_creation_method            fapswitch 2.2
_symmetry_space_group_name_H-M    P1
_symmetry_Int_Tables_number       1
_space_group_crystal_system       triclinic
_cell_length_a                    10.923283
_cell_length_b                    17.50298
_cell_length_c                    16.746066
_cell_angle_alpha                 89.320806
_cell_angle_beta                  104.542247
_cell_angle_gamma                 90.373267
_cell_volume                      3098.86896947

loop_
_atom_site_label
_atom_site_type_symbol
_atom_type_description
_atom_site_fract_x
_atom_site_fract_y
_atom_site_fract_z
_atom_type_partial_charge
C1    C     C_R   0.499393 0.352863 0.500546 0.927069
C2    C     C_R   0.499942 0.647080 0.499355 0.929852
C3    C     C_R   0.440173 0.885701 0.484044 0.023965
C4    C     C_R   0.438499 0.113849 0.494560 0.027018
C5    C     C_1   0.427278 0.965856 0.485414 0.085920
C6    C     C_1   0.426737 0.033602 0.488645 0.085157
C7    C     C_R   0.417849 0.451972 0.819328 -0.257102
C8    C     C_R   0.583199 0.547315 0.180832 -0.260201
C9    C     C_R   0.419542 0.452946 0.735430 -0.004836
C10   C     C_R   0.581475 0.546397 0.264723 -0.007611
C11   C     C_R   0.581090 0.547182 0.760478 0.610097
C12   C     C_R   0.417944 0.453415 0.239377 0.609240
C13   C     C_R   0.581750 0.547598 0.845429 -0.365399
C14   C     C_R   0.417295 0.452954 0.154430 -0.363607
C15   C     C_R   0.499641 0.499733 0.875530 0.110672
C16   C     C_R   0.500410 0.500166 0.124481 0.110845
C17   C     C_1   0.499782 0.499797 0.963398 0.001027
C18   C     C_1   0.500272 0.500074 0.036613 0.000815
C19   C     C_R   0.259119 0.502085 0.465564 0.974812
C20   C     C_R   0.740899 0.497964 0.534432 0.997424
C21   C     C_2   0.123674 0.497763 0.445332 -0.389757
C22   C     C_2   0.876360 0.502422 0.554626 -0.384922
C23   C     C_2   0.063812 0.515268 0.503109 0.353928
C24   C     C_2   0.936196 0.485098 0.496774 0.351788
C25   C     C_R   0.407358 0.842789 0.546001 -0.177433
C26   C     C_R   0.411664 0.156566 0.421761 -0.182011
C27   C     C_R   0.430608 0.765213 0.551756 -0.255263
C28   C     C_R   0.435053 0.234229 0.424368 -0.262364
C29   C     C_R   0.486847 0.729911 0.495374 -0.120044
C30   C     C_R   0.485488 0.269906 0.500024 -0.124800
C31   C     C_R   0.522043 0.772964 0.432686 0.405603
C32   C     C_R   0.514148 0.227016 0.574472 0.401715
C33   C     C_R   0.497845 0.852226 0.427046 0.174294
C34   C     C_R   0.489878 0.147647 0.571366 0.172076
H1    H     H_    0.645900 0.584954 0.887622 0.150997
H2    H     H_    0.352368 0.416078 0.112121 0.150034
H3    H     H_    0.923892 0.527437 0.613287 0.138922
H4    H     H_    0.076158 0.472669 0.386711 0.139674
H5    H     H_    0.365011 0.869594 0.590569 0.184750
H6    H     H_    0.374158 0.129519 0.362686 0.183969
H7    H     H_    0.402584 0.732537 0.599647 0.200961
H8    H     H_    0.411943 0.266596 0.367042 0.214516
H9    H     H_    0.353047 0.414112 0.840083 0.163818
H10   H     H_    0.648805 0.584655 0.160200 0.165069
H11   H     H_    0.356146 0.415818 0.692694 0.160938
H12   H     H_    0.645684 0.583030 0.307572 0.181888
N1    N     N_R   0.500030 0.500030 0.707240 -0.101565
N2    N     N_R   0.499970 0.499970 0.292760 -0.103725
O1    O     O_R   0.500000 0.389130 0.566570 -0.581273
O2    O     O_R   0.500000 0.610870 0.433430 -0.584026
O3    O     O_R   0.499990 0.389100 0.433480 -0.590441
O4    O     O_R   0.500010 0.610900 0.566520 -0.590407
O5    O     O_R   0.317810 0.500010 0.541690 -0.573587
O6    O     O_R   0.682190 0.499990 0.458310 -0.565799
O7    O     O_R   0.317800 0.499990 0.408610 -0.594770
O8    O     O_R   0.682200 0.500010 0.591390 -0.587333
Zn1   Zn    Zn3+2 0.500010 0.500020 0.588860 1.043112
Zn2   Zn    Zn3+2 0.499990 0.499980 0.411140 1.040914
O9    O     O_3   0.876362 0.438951 0.431709 -0.742232
H13   H     H_    0.938249 0.400686 0.423388 0.327634
O10   O     O_3   0.123664 0.561517 0.568082 -0.747584
H14   H     H_    0.061631 0.599572 0.576642 0.327955
O11   O     O_3   0.581432 0.735996 0.380229 -0.758043
H15   H     H_    0.597610 0.771715 0.338007 0.374476
O12   O     O_3   0.567558 0.264174 0.647545 -0.740576
H16   H     H_    0.577879 0.228744 0.694993 0.376215
Br1   Br    Br    0.544685 0.916166 0.344287 -0.498312
Br2   Br    Br    0.528771 0.083916 0.669698 -0.495084
O13   O     O_3   0.661293 0.593668 0.729830 -0.740075
H17   H     H_    0.713514 0.624154 0.775575 0.316174
O14   O     O_3   0.336763 0.407575 0.269878 -0.756394
H18   H     H_    0.284124 0.377325 0.224087 0.311244

loop_
_geom_bond_atom_site_label_1
_geom_bond_atom_site_label_2
_ccdc_geom_bond_type
C10   H12   S    
C4    C26   A    
C23   C24   S    
C31   C33   A    
O9    H13   S    
N2    Zn2   S    
C11   N1    A    
C7    H9    S    
N1    Zn1   S    
C1    O3    A    
C27   H7    S    
C26   C28   A    
O10   H14   S    
C12   N2    A    
C20   O8    A    
C19   O5    A    
C7    C15   A    
C17   C18   T    
O14   H18   S    
C8    C16   A    
O3    Zn2   S    
C34   Br2   S    
C25   H5    S    
C9    H11   S    
C11   C13   A    
C20   O6    A    
C26   H6    S    
C5    C6    T    
C2    O4    A    
C2    C29   S    
C11   O13   S    
C22   C24   D    
C28   C30   A    
C1    C30   S    
C19   C21   S    
C12   O14   S    
C12   C14   A    
C9    N1    A    
C4    C34   A    
C13   C15   A    
C21   C23   D    
C10   N2    A    
O13   H17   S    
C8    C10   A    
C14   C16   A    
C4    C6    S    
C27   C29   A    
O4    Zn1   S    
C3    C33   A    
C19   O7    A    
O11   H15   S    
C30   C32   A    
C13   H1    S    
C31   O11   S    
C23   O10   S    
C3    C25   A    
O1    Zn1   S    
O8    Zn1   S    
C33   Br1   S    
C29   C31   A    
O12   H16   S    
O6    Zn2   S    
O7    Zn2   S    
C28   H8    S    
C7    C9    A    
O5    Zn1   S    
C14   H2    S    
C2    O2    A    
C32   C34   A    
C15   C17   S    
C22   H3    S    
C1    O1    A    
C16   C18   S    
C24   O9    S    
C21   H4    S    
C8    H10   S    
C20   C22   S    
C32   O12   S    
C3    C5    S    
C25   C27   A    
O2    Zn2   S    
