data_mof_unit_7161.cif
_audit_creation_date              2013-03-05T15:44:14-0500
_audit_creation_method            fapswitch 2.2
_symmetry_space_group_name_H-M    P1
_symmetry_Int_Tables_number       1
_space_group_crystal_system       triclinic
_cell_length_a                    25.964468
_cell_length_b                    28.567276
_cell_length_c                    8.732081
_cell_angle_alpha                 90.132514
_cell_angle_beta                  97.112862
_cell_angle_gamma                 89.832714
_cell_volume                      6426.99761715

loop_
_atom_site_label
_atom_site_type_symbol
_atom_site_description
_atom_site_fract_x
_atom_site_fract_y
_atom_site_fract_z
_atom_type_partial_charge
P1    P     P_3+3 0.893960 0.447890 0.040050 0.455530
P2    P     P_3+3 0.893960 0.552110 0.540050 0.456745
P3    P     P_3+3 0.393960 0.947890 0.040050 0.457172
P4    P     P_3+3 0.393960 0.052110 0.540050 0.458363
O1    O     O_2   0.898940 0.431940 0.867860 -0.344604
O2    O     O_2   0.898940 0.568060 0.367860 -0.334318
O3    O     O_2   0.398940 0.931940 0.867860 -0.343911
O4    O     O_2   0.398940 0.068060 0.367860 -0.331917
O5    O     O_3   0.941140 0.476130 0.123050 -0.419885
O6    O     O_3   0.941140 0.523870 0.623050 -0.422056
O7    O     O_3   0.441140 0.976130 0.123050 -0.419478
O8    O     O_3   0.441140 0.023870 0.623050 -0.421343
O9    O     O_3   0.982430 0.389880 0.635700 -0.397232
O10   O     O_3   0.982430 0.610120 0.135700 -0.365264
O11   O     O_3   0.482430 0.889880 0.635700 -0.397013
O12   O     O_3   0.482430 0.110120 0.135700 -0.387167
O13   O     O_2   0.895946 0.354613 0.726089 -0.396732
O14   O     O_2   0.897215 0.646514 0.224492 -0.396746
O15   O     O_2   0.396105 0.854358 0.726081 -0.395908
O16   O     O_2   0.395440 0.145209 0.224909 -0.393716
O17   O     O_3   0.841707 0.487467 0.001352 -0.578279
O18   O     O_3   0.844236 0.511035 0.494507 -0.609211
O19   O     O_3   0.341628 0.987436 0.001115 -0.578635
O20   O     O_3   0.344487 0.010800 0.494213 -0.608471
O21   O     O_3   0.958335 0.294338 0.625548 -0.537471
O22   O     O_3   0.961948 0.705911 0.137448 -0.527496
O23   O     O_3   0.458591 0.794293 0.624874 -0.538241
O24   O     O_3   0.456276 0.206220 0.130306 -0.538286
H1    H     H_    0.033848 0.315017 0.615386 0.088692
H2    H     H_    0.004330 0.693516 0.952349 0.041327
H3    H     H_    0.533977 0.815237 0.614145 0.088456
H4    H     H_    0.534092 0.198764 0.114016 0.118163
C1    C     C_3   0.025262 0.242641 0.553374 -0.443335
C2    C     C_3   0.023044 0.760360 0.059221 -0.371188
C3    C     C_3   0.525704 0.742826 0.552462 -0.443360
C4    C     C_3   0.503803 0.264417 0.013973 -0.445707
H5    H     H_    0.064670 0.244495 0.516502 0.128544
H6    H     H_    0.057705 0.743632 0.124833 0.186175
H7    H     H_    0.565181 0.744838 0.516112 0.129019
H8    H     H_    0.504754 0.284161 0.124124 0.212197
H9    H     H_    0.030183 0.228420 0.672362 0.201334
H10   H     H_    0.006540 0.785020 0.138820 0.201474
H11   H     H_    0.530546 0.728561 0.671375 0.200960
H12   H     H_    0.469551 0.276360 0.934263 0.199089
P5    P     P_3+3 0.105800 0.447360 0.649510 0.400429
P6    P     P_3+3 0.105800 0.552640 0.149510 0.402523
P7    P     P_3+3 0.605800 0.947360 0.649510 0.400495
P8    P     P_3+3 0.605800 0.052640 0.149510 0.403216
P9    P     P_3+3 0.066150 0.346259 0.096284 0.425472
P10   P     P_3+3 0.066467 0.653415 0.596983 0.431515
P11   P     P_3+3 0.566311 0.846366 0.096244 0.425000
P12   P     P_3+3 0.567027 0.152988 0.596209 0.425130
O25   O     O_2   0.100770 0.431440 0.821660 -0.363849
O26   O     O_2   0.100770 0.568560 0.321660 -0.360038
O27   O     O_2   0.600770 0.931440 0.821660 -0.363537
O28   O     O_2   0.600770 0.068560 0.321660 -0.360014
O29   O     O_3   0.017130 0.389790 0.053700 -0.402585
O30   O     O_3   0.017130 0.610210 0.553700 -0.400680
O31   O     O_3   0.517130 0.889790 0.053700 -0.402887
O32   O     O_3   0.517130 0.110210 0.553700 -0.400985
O33   O     O_2   0.110048 0.359516 0.999708 -0.370580
O34   O     O_2   0.109907 0.640508 0.497884 -0.363974
O35   O     O_2   0.610217 0.859789 0.999937 -0.370689
O36   O     O_2   0.610265 0.139799 0.496808 -0.366543
O37   O     O_3   0.167783 0.476037 0.671819 -0.594969
O38   O     O_3   0.167574 0.523293 0.172708 -0.596888
O39   O     O_3   0.667808 0.975973 0.672115 -0.594676
O40   O     O_3   0.667517 0.023220 0.173354 -0.595046
O41   O     O_3   0.044064 0.292590 0.017322 -0.540000
O42   O     O_3   0.043871 0.707272 0.521284 -0.535583
O43   O     O_3   0.544491 0.792669 0.016955 -0.540092
O44   O     O_3   0.545298 0.207231 0.521692 -0.539506
C5    C     C_3   0.991284 0.287676 0.035025 0.405865
C6    C     C_3   0.991313 0.712043 0.542106 0.437456
C7    C     C_3   0.491686 0.787643 0.034020 0.406232
C8    C     C_3   0.492706 0.212464 0.541156 0.405876
H13   H     H_    0.967691 0.312363 0.956856 0.162120
H14   H     H_    0.967541 0.686496 0.467879 0.161450
H15   H     H_    0.468142 0.812428 0.956101 0.162580
H16   H     H_    0.468818 0.188803 0.460056 0.162657
H17   H     H_    0.984425 0.294543 0.156340 -0.008714
H18   H     H_    0.985643 0.706491 0.665042 -0.037064
H19   H     H_    0.484695 0.794289 0.155348 -0.008335
H20   H     H_    0.485901 0.204494 0.661690 -0.008896
C9    C     C_3   0.974940 0.237385 0.992289 -0.453464
C10   C     C_3   0.973836 0.761673 0.495033 -0.438006
C11   C     C_3   0.475437 0.737413 0.990152 -0.453887
C12   C     C_3   0.476922 0.263288 0.505680 -0.439383
H21   H     H_    0.980735 0.230143 0.870918 0.227399
H22   H     H_    0.979396 0.767837 0.373015 0.224949
H23   H     H_    0.481062 0.730495 0.868490 0.227378
H24   H     H_    0.483666 0.272105 0.385970 0.218986
C13   C     C_3   0.168863 0.474813 0.137416 0.599785
C14   C     C_3   0.169275 0.524491 0.637184 0.604195
C15   C     C_3   0.668908 0.974812 0.137177 0.599507
C16   C     C_3   0.669444 0.024364 0.636768 0.600620
H25   H     H_    0.133093 0.464882 0.065072 0.111501
H26   H     H_    0.133614 0.534691 0.564524 0.109109
H27   H     H_    0.633175 0.964915 0.064573 0.111601
H28   H     H_    0.633835 0.034567 0.563816 0.109662
C17   C     C_3   0.212510 0.463566 0.040094 -0.879000
C18   C     C_3   0.213151 0.535380 0.540642 -0.882688
C19   C     C_3   0.712671 0.963876 0.039992 -0.878155
C20   C     C_3   0.713477 0.034971 0.540550 -0.880165
H29   H     H_    0.248818 0.482346 0.082816 0.249829
H30   H     H_    0.249300 0.516220 0.583327 0.250637
H31   H     H_    0.748863 0.982779 0.083073 0.249496
H32   H     H_    0.749543 0.015787 0.583936 0.250393
H33   H     H_    0.220304 0.425297 0.037844 0.238414
H34   H     H_    0.221210 0.573571 0.539443 0.237839
H35   H     H_    0.720652 0.925644 0.037252 0.238797
H36   H     H_    0.721617 0.073139 0.538643 0.238715
H37   H     H_    0.201048 0.472907 0.921251 0.281161
H38   H     H_    0.201821 0.526264 0.421413 0.280976
H39   H     H_    0.701232 0.973342 0.921301 0.280934
H40   H     H_    0.702269 0.025652 0.421493 0.280923
Ba1   Ba    Ba6+2 0.999910 0.465960 0.844870 1.473793
Ba2   Ba    Ba6+2 0.999910 0.534040 0.344870 1.481834
Ba3   Ba    Ba6+2 0.499910 0.965960 0.844870 1.473484
Ba4   Ba    Ba6+2 0.499910 0.034040 0.344870 1.475978
C21   C     C_3   0.816829 0.495876 0.133795 0.713973
C22   C     C_3   0.822387 0.494611 0.623375 0.640823
C23   C     C_3   0.316743 0.996077 0.133505 0.712555
C24   C     C_3   0.322188 0.994660 0.622640 0.642028
H41   H     H_    0.845975 0.496512 0.236747 0.138686
H42   H     H_    0.850186 0.497178 0.729658 0.147592
H43   H     H_    0.346022 0.997370 0.235987 0.140513
H44   H     H_    0.349585 0.997617 0.729689 0.146508
C25   C     C_3   0.775619 0.458854 0.152686 -1.189428
C26   C     C_3   0.773969 0.523493 0.642311 -1.036238
C27   C     C_3   0.275974 0.958890 0.154581 -1.187494
C28   C     C_3   0.273447 0.023404 0.638673 -1.039939
H45   H     H_    0.793247 0.426340 0.201886 0.261093
H46   H     H_    0.744195 0.519324 0.540312 0.256020
H47   H     H_    0.293926 0.926852 0.206137 0.261010
H48   H     H_    0.243935 0.018524 0.536406 0.256359
H49   H     H_    0.752193 0.451855 0.039950 0.280048
H50   H     H_    0.757394 0.513348 0.748618 0.256821
H51   H     H_    0.252636 0.951203 0.042275 0.278809
H52   H     H_    0.256678 0.013764 0.745143 0.256391
H53   H     H_    0.748884 0.471173 0.234425 0.249124
H54   H     H_    0.784833 0.560595 0.653562 0.227889
H55   H     H_    0.249096 0.971445 0.235570 0.248704
H56   H     H_    0.283995 0.060606 0.647568 0.229449
O45   O     O_3   0.058810 0.523750 0.066650 -0.479546
O46   O     O_3   0.058810 0.476250 0.566650 -0.477225
O47   O     O_3   0.558810 0.023750 0.066650 -0.478221
O48   O     O_3   0.558810 0.976250 0.566650 -0.477453
P13   P     P_3+3 0.932611 0.651609 0.095572 0.426676
P14   P     P_3+3 0.930942 0.350140 0.595923 0.417919
P15   P     P_3+3 0.430846 0.150183 0.095978 0.422447
P16   P     P_3+3 0.431023 0.850043 0.595634 0.417342
C29   C     C_3   0.003480 0.292549 0.551638 0.434472
C30   C     C_3   0.983609 0.721914 0.007461 0.309404
C31   C     C_3   0.503677 0.792650 0.550636 0.434170
C32   C     C_3   0.498222 0.212228 0.045116 0.304217
H57   H     H_    0.995858 0.304683 0.429926 -0.010680
H58   H     H_    0.952141 0.736129 0.922450 0.058949
H59   H     H_    0.495900 0.804730 0.428896 -0.009879
H60   H     H_    0.492692 0.193883 0.931664 0.017916
H61   H     H_    0.000762 0.213037 0.065487 0.167022
H62   H     H_    0.999256 0.786841 0.565344 0.181698
H63   H     H_    0.501373 0.712941 0.062479 0.167578
H64   H     H_    0.502293 0.286423 0.584727 0.181295
C33   C     C_R   0.902408 0.392210 0.307041 -0.494792
C34   C     C_R   0.903525 0.609218 0.805312 -0.458214
C35   C     C_R   0.402428 0.891903 0.306361 -0.493304
C36   C     C_R   0.402866 0.108654 0.805092 -0.475042
C37   C     C_R   0.881213 0.393706 0.152095 0.299988
C38   C     C_R   0.878704 0.605298 0.654456 0.281108
C39   C     C_R   0.380691 0.893675 0.151917 0.299802
C40   C     C_R   0.378368 0.105082 0.653996 0.282921
C41   C     C_R   0.846021 0.357842 0.094664 -0.327939
C42   C     C_R   0.840584 0.639146 0.600853 -0.324026
C43   C     C_R   0.344441 0.858350 0.095807 -0.325532
C44   C     C_R   0.340304 0.138978 0.600137 -0.317543
C45   C     C_R   0.830195 0.322419 0.194369 0.107515
C46   C     C_R   0.827002 0.676154 0.698883 0.106139
C47   C     C_R   0.329018 0.822803 0.195886 0.109036
C48   C     C_R   0.326512 0.175794 0.698514 0.090708
C49   C     C_R   0.855742 0.320912 0.347394 -0.289064
C50   C     C_R   0.855812 0.680048 0.847430 -0.306275
C51   C     C_R   0.355289 0.820950 0.347962 -0.291350
C52   C     C_R   0.354847 0.179279 0.847768 -0.288043
C53   C     C_R   0.892691 0.354927 0.402108 0.251702
C54   C     C_R   0.894490 0.647152 0.899876 0.215986
C55   C     C_R   0.392593 0.854771 0.401905 0.251009
C56   C     C_R   0.393199 0.146102 0.900402 0.251086
C57   C     C_R   0.797543 0.238455 0.179314 -0.280708
C58   C     C_R   0.794167 0.759777 0.677670 -0.270414
C59   C     C_R   0.296976 0.738766 0.174681 -0.280910
C60   C     C_R   0.294108 0.259521 0.676114 -0.271509
C61   C     C_R   0.260416 0.703233 0.128578 0.524252
C62   C     C_R   0.257636 0.295002 0.628951 0.523251
C63   C     C_R   0.761080 0.202800 0.133396 0.527800
C64   C     C_R   0.757654 0.795197 0.630367 0.524072
C65   C     C_R   0.209943 0.715072 0.055130 -0.029503
C66   C     C_R   0.207120 0.283134 0.556825 -0.036876
C67   C     C_R   0.711908 0.214196 0.050123 -0.029231
C68   C     C_R   0.707318 0.783278 0.557004 -0.037791
C69   C     C_R   0.199235 0.762975 0.030475 -0.291025
C70   C     C_R   0.196239 0.235184 0.533334 -0.274461
C71   C     C_R   0.702845 0.261805 0.014005 -0.302622
C72   C     C_R   0.696671 0.735332 0.532440 -0.273963
C73   C     C_R   0.738858 0.297632 0.061978 0.234956
C74   C     C_R   0.733615 0.699772 0.577286 0.234171
C75   C     C_R   0.235875 0.798598 0.076016 0.229747
C76   C     C_R   0.233118 0.199577 0.578219 0.235052
C77   C     C_R   0.788478 0.286144 0.141762 0.015948
C78   C     C_R   0.784301 0.711794 0.648427 -0.013167
C79   C     C_R   0.286880 0.786728 0.144893 0.016391
C80   C     C_R   0.283971 0.211541 0.647955 -0.010303
C81   C     C_R   0.138155 0.684681 0.855870 -0.302300
C82   C     C_R   0.136180 0.314056 0.356620 -0.306057
C83   C     C_R   0.639821 0.183348 0.852464 -0.314520
C84   C     C_R   0.636379 0.814165 0.356596 -0.306250
C85   C     C_R   0.096036 0.655155 0.806857 0.166126
C86   C     C_R   0.094766 0.344333 0.306696 0.181162
C87   C     C_R   0.596935 0.154567 0.805412 0.173587
C88   C     C_R   0.594917 0.844396 0.306662 0.181319
C89   C     C_R   0.112510 0.611149 0.049848 0.348100
C90   C     C_R   0.111605 0.388668 0.549459 0.338359
C91   C     C_R   0.612938 0.111114 0.049412 0.338653
C92   C     C_R   0.611642 0.888679 0.549529 0.338564
C93   C     C_R   0.154502 0.641784 0.098119 -0.296291
C94   C     C_R   0.152824 0.357270 0.598613 -0.303346
C95   C     C_R   0.655327 0.141522 0.096732 -0.303492
C96   C     C_R   0.652853 0.857298 0.598791 -0.303110
C97   C     C_R   0.167121 0.679817 0.003782 0.060888
C98   C     C_R   0.164765 0.318701 0.504931 0.052103
C99   C     C_R   0.668699 0.178942 0.000609 0.059506
C100  C     C_R   0.664905 0.818789 0.505030 0.052454
C101  C     C_R   0.080711 0.621717 0.911369 -0.159074
C102  C     C_R   0.079703 0.378301 0.410837 -0.197056
C103  C     C_R   0.581171 0.121667 0.910864 -0.180145
C104  C     C_R   0.579815 0.878336 0.410791 -0.197456
H65   H     H_    0.177754 0.635411 0.207756 0.184173
H66   H     H_    0.176074 0.363463 0.708403 0.188904
H67   H     H_    0.678239 0.135372 0.207018 0.188316
H68   H     H_    0.676012 0.863471 0.708736 0.189412
H69   H     H_    0.834279 0.228213 0.242800 0.157763
H70   H     H_    0.831756 0.770436 0.734122 0.158211
H71   H     H_    0.334572 0.728282 0.231824 0.159125
H72   H     H_    0.331853 0.270082 0.731657 0.161292
H73   H     H_    0.830160 0.358336 0.974393 0.153664
H74   H     H_    0.821227 0.636079 0.484627 0.166010
H75   H     H_    0.327352 0.859371 0.976661 0.152207
H76   H     H_    0.321187 0.136122 0.483556 0.166832
H77   H     H_    0.160669 0.772925 0.979715 0.139644
H78   H     H_    0.157619 0.225062 0.482986 0.149192
H79   H     H_    0.665930 0.271772 0.951971 0.153347
H80   H     H_    0.658171 0.725161 0.481178 0.149334
H81   H     H_    0.149323 0.710745 0.776482 0.162266
H82   H     H_    0.147160 0.287605 0.277669 0.166428
H83   H     H_    0.651456 0.208610 0.771220 0.167480
H84   H     H_    0.647432 0.787768 0.277570 0.166359
H85   H     H_    0.846713 0.293461 0.424978 0.142433
H86   H     H_    0.847520 0.708139 0.924206 0.144033
H87   H     H_    0.346395 0.793427 0.425489 0.143325
H88   H     H_    0.346399 0.207246 0.924825 0.149236
H89   H     H_    0.926412 0.420745 0.354919 0.159563
H90   H     H_    0.928858 0.581393 0.851756 0.154312
H91   H     H_    0.426795 0.920254 0.353729 0.159041
H92   H     H_    0.428501 0.080964 0.851139 0.156686
C105  C     C_3   0.788795 0.543713 0.120868 -0.417662
C106  C     C_3   0.818547 0.580529 0.044176 -0.750612
H93   H     H_    0.860513 0.576149 0.081574 0.290174
H94   H     H_    0.811582 0.576355 0.917244 0.231193
H95   H     H_    0.805472 0.616027 0.074550 0.239173
H96   H     H_    0.749730 0.540758 0.052824 0.197669
H97   H     H_    0.783115 0.555946 0.238702 0.196162
C107  C     C_3   0.808182 0.442821 0.590229 -0.266099
C108  C     C_3   0.778138 0.419377 0.708846 -0.954310
H98   H     H_    0.797436 0.425144 0.827011 0.294385
H99   H     H_    0.737819 0.433038 0.699835 0.256600
H100  H     H_    0.776178 0.381092 0.686607 0.256993
H101  H     H_    0.784565 0.439714 0.475935 0.180973
H102  H     H_    0.844562 0.423086 0.583206 0.205270
C109  C     C_3   0.287963 0.043540 0.118900 -0.414934
C110  C     C_3   0.317075 0.080337 0.040551 -0.761865
H103  H     H_    0.359066 0.076084 0.077407 0.289356
H104  H     H_    0.309854 0.075876 0.913741 0.232211
H105  H     H_    0.303856 0.115823 0.070546 0.240090
H106  H     H_    0.248888 0.039983 0.051281 0.198396
H107  H     H_    0.282255 0.056095 0.236372 0.195407
C111  C     C_3   0.308343 0.942739 0.590744 -0.267595
C112  C     C_3   0.277943 0.919549 0.708986 -0.952338
H108  H     H_    0.296843 0.925679 0.827371 0.294132
H109  H     H_    0.237563 0.933116 0.698376 0.256783
H110  H     H_    0.276188 0.881206 0.687824 0.257257
H111  H     H_    0.285076 0.939261 0.476086 0.180916
H112  H     H_    0.344869 0.923083 0.585315 0.206546
C113  C     C_3   0.992836 0.209116 0.442652 -0.273430
C114  C     C_3   0.940799 0.196186 0.495531 -0.797843
H113  H     H_    0.946351 0.183798 0.616924 0.250923
H114  H     H_    0.913848 0.226502 0.484321 0.263375
H115  H     H_    0.922637 0.167639 0.421169 0.233377
H116  H     H_    0.986050 0.224796 0.326101 0.181853
H117  H     H_    0.015551 0.176399 0.433640 0.188712
C115  C     C_3   0.040308 0.787943 0.923940 -0.366489
C116  C     C_3   0.001258 0.826048 0.866129 -0.876423
H118  H     H_    0.963093 0.810671 0.822556 0.252625
H119  H     H_    0.996089 0.851081 0.960581 0.262182
H120  H     H_    0.015911 0.845738 0.771035 0.245003
H121  H     H_    0.077631 0.805504 0.964260 0.207645
H122  H     H_    0.047057 0.763941 0.828079 0.207019
C117  C     C_3   0.493595 0.709194 0.441368 -0.275178
C118  C     C_3   0.441063 0.696763 0.491886 -0.795917
H123  H     H_    0.445826 0.684835 0.613800 0.251786
H124  H     H_    0.414295 0.727190 0.478031 0.262463
H125  H     H_    0.423149 0.668029 0.417868 0.232750
H126  H     H_    0.487579 0.724584 0.324285 0.181874
H127  H     H_    0.516186 0.676311 0.434423 0.189147
C119  C     C_3   0.553539 0.274236 0.942999 -0.352507
C120  C     C_3   0.558683 0.326159 0.907732 -0.871660
H128  H     H_    0.524470 0.338463 0.828960 0.257553
H129  H     H_    0.562016 0.346961 0.016130 0.263962
H130  H     H_    0.594012 0.331845 0.850604 0.240786
H131  H     H_    0.587093 0.263162 0.026262 0.215256
H132  H     H_    0.553755 0.253877 0.834575 0.212517
O49   O     O_3   0.276756 0.657691 0.153963 -0.766549
H133  H     H_    0.254647 0.637158 0.082819 0.314010
O50   O     O_3   0.274112 0.340556 0.651646 -0.765630
H134  H     H_    0.252495 0.360699 0.577823 0.315822
O51   O     O_3   0.776399 0.157472 0.168180 -0.766907
H135  H     H_    0.756160 0.136359 0.094279 0.313453
O52   O     O_3   0.773934 0.840763 0.654179 -0.765585
H136  H     H_    0.752563 0.860911 0.579790 0.315644
C121  C     C_3   0.719149 0.347398 0.044523 -0.373749
C122  C     C_3   0.701480 0.364652 0.195263 -0.861944
H137  H     H_    0.670849 0.341285 0.230122 0.261319
H138  H     H_    0.734620 0.365432 0.288768 0.262590
H139  H     H_    0.685051 0.400465 0.179200 0.254897
H140  H     H_    0.748339 0.371032 0.006455 0.195720
H141  H     H_    0.685518 0.349657 0.952832 0.185611
C123  C     C_3   0.714929 0.649817 0.560368 -0.363356
C124  C     C_3   0.707249 0.634181 0.391563 -0.908214
H142  H     H_    0.674450 0.653614 0.326740 0.257001
H143  H     H_    0.742689 0.640405 0.335579 0.258577
H144  H     H_    0.698163 0.596218 0.385072 0.251790
H145  H     H_    0.741681 0.625855 0.629375 0.193219
H146  H     H_    0.677379 0.646648 0.608374 0.187705
C125  C     C_3   0.216379 0.848438 0.065821 -0.373320
C126  C     C_3   0.204304 0.865491 0.223447 -0.865720
H147  H     H_    0.175235 0.842204 0.267297 0.258823
H148  H     H_    0.239974 0.865936 0.307904 0.262975
H149  H     H_    0.187866 0.901405 0.212940 0.255523
H150  H     H_    0.244404 0.871584 0.019032 0.196209
H151  H     H_    0.180167 0.851154 0.983739 0.183226
C127  C     C_3   0.214250 0.149655 0.563202 -0.363131
C128  C     C_3   0.206342 0.133490 0.394967 -0.907598
H152  H     H_    0.173696 0.152981 0.329608 0.256894
H153  H     H_    0.241807 0.139195 0.338635 0.258650
H154  H     H_    0.196906 0.095591 0.389835 0.252032
H155  H     H_    0.241017 0.125853 0.632902 0.192789
H156  H     H_    0.176758 0.146792 0.611700 0.187587
C129  C     C_3   0.035778 0.591702 0.856344 -0.355805
C130  C     C_3   0.055063 0.552413 0.761437 -0.536158
H157  H     H_    0.081262 0.565735 0.685296 0.184089
H158  H     H_    0.076477 0.524406 0.825851 0.224414
H159  H     H_    0.023126 0.537805 0.687614 0.312401
H160  H     H_    0.013991 0.577429 0.941570 0.249042
H161  H     H_    0.004929 0.614083 0.797860 0.153562
C131  C     C_3   0.034985 0.408802 0.355750 -0.345532
C132  C     C_3   0.054862 0.447677 0.261217 -0.520189
H162  H     H_    0.076389 0.475589 0.325739 0.221911
H163  H     H_    0.081205 0.433823 0.186088 0.181932
H164  H     H_    0.023304 0.462441 0.186115 0.310229
H165  H     H_    0.003929 0.386788 0.296815 0.154683
H166  H     H_    0.013009 0.423358 0.440808 0.248513
C133  C     C_3   0.536010 0.091837 0.856327 -0.355838
C134  C     C_3   0.555058 0.052369 0.761506 -0.524243
H167  H     H_    0.581200 0.065410 0.684713 0.183557
H168  H     H_    0.576505 0.024391 0.825995 0.222820
H169  H     H_    0.523022 0.037776 0.688166 0.310269
H170  H     H_    0.514279 0.077691 0.941846 0.249460
H171  H     H_    0.505136 0.114266 0.798063 0.155018
C135  C     C_3   0.535080 0.908796 0.355724 -0.346404
C136  C     C_3   0.554899 0.947708 0.261203 -0.518820
H172  H     H_    0.576452 0.975603 0.325773 0.221896
H173  H     H_    0.581200 0.933926 0.185814 0.182075
H174  H     H_    0.523296 0.962472 0.186297 0.310003
H175  H     H_    0.504061 0.886740 0.296834 0.154555
H176  H     H_    0.513100 0.923306 0.440838 0.248507
C137  C     C_3   0.918517 0.226982 0.015780 -0.385559
C138  C     C_3   0.879669 0.247279 0.887277 -0.757709
H177  H     H_    0.878914 0.285889 0.895996 0.271390
H178  H     H_    0.889739 0.236852 0.772133 0.268923
H179  H     H_    0.840213 0.233951 0.898197 0.231217
H180  H     H_    0.913214 0.188397 0.017027 0.223111
H181  H     H_    0.910287 0.240849 0.129104 0.203872
C139  C     C_3   0.917298 0.771722 0.518584 -0.396466
C140  C     C_3   0.878641 0.749308 0.393926 -0.742018
H182  H     H_    0.839089 0.763053 0.402245 0.232488
H183  H     H_    0.888671 0.757555 0.276995 0.267452
H184  H     H_    0.878091 0.710912 0.410121 0.268404
H185  H     H_    0.909848 0.759191 0.633999 0.194724
H186  H     H_    0.911021 0.810228 0.514880 0.226037
C141  C     C_3   0.419108 0.726811 0.013921 -0.386439
C142  C     C_3   0.380039 0.748039 0.887803 -0.756161
H187  H     H_    0.379066 0.786549 0.900571 0.270267
H188  H     H_    0.390035 0.738814 0.771510 0.270630
H189  H     H_    0.340685 0.734289 0.897636 0.231977
H190  H     H_    0.413715 0.688223 0.012287 0.224185
H191  H     H_    0.411276 0.739876 0.128579 0.203284
C143  C     C_3   0.420320 0.273474 0.528082 -0.392363
C144  C     C_3   0.381844 0.252382 0.400025 -0.742725
H192  H     H_    0.342348 0.266233 0.408483 0.233572
H193  H     H_    0.392424 0.261779 0.284643 0.271264
H194  H     H_    0.380801 0.213804 0.411642 0.267424
H195  H     H_    0.412338 0.260063 0.642036 0.198978
H196  H     H_    0.414509 0.312037 0.527909 0.224247
C145  C     C_3   0.178970 0.444785 0.286442 -0.394620
C146  C     C_3   0.235880 0.440234 0.359224 -0.849081
H197  H     H_    0.255177 0.410648 0.306118 0.252826
H198  H     H_    0.258375 0.472533 0.345464 0.267230
H199  H     H_    0.237148 0.433290 0.484399 0.264983
H200  H     H_    0.156764 0.459097 0.374867 0.190032
H201  H     H_    0.165037 0.408831 0.258911 0.177684
C147  C     C_3   0.179279 0.554465 0.786593 -0.396749
C148  C     C_3   0.236109 0.558434 0.860378 -0.850179
H202  H     H_    0.258418 0.525899 0.846394 0.267966
H203  H     H_    0.255724 0.587831 0.808229 0.252784
H204  H     H_    0.237163 0.565345 0.985604 0.263643
H205  H     H_    0.165649 0.590520 0.759020 0.175653
H206  H     H_    0.156793 0.540460 0.874444 0.188440
C149  C     C_3   0.678985 0.944541 0.285692 -0.394593
C150  C     C_3   0.735880 0.939820 0.358511 -0.850284
H207  H     H_    0.755063 0.910151 0.305480 0.252913
H208  H     H_    0.758534 0.972029 0.344831 0.267172
H209  H     H_    0.737097 0.932933 0.483688 0.264722
H210  H     H_    0.656785 0.958711 0.374380 0.189601
H211  H     H_    0.665013 0.908645 0.257468 0.178557
C151  C     C_3   0.679357 0.054553 0.785684 -0.392406
C152  C     C_3   0.736142 0.058836 0.859637 -0.851930
H212  H     H_    0.758585 0.026308 0.846855 0.267727
H213  H     H_    0.755698 0.088121 0.806709 0.252634
H214  H     H_    0.737064 0.066159 0.984566 0.262395
H215  H     H_    0.665702 0.090499 0.757078 0.178736
H216  H     H_    0.656843 0.040711 0.873753 0.188151

loop_
_geom_bond_atom_site_label_1
_geom_bond_atom_site_label_2
_geom_bond_distance
_ccdc_geom_bond_type
C28   H56   1.098432 S    
C149  C150  1.539943 S    
C129  C130  1.514084 S    
C11   H23   1.107379 S    
C93   H65   1.082223 S    
C81   H81   1.082793 S    
C2    H10   1.110293 S    
C96   C100  1.426789 A    
P14   C53   1.858320 S    
C124  H142  1.110465 S    
C81   C97   1.418726 A    
P8    Ba4   3.453363 S    
O27   Ba3   2.826121 S    
C116  H118  1.108168 S    
C71   C73   1.415601 A    
C111  H111  1.107851 S    
C36   C56   1.395036 A    
P5    C90   1.903047 S    
C147  C148  1.539641 S    
C30   H58   1.110308 S    
C15   H27   1.094403 S    
C49   H85   1.082484 S    
C41   H73   1.079666 S    
C89   C93   1.422091 A    
C108  H100  1.110552 S    
C17   H37   1.077506 S    
C134  H167  1.079123 S    
C130  H159  1.070370 S    
C144  H194  1.107687 S    
C67   C99   1.531123 S    
C146  H199  1.107802 S    
C20   H40   1.077311 S    
C15   C19   1.531142 S    
C107  C108  1.528491 S    
C73   C121  1.511204 S    
O42   C6    1.405021 S    
C121  H140  1.098716 S    
C112  H109  1.109857 S    
P4    O8    1.566463 S    
C118  H125  1.110498 S    
C43   H75   1.079765 S    
P13   C54   1.869985 S    
C143  H196  1.111465 S    
C146  H198  1.108149 S    
C26   H46   1.111127 S    
P11   O43   1.748270 S    
P16   C55   1.859529 S    
C92   C96   1.419811 A    
C5    H17   1.112633 S    
O18   C22   1.403668 S    
C33   C37   1.396795 A    
P15   C56   1.863315 S    
C74   C123  1.509682 S    
O40   C15   1.419130 S    
C122  H137  1.111206 S    
O50   H134  0.985869 S    
O3    Ba3   2.829117 S    
P3    Ba3   3.451424 S    
C10   H22   1.107336 S    
C85   C101  1.414168 A    
C35   C39   1.396964 A    
C119  C120  1.525224 S    
C15   C149  1.554976 S    
Ba1   O46   3.041939 S    
C138  H178  1.109626 S    
C105  H96   1.113546 S    
C18   H38   1.077787 S    
H3    C31   1.111789 S    
C4    H8    1.111559 S    
C76   C80   1.426033 A    
C46   C50   1.419141 A    
C25   H45   1.098856 S    
Ba4   O48   2.842756 S    
C4    C119  1.526929 S    
C16   C20   1.531650 S    
C57   H69   1.082083 S    
C121  H141  1.111067 S    
C138  H179  1.109127 S    
C26   H50   1.109861 S    
C124  H144  1.110356 S    
C27   H55   1.111484 S    
C115  C116  1.528774 S    
C42   H74   1.078797 S    
C119  H132  1.110578 S    
C38   C42   1.419660 A    
C116  H120  1.110093 S    
C90   C102  1.410855 A    
C107  H102  1.106784 S    
C34   C54   1.397707 A    
O22   P13   1.748040 S    
C123  C124  1.528623 S    
C134  H169  1.069893 S    
C140  H182  1.109094 S    
O16   P15   1.546168 D    
C58   C78   1.412082 A    
C59   H71   1.081642 S    
C12   H64   1.111301 S    
C132  H162  1.090044 S    
C114  H114  1.108685 S    
O10   P13   1.755401 S    
O12   P15   1.761208 S    
C23   C109  1.544151 S    
C34   H90   1.077640 S    
P10   O42   1.746905 S    
C127  C128  1.528465 S    
P3    O7    1.568419 S    
H2    C30   1.113079 S    
C25   H49   1.109290 S    
C14   C18   1.531786 S    
O49   H133  0.985652 S    
C5    H13   1.111150 S    
C19   H31   1.109358 S    
C68   C100  1.523029 S    
C135  C136  1.514749 S    
Ba3   O47   2.842741 S    
C151  H216  1.097085 S    
C48   C52   1.418490 A    
C59   C79   1.412897 A    
C152  H213  1.110729 S    
C115  H121  1.110059 S    
C95   C99   1.430477 A    
C113  H117  1.111541 S    
O23   P16   1.750413 S    
C14   C147  1.554032 S    
C128  H152  1.110479 S    
C128  H154  1.110328 S    
C44   H76   1.078916 S    
C13   C145  1.554803 S    
C139  H185  1.109791 S    
C102  C131  1.482028 S    
C19   H35   1.111819 S    
C3    C31   1.531791 S    
C96   H68   1.082252 S    
O12   Ba4   2.841308 S    
C1    C29   1.531703 S    
C141  C142  1.527221 S    
P9    O29   1.783359 S    
C131  C132  1.514648 S    
C46   C78   1.527904 S    
C117  H126  1.106838 S    
C113  H116  1.106674 S    
C48   C80   1.527274 S    
C60   C80   1.411703 A    
C123  H146  1.111916 S    
P12   O32   1.788228 S    
H4    C32   1.112443 S    
C12   C143  1.533381 S    
C66   C70   1.408852 A    
C41   C45   1.430383 A    
C3    H11   1.108766 S    
C145  H201  1.105937 S    
C68   C72   1.408788 A    
P5    O25   1.592392 D    
C75   C79   1.425336 A    
O5    Ba2   2.843415 S    
C147  H205  1.105440 S    
O7    Ba4   2.843415 S    
C118  H124  1.108782 S    
C108  H98   1.102057 S    
C63   C67   1.426008 A    
C50   H86   1.082618 S    
C140  H184  1.106609 S    
C31   H59   1.112674 S    
C87   C103  1.413639 A    
C32   H60   1.113334 S    
C110  H103  1.104332 S    
C82   C86   1.405218 A    
C132  H164  1.070294 S    
C20   H36   1.111827 S    
C13   C17   1.531286 S    
C136  H174  1.070220 S    
O19   C23   1.413359 S    
C94   C98   1.426856 A    
C60   C62   1.411932 A    
C131  H165  1.099670 S    
P2    O18   1.755390 S    
C113  C114  1.527545 S    
O8    Ba3   2.843443 S    
C74   C78   1.426517 A    
C23   H43   1.100748 S    
C28   H48   1.111143 S    
C75   C125  1.508838 S    
C83   H83   1.082629 S    
C62   O50   1.377256 S    
C2    C115  1.534525 S    
C35   H91   1.078874 S    
C130  H158  1.089812 S    
C36   H92   1.078216 S    
C5    C9    1.531417 S    
C106  H94   1.106940 S    
O38   C13   1.419301 S    
C71   H79   1.078759 S    
C7    C11   1.531234 S    
C34   C38   1.397368 A    
C148  H204  1.107734 S    
C69   H77   1.081196 S    
P5    O37   1.796785 S    
C133  H170  1.070702 S    
C13   H25   1.094344 S    
C150  H207  1.110724 S    
P5    Ba1   3.449677 S    
C119  H131  1.109195 S    
C120  H130  1.109598 S    
P4    C40   1.879652 S    
C89   C101  1.409973 A    
Ba2   O45   3.039988 S    
C84   C88   1.405328 A    
C72   C74   1.417243 A    
C142  H187  1.106046 S    
C106  H95   1.110430 S    
C94   H66   1.082277 S    
C65   C97   1.527282 S    
P10   C85   1.897845 S    
C111  H112  1.106726 S    
O6    Ba1   2.843443 S    
Ba1   Ba2   4.783728 S    
C62   C66   1.424420 A    
C7    H15   1.111150 S    
C127  H155  1.100085 S    
C45   C49   1.417021 A    
C16   H28   1.094985 S    
C108  H99   1.109847 S    
O11   Ba3   2.836869 S    
C61   O49   1.377178 S    
C144  H193  1.110332 S    
C26   H54   1.098655 S    
C27   H51   1.108931 S    
C76   C127  1.509416 S    
C141  H191  1.109634 S    
C126  H147  1.111091 S    
O24   P15   1.744543 S    
C37   C41   1.423271 A    
P9    O41   1.748510 S    
C40   C44   1.420201 A    
C24   C111  1.543758 S    
C129  H161  1.099250 S    
C145  C146  1.539774 S    
C133  H171  1.099769 S    
C82   H82   1.082852 S    
C9    H61   1.111331 S    
O13   P14   1.545417 D    
C110  H105  1.110439 S    
C125  C126  1.527409 S    
C8    H20   1.112766 S    
C151  C152  1.539709 S    
P2    Ba2   3.447841 S    
C136  H172  1.090177 S    
C52   H88   1.082688 S    
C122  H138  1.110671 S    
P1    O1    1.590509 D    
C109  H107  1.112857 S    
H1    C29   1.111815 S    
O9    P14   1.757459 S    
P6    O38   1.796929 S    
P3    O3    1.590509 D    
C3    C117  1.535992 S    
C114  H113  1.110514 S    
P4    O20   1.755620 S    
C25   H53   1.111420 S    
C14   H26   1.094800 S    
C17   H33   1.111826 S    
C133  C134  1.515009 S    
P8    O47   1.574077 S    
P6    Ba2   3.453363 S    
Ba1   O45   2.842741 S    
C50   C54   1.408531 A    
C135  H175  1.099554 S    
C137  H181  1.109885 S    
P3    O19   1.765370 S    
P12   C87   1.894912 S    
C122  H139  1.109774 S    
C109  C110  1.510116 S    
O41   C5    1.405450 S    
C117  H127  1.111518 S    
C42   C46   1.429419 A    
C150  H209  1.107654 S    
C64   C68   1.424307 A    
C24   H44   1.105563 S    
C9    C137  1.534235 S    
C2    C30   1.532521 S    
C120  H128  1.110763 S    
C84   H84   1.082836 S    
C67   C71   1.409378 A    
C6    H18   1.113228 S    
C142  H189  1.109031 S    
O11   P16   1.757968 S    
C124  H143  1.109098 S    
C116  H119  1.110755 S    
O23   C31   1.407215 S    
C141  H190  1.111469 S    
P9    O33   1.547809 D    
O21   C29   1.407095 S    
C117  C118  1.527618 S    
P10   O30   1.787271 S    
C8    H16   1.111107 S    
P1    O5    1.568419 S    
C114  H115  1.110418 S    
P12   O36   1.546936 D    
C9    H21   1.107687 S    
C16   C151  1.553751 S    
C1    H5    1.111492 S    
C101  C129  1.480622 S    
C3    H7    1.111607 S    
C59   C61   1.415147 A    
C19   H39   1.077081 S    
C83   C87   1.405418 A    
C140  H183  1.110488 S    
C57   C63   1.415747 A    
C112  H108  1.101883 S    
C126  H149  1.109653 S    
C95   H67   1.081887 S    
P12   O44   1.746848 S    
P6    O26   1.590187 D    
C69   C75   1.417345 A    
C112  H110  1.110542 S    
P11   O35   1.547688 D    
C109  H106  1.113659 S    
P8    O40   1.796628 S    
P2    C38   1.884437 S    
C58   H70   1.081723 S    
C51   H87   1.082628 S    
C143  H195  1.110482 S    
C146  H197  1.110708 S    
C18   H34   1.111838 S    
C21   C105  1.544225 S    
C82   C98   1.416819 A    
C20   H32   1.109455 S    
C4    C32   1.526631 S    
O29   Ba1   2.840905 S    
C137  C138  1.527084 S    
C115  H122  1.111085 S    
O31   Ba3   2.840905 S    
C23   C27   1.529250 S    
C21   C25   1.530292 S    
C139  C140  1.527191 S    
O9    Ba1   2.836869 S    
Ba3   Ba4   4.783728 S    
C128  H153  1.108993 S    
C28   H52   1.109901 S    
C149  H210  1.097079 S    
C27   H47   1.097749 S    
P9    C86   1.895523 S    
C1    H9    1.108904 S    
C138  H177  1.105721 S    
C105  H97   1.112740 S    
O52   H136  0.985767 S    
C57   C77   1.414196 A    
C7    H19   1.112616 S    
C125  H151  1.112078 S    
O32   Ba4   2.836441 S    
C91   C95   1.424088 A    
C148  H202  1.108198 S    
C29   H57   1.112683 S    
O51   H135  0.986110 S    
C93   C97   1.428103 A    
C36   C40   1.395598 A    
Ba4   O47   3.039988 S    
C6    H14   1.111349 S    
C143  C144  1.528136 S    
C149  H211  1.105785 S    
P1    Ba1   3.451424 S    
C145  H200  1.096899 S    
C11   H63   1.111346 S    
P7    C92   1.902600 S    
P1    O17   1.764201 S    
C107  H101  1.108278 S    
C60   H72   1.081695 S    
C127  H156  1.111920 S    
C121  C122  1.526828 S    
C147  H206  1.096870 S    
O20   C24   1.403645 S    
P4    O4    1.592715 D    
C103  C133  1.481054 S    
Ba3   O48   3.041939 S    
C24   C28   1.527311 S    
P6    C89   1.904568 S    
C64   O52   1.377148 S    
C83   C99   1.418259 A    
C110  H104  1.107076 S    
C51   C55   1.408498 A    
C132  H163  1.078521 S    
C111  C112  1.528392 S    
O25   Ba1   2.826121 S    
C136  H173  1.078552 S    
P6    O45   1.574077 S    
C49   C53   1.408056 A    
C90   C94   1.420063 A    
C45   C77   1.529454 S    
C47   C79   1.530111 S    
O30   Ba2   2.836441 S    
C131  H166  1.073454 S    
C139  H186  1.111495 S    
C21   H41   1.101241 S    
C12   H24   1.110665 S    
C134  H168  1.089866 S    
O10   Ba2   2.841308 S    
C144  H192  1.109007 S    
C65   C69   1.407351 A    
C10   H62   1.108988 S    
O14   P13   1.546256 D    
C105  C106  1.512449 S    
C8    C12   1.529417 S    
C151  H215  1.104413 S    
C58   C64   1.411598 A    
C152  H214  1.107642 S    
P7    Ba3   3.449677 S    
C148  H203  1.110720 S    
C70   C76   1.417179 A    
C125  H150  1.100586 S    
O17   C21   1.412535 S    
O28   Ba4   2.831779 S    
P2    O2    1.592715 D    
P7    O39   1.796521 S    
C150  H208  1.108109 S    
C47   C51   1.416785 A    
C17   H29   1.109340 S    
C120  H129  1.110854 S    
P5    O46   1.572095 S    
Ba2   O46   2.842756 S    
C86   C102  1.415385 A    
C142  H188  1.109790 S    
C81   C85   1.406553 A    
C43   C47   1.431231 A    
C39   C43   1.425947 A    
C33   C53   1.394537 A    
C52   C56   1.408643 A    
O1    Ba1   2.829117 S    
O21   P14   1.750345 S    
C22   H42   1.105333 S    
C123  H145  1.099820 S    
C44   C48   1.429029 A    
C73   C77   1.424506 A    
C35   C55   1.394599 A    
C22   C107  1.543851 S    
O15   P16   1.545679 D    
O44   C8    1.404292 S    
C6    C10   1.528987 S    
C91   C103  1.409947 A    
O37   C14   1.419203 S    
C70   H78   1.083661 S    
C126  H148  1.110258 S    
C10   C139  1.533508 S    
O26   Ba2   2.831779 S    
O39   C16   1.419018 S    
P10   O34   1.547497 D    
C33   H89   1.079163 S    
O22   C30   1.405580 S    
P11   O31   1.784080 S    
P2    O6    1.566463 S    
C118  H123  1.110646 S    
O4    Ba4   2.823534 S    
P7    O27   1.592392 D    
C129  H160  1.071020 S    
P8    O28   1.590187 D    
P7    O48   1.572095 S    
C2    H6    1.112477 S    
C88   C104  1.415128 A    
C63   O51   1.376986 S    
C66   C98   1.522922 S    
P8    C91   1.907192 S    
P11   C88   1.895541 S    
C137  H180  1.111469 S    
O43   C7    1.405161 S    
P3    C39   1.888141 S    
C61   C65   1.425972 A    
P1    C37   1.884920 S    
C84   C100  1.417060 A    
C22   C26   1.527534 S    
C18   H30   1.109390 S    
C135  H176  1.073390 S    
C130  H157  1.079035 S    
C4    H12   1.112571 S    
C106  H93   1.104902 S    
C92   C104  1.410564 A    
C152  H212  1.108149 S    
C72   H80   1.083667 S    
O24   C32   1.404049 S    
P4    Ba4   3.447841 S    
C11   C141  1.533586 S    
O2    Ba2   2.823534 S    
C1    C113  1.536110 S    
C104  C135  1.481630 S    
