data_mof_unit_58685.cif
_audit_creation_date              2012-12-10T16:46:43-0500
_audit_creation_method            fapswitch 2.2
_symmetry_space_group_name_H-M    P1
_symmetry_Int_Tables_number       1
_space_group_crystal_system       triclinic
_cell_length_a                    15.857253
_cell_length_b                    8.719387
_cell_length_c                    7.464162
_cell_angle_alpha                 103.161895
_cell_angle_beta                  94.361103
_cell_angle_gamma                 92.561099
_cell_volume                      999.970532039

loop_
_atom_site_label
_atom_site_type_symbol
_atom_type_description
_atom_site_fract_x
_atom_site_fract_y
_atom_site_fract_z
_atom_type_partial_charge
C1    C     C_R   0.498431 0.199890 0.453700 0.911011
C2    C     C_3   0.954020 0.426842 0.657683 0.109732
C3    C     C_3   0.916551 0.492195 0.491789 0.108372
C4    C     C_3   0.955863 0.664074 0.523497 -0.536342
C5    C     C_3   0.053411 0.664060 0.519972 -0.483386
C6    C     C_1   0.824376 0.495442 0.491749 0.100449
C7    C     C_1   0.175268 0.497072 0.504631 0.018746
C8    C     C_1   0.250888 0.498792 0.505670 -0.144638
C9    C     C_2   0.496091 0.032169 0.431257 -0.391023
C10   C     C_2   0.518002 0.968890 0.574157 0.254465
C11   C     C_R   0.340370 0.499730 0.502057 0.811262
C12   C     C_R   0.506741 0.800194 0.546958 0.732837
C13   C     C_R   0.659621 0.500034 0.497873 0.803640
C14   C     C_3   0.051977 0.428932 0.661747 -0.423270
C15   C     C_3   0.041978 0.391324 0.310653 0.154629
C16   C     C_3   0.942127 0.391610 0.302768 0.721461
C17   C     C_1   0.748965 0.497829 0.493311 -0.093216
C18   C     C_3   0.082868 0.494017 0.499413 0.112164
Cu1   Cu    Cu3+1 0.509300 0.517380 0.684380 1.059724
Cu2   Cu    Cu3+1 0.490700 0.482620 0.315620 1.008110
H1    H     H_    0.080136 0.505621 0.795151 0.167312
H2    H     H_    0.937796 0.506098 0.788177 0.154586
H3    H     H_    0.928472 0.724845 0.418979 0.222268
H4    H     H_    0.473286 0.959738 0.295986 0.138009
H5    H     H_    0.565812 0.622727 0.051352 0.183635
H6    H     H_    0.074765 0.309817 0.658326 0.211094
H7    H     H_    0.064347 0.446062 0.200386 0.129249
H8    H     H_    0.084153 0.742590 0.649618 0.219815
H9    H     H_    0.072817 0.713444 0.403239 0.186931
H10   H     H_    0.940479 0.734903 0.659742 0.219047
N1    N     N_2   0.476670 0.456430 0.038530 0.082674
N2    N     N_2   0.523330 0.543570 0.961470 -0.115154
O1    O     O_R   0.506050 0.286130 0.619770 -0.455380
O2    O     O_R   0.490330 0.256780 0.308370 -0.605386
O3    O     O_R   0.387300 0.514690 0.655770 -0.530298
O4    O     O_R   0.371580 0.485340 0.344370 -0.591362
O5    O     O_R   0.509670 0.743220 0.691630 -0.601209
O6    O     O_R   0.493950 0.713870 0.380230 -0.617751
O7    O     O_R   0.628420 0.514660 0.655630 -0.572567
O8    O     O_R   0.612700 0.485310 0.344230 -0.586390
Br1   Br    Br    0.905596 0.218978 0.667789 -0.459429
O9    O     O_3   0.551941 0.062272 0.742959 -0.666880
H11   H     H_    0.571656 0.995052 0.826209 0.338211
O10   O     O_3   0.420529 0.353377 0.924333 -0.553104
H12   H     H_    0.391023 0.297664 0.005572 0.341332
O11   O     O_3   0.071203 0.237768 0.272986 -0.713592
H13   H     H_    0.050607 0.181756 0.364278 0.364478
O12   O     O_3   0.905734 0.236711 0.273710 -0.662798
H14   H     H_    0.913404 0.181801 0.144502 0.380548
O13   O     O_3   0.909358 0.455237 0.155353 -0.726768
H15   H     H_    0.943678 0.552593 0.153518 0.284150

loop_
_geom_bond_atom_site_label_1
_geom_bond_atom_site_label_2
_ccdc_geom_bond_type
C2    H2    S    
C15   C18   S    
C9    H4    S    
C10   O9    S    
C5    H8    S    
Cu2   O6    S    
C9    C10   D    
C14   C18   S    
C15   H7    S    
N1    N2    D    
C13   C17   S    
C7    C18   S    
Cu2   O2    S    
C16   O12   S    
H5    N2    S    
C11   O3    A    
O13   H15   S    
C1    O1    A    
C7    C8    T    
Cu1   O3    S    
C14   H6    S    
C10   C12   S    
C8    C11   S    
C2    C14   S    
Cu1   N2    S    
Cu1   O7    S    
C14   H1    S    
O12   H14   S    
C16   O13   S    
C1    O2    A    
C2    C3    S    
C5    H9    S    
C12   O6    A    
Cu2   O8    S    
C13   O7    A    
N1    O10   S    
C2    Br1   S    
C3    C4    S    
Cu2   O4    S    
C1    C9    S    
O10   H12   S    
Cu1   O1    S    
C3    C6    S    
C12   O5    A    
C4    H3    S    
C6    C17   T    
O11   H13   S    
C11   O4    A    
C13   O8    A    
C5    C18   S    
Cu1   O5    S    
C15   O11   S    
C15   C16   S    
C4    H10   S    
C3    C16   S    
Cu1   Cu2   S    
O9    H11   S    
C4    C5    S    
Cu2   N1    S    
