data_mof_unit_40008.cif
_audit_creation_date              2012-12-10T17:36:46-0500
_audit_creation_method            fapswitch 2.2
_symmetry_space_group_name_H-M    P1
_symmetry_Int_Tables_number       1
_space_group_crystal_system       triclinic
_cell_length_a                    10.620718
_cell_length_b                    12.32697
_cell_length_c                    13.261811
_cell_angle_alpha                 116.627293
_cell_angle_beta                  77.498386
_cell_angle_gamma                 101.65801
_cell_volume                      1504.28937711

loop_
_atom_site_label
_atom_site_type_symbol
_atom_type_description
_atom_site_fract_x
_atom_site_fract_y
_atom_site_fract_z
_atom_type_partial_charge
C1    C     C_R   0.517750 0.855019 0.287201 0.844947
C2    C     C_3   0.011700 0.904148 0.516684 0.470772
C3    C     C_3   0.954236 0.895087 0.415367 -0.198216
C4    C     C_3   0.876620 0.000805 0.500022 -0.079581
C5    C     C_R   0.360581 0.272577 0.024862 0.459154
C6    C     C_R   0.477104 0.229909 0.835259 -0.151972
C7    C     C_R   0.669572 0.806012 0.112168 -0.196850
C8    C     C_R   0.739733 0.716702 0.025429 -0.128913
C9    C     C_R   0.689399 0.594559 0.990718 -0.116801
C10   C     C_R   0.560529 0.559907 0.031953 0.041981
C11   C     C_R   0.490925 0.649927 0.124061 -0.067107
C12   C     C_R   0.740186 0.000167 0.500065 0.802304
C13   C     C_R   0.501513 0.436874 0.987305 -0.073604
C14   C     C_R   0.396346 0.399482 0.056379 -0.109691
C15   C     C_R   0.324316 0.490009 0.146087 0.367798
C16   C     C_R   0.365446 0.613907 0.171127 0.299507
C17   C     C_R   0.534562 0.353033 0.872588 -0.051359
C18   C     C_R   0.401260 0.189397 0.914721 -0.242166
C19   C     C_R   0.550805 0.772681 0.167904 -0.035704
C20   C     C_R   0.707657 0.348472 0.330300 -0.232927
C21   C     C_R   0.323818 0.758303 0.644236 0.150354
C22   C     C_R   0.285030 0.660884 0.674755 -0.196188
C23   C     C_R   0.487083 0.145623 0.713252 0.808816
C24   C     C_R   0.351020 0.557844 0.620209 -0.164450
C25   C     C_R   0.457440 0.550866 0.533810 0.003801
C26   C     C_R   0.493503 0.653140 0.505242 0.299256
C27   C     C_R   0.529398 0.446901 0.474912 -0.018690
C28   C     C_R   0.635116 0.447767 0.389098 0.163484
C29   C     C_R   0.668319 0.547753 0.362385 -0.226347
C30   C     C_R   0.599379 0.647886 0.419082 -0.168308
C31   C     C_R   0.501952 0.341394 0.497063 0.077607
C32   C     C_R   0.675855 0.248095 0.356356 0.097997
C33   C     C_R   0.259672 0.999712 0.499850 0.863717
C34   C     C_3   0.985767 0.096974 0.482577 -0.185085
C35   C     C_3   0.065166 0.991167 0.399973 -0.066429
C36   C     C_3   0.122639 0.998575 0.499540 -0.134992
C37   C     C_3   0.042695 0.102376 0.582510 -0.067013
C38   C     C_3   0.931277 0.008568 0.601630 -0.237800
Cu1   Cu    Cu3+1 0.529830 0.098270 0.475420 0.974894
Cu2   Cu    Cu3+1 0.470170 0.901730 0.524580 0.990138
H1    H     H_    0.716138 0.899473 0.145212 0.150836
H2    H     H_    0.754066 0.527757 0.933694 0.147250
H3    H     H_    0.836994 0.741620 0.990087 0.160935
H4    H     H_    0.731571 0.171255 0.311330 0.127815
H5    H     H_    0.749127 0.548936 0.296789 0.173898
H6    H     H_    0.788679 0.348627 0.264653 0.176583
H7    H     H_    0.423443 0.332874 0.560793 0.125826
H8    H     H_    0.271966 0.837798 0.687082 0.143769
H9    H     H_    0.973073 0.176241 0.468611 0.179541
H10   H     H_    0.316787 0.485264 0.647326 0.153750
H11   H     H_    0.203456 0.665258 0.740989 0.163983
H12   H     H_    0.633289 0.719389 0.392191 0.192811
H13   H     H_    0.873702 0.015897 0.684525 0.166845
H14   H     H_    0.915301 0.809903 0.346682 0.163137
H15   H     H_    0.365889 0.093313 0.889249 0.187727
N1    N     N_R   0.575030 0.246270 0.438190 -0.188686
N2    N     N_R   0.425760 0.754330 0.561190 -0.210084
O1    O     O_R   0.537510 0.972500 0.318130 -0.584861
O2    O     O_R   0.487140 0.806530 0.359650 -0.578767
O3    O     O_R   0.708330 0.082950 0.479220 -0.588617
O4    O     O_R   0.657960 0.916980 0.520740 -0.604421
O5    O     O_R   0.512860 0.193470 0.640350 -0.578426
O6    O     O_R   0.462490 0.027500 0.681870 -0.598786
O7    O     O_R   0.342040 0.083020 0.479260 -0.590732
O8    O     O_R   0.291670 0.917050 0.520780 -0.524692
C39   C     C_1   0.139253 0.981794 0.289913 0.363697
N3    N     N_1   0.197830 0.974146 0.203073 -0.186691
C40   C     C_1   0.611672 0.396552 0.789987 0.276138
N4    N     N_1   0.672743 0.431136 0.724159 -0.257232
Cl1   Cl    Cl    0.251191 0.720177 0.249622 -0.559054
C41   C     C_1   0.093124 0.215287 0.673528 0.255872
N5    N     N_1   0.133159 0.304236 0.745202 -0.283030
Cl2   Cl    Cl    0.024353 0.774522 0.538643 -0.543495
Cl3   Cl    Cl    0.169395 0.452886 0.213610 -0.452601
Cl4   Cl    Cl    0.273927 0.209887 0.119729 -0.546573

loop_
_geom_bond_atom_site_label_1
_geom_bond_atom_site_label_2
_ccdc_geom_bond_type
C34   C37   S    
C35   C36   S    
C8    H3    S    
C33   O8    A    
C7    C8    A    
Cu1   O7    S    
C11   C19   A    
C9    H2    S    
C29   C30   A    
Cu2   O6    S    
C28   C29   A    
C1    O2    A    
C3    H14   S    
C6    C23   S    
C15   C16   A    
C33   C36   S    
C34   C35   S    
C6    C17   A    
C23   O5    A    
C40   N4    T    
C34   H9    S    
C31   N1    A    
C4    C12   S    
C9    C10   A    
C21   H8    S    
C23   O6    A    
C39   N3    T    
Cu2   O2    S    
C31   H7    S    
C13   C14   A    
C24   H10   S    
C6    C18   A    
C4    C34   S    
C1    C19   S    
C27   C31   A    
C16   Cl1   S    
C24   C25   A    
Cu1   Cu2   S    
C8    C9    A    
C5    C18   A    
C20   C28   A    
C35   C39   S    
C25   C26   A    
Cu1   O1    S    
Cu2   O4    S    
C29   H5    S    
C5    Cl4   S    
C21   N2    A    
C37   C38   S    
C11   C16   A    
C2    C38   S    
Cu1   N1    S    
C3    C35   S    
C32   H4    S    
C5    C14   A    
C2    Cl2   S    
C18   H15   S    
C4    C38   S    
C26   C30   A    
C7    C19   A    
Cu2   O8    S    
C37   C41   S    
C22   C24   A    
C3    C4    S    
C20   C32   A    
C2    C36   S    
Cu1   O5    S    
C30   H12   S    
C36   C37   S    
C17   C40   S    
Cu2   N2    S    
C10   C13   A    
C25   C27   A    
C13   C17   A    
C2    C3    S    
C41   N5    T    
C1    O1    A    
C12   O4    A    
C38   H13   S    
C33   O7    A    
Cu1   O3    S    
C7    H1    S    
C26   N2    A    
C10   C11   A    
C12   O3    A    
C15   Cl3   S    
C27   C28   A    
C14   C15   A    
C21   C22   A    
C32   N1    A    
C20   H6    S    
C22   H11   S    
