data_mof_unit_46919.cif
_audit_creation_date              2013-03-05T16:15:17-0500
_audit_creation_method            fapswitch 2.2
_symmetry_space_group_name_H-M    P1
_symmetry_Int_Tables_number       1
_space_group_crystal_system       triclinic
_cell_length_a                    27.756842
_cell_length_b                    10.634811
_cell_length_c                    9.430119
_cell_angle_alpha                 89.635526
_cell_angle_beta                  89.772543
_cell_angle_gamma                 89.952807
_cell_volume                      2783.58607227

loop_
_atom_site_label
_atom_site_type_symbol
_atom_site_description
_atom_site_fract_x
_atom_site_fract_y
_atom_site_fract_z
_atom_type_partial_charge
O1    O     O_R   0.500020 0.316850 0.620870 -0.552791
O2    O     O_R   0.499980 0.683150 0.379130 -0.552888
O3    O     O_R   0.500000 0.316860 0.379090 -0.547336
O4    O     O_R   0.500000 0.683140 0.620910 -0.547307
C1    C     C_R   0.499969 0.259642 0.500485 0.828579
C2    C     C_R   0.500030 0.740358 0.499516 0.828798
O5    O     O_R   0.430270 0.500020 0.620880 -0.598645
O6    O     O_R   0.569730 0.499980 0.379120 -0.594758
O7    O     O_R   0.430250 0.500030 0.379090 -0.554132
O8    O     O_R   0.569750 0.499970 0.620910 -0.558205
C3    C     C_R   0.407477 0.499961 0.500285 0.797226
C4    C     C_R   0.592522 0.500038 0.499839 0.797036
Cu1   Cu    Cu3+1 0.500010 0.499990 0.643150 0.999747
Cu2   Cu    Cu3+1 0.499990 0.500010 0.356850 1.000857
C5    C     C_R   0.177718 0.387024 0.527708 0.553473
C6    C     C_R   0.822175 0.613516 0.523155 0.553291
O9    O     O_2   0.202838 0.279210 0.543894 -0.529699
O10   O     O_2   0.796978 0.721345 0.537153 -0.529374
N1    N     N_R   0.201612 0.497746 0.504754 -0.467651
N2    N     N_R   0.798379 0.502691 0.502066 -0.467577
C7    C     C_R   0.177382 0.608535 0.485834 0.532740
C8    C     C_R   0.822698 0.391892 0.485267 0.532631
C9    C     C_R   0.278286 0.489628 0.375857 -0.125620
C10   C     C_R   0.721904 0.509909 0.373649 -0.119110
C11   C     C_R   0.328524 0.490382 0.374097 -0.199367
C12   C     C_R   0.671662 0.509038 0.372398 -0.213239
C13   C     C_R   0.329078 0.508583 0.630388 -0.173837
C14   C     C_R   0.670725 0.492126 0.629068 -0.158082
C15   C     C_R   0.278797 0.508192 0.632709 0.191028
C16   C     C_R   0.720996 0.492633 0.630885 0.184596
C17   C     C_R   0.253246 0.498284 0.504514 0.314917
C18   C     C_R   0.746746 0.501974 0.502245 0.314538
C19   C     C_R   0.101547 0.498658 0.519267 -0.053039
C20   C     C_R   0.898387 0.501933 0.517580 -0.053024
C21   C     C_R   0.127197 0.385362 0.535566 -0.113780
C22   C     C_R   0.872663 0.615255 0.531506 -0.113818
C23   C     C_R   0.102149 0.274112 0.565085 -0.123029
C24   C     C_R   0.897578 0.726600 0.559384 -0.123019
C25   C     C_R   0.126879 0.611211 0.492868 -0.003350
C26   C     C_R   0.873174 0.389295 0.492839 -0.003541
C27   C     C_R   0.354381 0.499663 0.501424 -0.093465
C28   C     C_R   0.645616 0.500350 0.500158 -0.093309
H1    H     H_    0.348227 0.516311 0.729792 0.164766
H2    H     H_    0.651416 0.484909 0.728875 0.181555
H3    H     H_    0.121526 0.187579 0.586491 0.209662
H4    H     H_    0.878106 0.813179 0.578971 0.209593
C29   C     C_R   0.974603 0.385348 0.522268 0.052950
C30   C     C_R   0.025319 0.615271 0.520676 0.053267
C31   C     C_R   0.974581 0.616348 0.541007 -0.077547
C32   C     C_R   0.025243 0.384327 0.543496 -0.077688
C33   C     C_R   0.949300 0.501234 0.527451 0.047658
C34   C     C_R   0.050592 0.499400 0.528335 0.047614
C35   C     C_R   0.948741 0.275501 0.487927 -0.203609
C36   C     C_R   0.051347 0.725024 0.484839 -0.203697
C37   C     C_R   0.898845 0.277206 0.475100 -0.142436
C38   C     C_R   0.101298 0.723267 0.472806 -0.142475
O11   O     O_2   0.798040 0.284575 0.462829 -0.528269
O12   O     O_2   0.202146 0.715756 0.461685 -0.528073
C39   C     C_R   0.052032 0.273088 0.575287 0.364675
C40   C     C_R   0.947648 0.727669 0.570363 0.364353
H5    H     H_    0.653280 0.515591 0.271562 0.163024
H6    H     H_    0.347061 0.483313 0.273178 0.182113
H7    H     H_    0.741633 0.516848 0.274618 0.152598
H8    H     H_    0.258711 0.482251 0.277160 0.153517
H9    H     H_    0.880491 0.190153 0.450786 0.197348
H10   H     H_    0.119767 0.810243 0.447207 0.197140
H11   H     H_    0.966771 0.187689 0.465823 0.206439
H12   H     H_    0.033426 0.812780 0.460894 0.205587
C41   C     C_3   0.498939 0.038135 0.632074 0.489692
C42   C     C_3   0.501059 0.961865 0.367931 0.489811
C43   C     C_3   0.539455 0.956918 0.569336 -0.256354
C44   C     C_3   0.460543 0.043082 0.430670 -0.255718
H13   H     H_    0.571036 0.919649 0.628052 0.180722
H14   H     H_    0.428962 0.080353 0.371954 0.180220
C45   C     C_3   0.500041 0.876919 0.498874 -0.071114
C46   C     C_3   0.499957 0.123080 0.501131 -0.071120
C47   C     C_3   0.459505 0.956984 0.564752 -0.285552
C48   C     C_3   0.540493 0.043015 0.435254 -0.286093
H15   H     H_    0.427027 0.919782 0.619758 0.165391
H16   H     H_    0.572971 0.080213 0.380249 0.165908
C49   C     C_3   0.482914 0.605447 0.050233 -0.154556
C50   C     C_3   0.517090 0.394552 0.949768 -0.154138
C51   C     C_3   0.456530 0.514524 0.949598 -0.176811
C52   C     C_3   0.543475 0.485474 0.050413 -0.177823
H17   H     H_    0.420024 0.524869 0.903461 0.140870
H18   H     H_    0.579980 0.475117 0.096609 0.141514
H19   H     H_    0.469118 0.694117 0.096769 0.183707
H20   H     H_    0.530887 0.305886 0.903227 0.183189
N3    N     N_3   0.500040 0.499970 0.858290 -0.179158
N4    N     N_3   0.499960 0.500030 0.141710 -0.179255
C53   C     C_3   0.525808 0.588759 0.950192 0.552989
C54   C     C_3   0.474195 0.411237 0.049810 0.553764
O13   O     O_3   0.497757 0.081895 0.771531 -0.734064
H21   H     H_    0.497666 0.005398 0.832145 0.328056
O14   O     O_3   0.502241 0.918105 0.228474 -0.734163
H22   H     H_    0.502334 0.994603 0.167861 0.328079
O15   O     O_3   0.553882 0.684745 0.890821 -0.710435
H23   H     H_    0.566297 0.733066 0.972445 0.313222
O16   O     O_3   0.446121 0.315256 0.109183 -0.712638
H24   H     H_    0.433704 0.266932 0.027560 0.313513
N5    N     N_3   0.254269 0.518729 0.765980 -0.589599
H25   H     H_    0.232667 0.439159 0.780169 0.241546
H26   H     H_    0.231782 0.597553 0.761597 0.236564
N6    N     N_3   0.745312 0.482794 0.764137 -0.588672
H27   H     H_    0.766844 0.562508 0.776548 0.242230
H28   H     H_    0.767847 0.404037 0.761143 0.236394
O17   O     O_3   0.031381 0.164976 0.629149 -0.721481
H29   H     H_    0.003331 0.189891 0.688026 0.338092
O18   O     O_3   0.968050 0.835930 0.622642 -0.721831
H30   H     H_    0.995820 0.811181 0.682452 0.338569

loop_
_geom_bond_atom_site_label_1
_geom_bond_atom_site_label_2
_geom_bond_distance
_ccdc_geom_bond_type
C16   C18   1.408555 A    
O13   H21   0.991287 S    
C42   C48   1.536222 S    
C41   C47   1.536225 S    
O14   H22   0.991285 S    
C44   C46   1.541639 S    
N1    C17   1.433186 S    
C8    O11   1.349541 S    
N6    H28   1.045414 S    
O15   H23   0.991337 S    
C2    C45   1.452280 S    
C19   C34   1.416632 A    
C30   C36   1.411720 A    
C51   C54   1.526310 S    
C20   C33   1.416626 A    
C19   C25   1.409012 A    
C31   C40   1.427625 A    
C20   C26   1.409031 A    
C32   C39   1.427608 A    
N1    C7    1.367243 A    
C12   H5    1.082738 S    
C46   C48   1.541597 S    
C41   O13   1.398053 S    
C48   H16   1.110180 S    
C13   C15   1.395733 A    
C50   C54   1.527070 S    
C41   C46   1.525522 S    
O4    Cu1   1.957697 S    
C41   C43   1.536342 S    
Cu2   N4    2.028799 S    
C4    C28   1.473741 S    
C40   O18   1.378344 S    
C37   H9    1.083329 S    
C5    N1    1.367528 A    
C25   C38   1.398875 A    
C14   C16   1.395539 A    
C31   C33   1.418300 A    
C32   C34   1.418275 A    
O17   H29   0.991340 S    
C38   H10   1.083326 S    
C52   C53   1.526362 S    
N3    C53   1.473337 S    
O6    C4    1.304562 A    
C29   C35   1.411723 A    
C47   H15   1.110185 S    
N5    H26   1.045429 S    
Cu1   Cu2   2.699843 S    
O2    C2    1.291411 A    
C52   N4    1.489017 S    
C35   H11   1.080227 S    
C5    C21   1.404089 A    
N6    H27   1.045099 S    
C49   C51   1.546050 S    
C29   C32   1.420600 A    
C35   C37   1.390794 A    
C51   N3    1.488975 S    
C36   C38   1.390792 A    
N5    H25   1.045124 S    
C44   H14   1.110231 S    
C11   C27   1.405352 A    
C43   H13   1.110228 S    
C29   C33   1.419013 A    
C14   H2    1.083576 S    
C39   O17   1.378339 S    
C9    C17   1.399340 A    
O5    C3    1.303553 A    
O7    Cu2   1.946262 S    
C10   C18   1.399438 A    
C44   C47   1.556592 S    
C45   C47   1.541602 S    
C13   C27   1.405662 A    
N4    C54   1.473296 S    
O16   H24   0.991353 S    
C7    C25   1.403402 A    
C30   C34   1.419023 A    
C6    N2    1.367554 A    
C26   C37   1.398880 A    
C8    C26   1.403399 A    
C15   N5    1.431909 S    
C49   H19   1.109854 S    
C53   O15   1.397582 S    
O7    C3    1.303833 A    
C23   C39   1.394094 A    
O3    Cu2   1.957696 S    
O8    C4    1.302801 A    
C24   C40   1.394093 A    
C49   N4    1.488263 S    
O4    C2    1.293015 A    
C9    H8    1.082879 S    
C51   H17   1.109438 S    
N2    C8    1.367247 A    
C10   H7    1.082858 S    
C50   C52   1.546111 S    
O1    C1    1.291402 A    
O1    Cu1   1.960288 S    
C23   H3    1.083784 S    
C12   C28   1.405171 A    
N2    C18   1.433187 S    
C21   C23   1.398663 A    
C5    O9    1.349602 S    
C30   C31   1.420620 A    
O6    Cu2   1.947949 S    
Cu1   N3    2.028799 S    
C10   C12   1.394700 A    
O3    C1    1.293024 A    
O8    Cu1   1.946262 S    
C1    C46   1.452280 S    
C22   C24   1.398670 A    
C42   O14   1.398054 S    
C7    O12   1.349543 S    
C15   C17   1.408565 A    
O18   H30   0.991339 S    
C6    C22   1.404076 A    
C43   C45   1.541639 S    
C50   N3    1.488305 S    
C50   H20   1.109856 S    
C14   C28   1.405861 A    
C19   C21   1.406894 A    
C3    C27   1.473791 S    
C20   C22   1.406883 A    
C11   H6    1.083071 S    
C9    C11   1.394507 A    
O2    Cu2   1.960287 S    
C24   H4    1.083787 S    
C49   C53   1.527063 S    
C13   H1    1.083049 S    
O5    Cu1   1.947949 S    
C36   H12   1.080214 S    
C6    O10   1.349608 S    
C16   N6    1.431933 S    
C42   C45   1.525518 S    
C52   H18   1.109659 S    
C42   C44   1.536341 S    
C43   C48   1.556586 S    
C54   O16   1.397579 S    
