data_mof_unit_40619.cif
_audit_creation_date              2012-12-11T14:47:52-0500
_audit_creation_method            fapswitch 2.2
_symmetry_space_group_name_H-M    P1
_symmetry_Int_Tables_number       1
_space_group_crystal_system       triclinic
_cell_length_a                    11.540052
_cell_length_b                    11.492372
_cell_length_c                    19.436054
_cell_angle_alpha                 90.998718
_cell_angle_beta                  90.329421
_cell_angle_gamma                 59.702432
_cell_volume                      2225.24295994

loop_
_atom_site_label
_atom_site_type_symbol
_atom_type_description
_atom_site_fract_x
_atom_site_fract_y
_atom_site_fract_z
_atom_type_partial_charge
C1    C     C_R   0.614508 0.084752 0.606047 0.538749
C2    C     C_1   0.622728 0.113198 0.677218 -0.004319
C3    C     C_R   0.494707 0.805579 0.279365 -0.119895
C4    C     C_R   0.613035 0.745438 0.598404 0.547940
C5    C     C_R   0.516973 0.772184 0.210014 -0.089638
C6    C     C_R   0.648574 0.703994 0.184496 0.031384
C7    C     C_R   0.753559 0.695064 0.224754 -0.136796
C8    C     C_R   0.730187 0.734916 0.293239 -0.125361
C9    C     C_R   0.602440 0.780824 0.321911 0.017454
C10   C     C_R   0.298066 0.193143 0.277459 -0.108916
C11   C     C_R   0.247754 0.221883 0.211115 -0.099419
C12   C     C_1   0.642009 0.703860 0.667878 0.005409
C13   C     C_R   0.153044 0.187867 0.190015 0.011696
C14   C     C_R   0.114121 0.118108 0.234281 -0.137192
C15   C     C_R   0.163738 0.090359 0.300792 -0.135994
C16   C     C_R   0.299393 0.119875 0.605351 0.537844
C17   C     C_R   0.253705 0.130957 0.322960 0.010237
C18   C     C_R   0.759416 0.042890 0.291828 -0.156284
C19   C     C_R   0.758989 0.060641 0.222299 -0.183666
C20   C     C_R   0.666642 0.184264 0.192802 0.008698
C21   C     C_R   0.562446 0.285701 0.234075 0.239986
C22   C     C_R   0.567401 0.267952 0.304994 -0.122316
C23   C     C_1   0.148721 0.186418 0.863631 0.004385
C24   C     C_R   0.663988 0.146212 0.333737 -0.026180
C25   C     C_R   0.085230 0.228993 0.929532 0.546891
C26   C     C_R   0.683226 0.605468 0.929803 0.534076
C27   C     C_R   0.706479 0.204763 0.931173 0.545107
C28   C     C_R   0.645382 0.112737 0.402652 0.549709
C29   C     C_R   0.084000 0.235151 0.125043 0.544818
C30   C     C_R   0.679668 0.619407 0.123167 0.548093
C31   C     C_R   0.705261 0.210401 0.125944 0.565319
C32   C     C_R   0.580942 0.804114 0.395608 0.544601
C33   C     C_R   0.299100 0.114988 0.393699 0.526293
C34   C     C_1   0.230610 0.143793 0.736023 -0.026881
C35   C     C_1   0.669134 0.648201 0.860538 0.008654
C36   C     C_1   0.654993 0.684423 0.728536 -0.029941
C37   C     C_1   0.662652 0.668290 0.799971 -0.028641
C38   C     C_1   0.190742 0.162200 0.805539 -0.025935
C39   C     C_1   0.261356 0.132513 0.676212 -0.001763
C40   C     C_1   0.667245 0.179670 0.865272 0.005549
C41   C     C_1   0.630728 0.134960 0.737279 -0.028509
C42   C     C_1   0.645739 0.159126 0.807037 -0.026148
Cr1   Cr    Cr6+3 0.404720 0.198220 0.499960 1.039919
Cr2   Cr    Cr6+3 0.698290 0.897110 0.500380 1.029185
Cr3   Cr    Cr6+3 0.396970 0.904720 0.499610 1.037059
Cr4   Cr    Cr6+3 0.926180 0.152240 0.028110 1.032499
Cr5   Cr    Cr6+3 0.921340 0.452070 0.027460 1.055047
Cr6   Cr    Cr6+3 0.626260 0.447120 0.028700 1.111735
H1    H     H_    0.395030 0.844681 0.300300 0.130737
H2    H     H_    0.128567 0.041606 0.335260 0.145146
H3    H     H_    0.832461 0.945855 0.312190 0.151776
H4    H     H_    0.353922 0.638973 0.194434 0.353869
H5    H     H_    0.836547 0.978168 0.192099 0.153787
H6    H     H_    0.489489 0.345367 0.337310 0.176905
H7    H     H_    0.433446 0.788306 0.177860 0.133409
H8    H     H_    0.855517 0.646740 0.205336 0.152505
H9    H     H_    0.814396 0.720313 0.324440 0.150183
H10   H     H_    0.368943 0.222206 0.294310 0.148584
H11   H     H_    0.279923 0.272780 0.176663 0.204008
H12   H     H_    0.040102 0.091335 0.218743 0.143678
O1    O     O_R   0.267740 0.231990 0.575440 -0.486198
O2    O     O_R   0.596140 0.579600 0.952720 -0.508444
O3    O     O_R   0.639070 0.321380 0.958660 -0.488364
O4    O     O_R   0.527280 0.186680 0.570530 -0.491991
O5    O     O_R   0.821240 0.124490 0.104360 -0.541812
O6    O     O_R   0.036900 0.167320 0.097830 -0.509460
O7    O     O_R   0.056190 0.349890 0.102870 -0.491022
O8    O     O_R   0.797670 0.565150 0.097930 -0.510891
O9    O     O_R   0.595880 0.584540 0.104260 -0.463199
O10   O     O_R   0.638830 0.325960 0.099140 -0.412925
O11   O     O_3   0.824590 0.350480 0.028090 -0.265987
O12   O     O_R   0.685970 0.784630 0.430010 -0.495269
O13   O     O_R   0.728090 0.003480 0.576380 -0.482178
O14   O     O_R   0.682970 0.789220 0.570490 -0.502681
O15   O     O_R   0.499290 0.771920 0.575530 -0.500508
O16   O     O_R   0.285330 0.030900 0.569730 -0.472293
O17   O     O_R   0.270980 0.227040 0.423900 -0.474861
O18   O     O_R   0.530280 0.182090 0.430050 -0.516706
O19   O     O_R   0.731330 0.998530 0.424830 -0.515379
O20   O     O_2   0.387676 0.403614 0.129065 -0.296181
O21   O     O_2   0.299234 0.464700 0.246481 -0.334182
O22   O     O_3   0.443871 0.559680 0.202517 -0.498822
O23   O     O_R   0.502530 0.766960 0.423990 -0.491181
O24   O     O_R   0.288330 0.026310 0.429250 -0.507235
O25   O     O_3   0.499990 0.000020 0.499980 -0.341059
O26   O     O_R   0.821500 0.119550 0.952820 -0.505895
O27   O     O_R   0.037130 0.162750 0.957360 -0.494325
O28   O     O_R   0.056440 0.344950 0.951330 -0.497301
O29   O     O_R   0.797900 0.560570 0.957460 -0.497131
S1    S     S_3+6 0.418262 0.428918 0.201221 -0.015647

loop_
_geom_bond_atom_site_label_1
_geom_bond_atom_site_label_2
_ccdc_geom_bond_type
C41   C42   S    
C19   C20   A    
Cr6   O9    S    
C3    H1    S    
C7    C8    A    
C32   O12   A    
C26   O29   A    
Cr3   O16   S    
C18   C24   A    
C13   C29   S    
C36   C37   S    
C35   C37   T    
Cr4   O6    S    
C5    C6    A    
C2    C41   T    
C25   O27   A    
C31   O5    A    
C1    C2    S    
C15   H2    S    
C28   O19   A    
C4    O15   A    
C9    C32   S    
C29   O7    A    
C31   O10   A    
C8    C9    A    
Cr1   O4    S    
C12   C36   T    
C28   O18   A    
C4    O14   A    
C19   H5    S    
C40   C42   T    
C16   O16   A    
C13   C14   A    
Cr5   O29   S    
Cr3   O23   S    
C17   C33   S    
C7    H8    S    
C11   H11   S    
Cr5   O7    S    
C18   H3    S    
C21   S1    S    
C34   C39   T    
Cr1   O25   S    
Cr2   O14   S    
Cr4   O5    S    
C22   H6    S    
C18   C19   A    
Cr6   O3    S    
C25   O28   A    
Cr1   O18   S    
C27   O26   A    
Cr3   O25   S    
C3    C9    A    
C8    H9    S    
Cr6   O2    S    
C27   C40   S    
H4    O22   S    
Cr5   O11   S    
Cr4   O11   S    
C27   O3    A    
O21   S1    D    
C6    C30   S    
C22   C24   A    
Cr3   O24   S    
C4    C12   S    
C16   O1    A    
Cr6   O11   S    
Cr2   O25   S    
C1    O4    A    
Cr5   O8    S    
C30   O9    A    
Cr1   O1    S    
Cr4   O27   S    
C15   C17   A    
C32   O23   A    
C10   H10   S    
C34   C38   S    
C5    H7    S    
Cr2   O19   S    
C24   C28   S    
Cr6   O10   S    
C3    C5    A    
C6    C7    A    
Cr1   O17   S    
C23   C38   T    
C14   H12   S    
O22   S1    S    
Cr3   O15   S    
C1    O13   A    
Cr5   O28   S    
C26   O2    A    
C11   C13   A    
C33   O17   A    
Cr2   O12   S    
C23   C25   S    
O20   S1    D    
Cr2   O13   S    
C33   O24   A    
C10   C11   A    
C16   C39   S    
C29   O6    A    
C26   C35   S    
C20   C21   A    
C14   C15   A    
C10   C17   A    
C21   C22   A    
C30   O8    A    
Cr4   O26   S    
C20   C31   S    
