data_mof_unit_48814.cif
_audit_creation_date              2012-12-10T20:41:53-0500
_audit_creation_method            fapswitch 2.2
_symmetry_space_group_name_H-M    P1
_symmetry_Int_Tables_number       1
_space_group_crystal_system       triclinic
_cell_length_a                    14.95732
_cell_length_b                    15.142291
_cell_length_c                    9.931268
_cell_angle_alpha                 90.483789
_cell_angle_beta                  89.823994
_cell_angle_gamma                 90.29085
_cell_volume                      2249.19445824

loop_
_atom_site_label
_atom_site_type_symbol
_atom_type_description
_atom_site_fract_x
_atom_site_fract_y
_atom_site_fract_z
_atom_type_partial_charge
C1    C     C_R   0.380178 0.880464 0.499800 0.868204
C2    C     C_R   0.951975 0.438823 0.071905 0.119465
C3    C     C_R   0.577436 0.003657 0.072366 -0.169238
C4    C     C_R   0.056033 0.553161 0.073349 -0.207667
C5    C     C_R   0.578263 0.002645 0.928080 0.243126
C6    C     C_R   0.058933 0.550957 0.930311 0.241121
C7    C     C_R   0.421348 0.002602 0.929823 0.045592
C8    C     C_R   0.948115 0.441007 0.930126 0.069858
C9    C     C_3   0.347122 0.934942 0.929533 0.399414
C10   C     C_3   0.846874 0.428730 0.940044 0.381701
C11   C     C_3   0.345391 0.941883 0.083604 -0.516339
C12   C     C_R   0.381905 0.121722 0.500444 0.862872
C13   C     C_3   0.856517 0.419707 0.092967 -0.507723
C14   C     C_R   0.620221 0.119182 0.500064 0.870781
C15   C     C_R   0.622180 0.882381 0.499361 0.873990
C16   C     C_R   0.120008 0.619401 0.500040 0.870933
C17   C     C_R   0.121959 0.382172 0.499735 0.868366
C18   C     C_R   0.288830 0.225976 0.622897 0.128994
C19   C     C_R   0.330086 0.736183 0.563540 0.152634
C20   C     C_R   0.794082 0.731593 0.621817 0.121647
C21   C     C_R   0.819807 0.245841 0.588602 0.140463
C22   C     C_R   0.325928 0.197098 0.501846 -0.101005
C23   C     C_R   0.880683 0.379926 0.499539 0.875704
C24   C     C_R   0.313017 0.815757 0.500597 -0.072641
C25   C     C_R   0.829437 0.700429 0.500956 -0.103169
C26   C     C_R   0.813382 0.315269 0.499115 -0.103675
C27   C     C_R   0.310604 0.244150 0.382986 -0.227900
C28   C     C_R   0.229071 0.834511 0.446919 -0.245581
C29   C     C_R   0.811795 0.745294 0.380767 -0.230205
C30   C     C_R   0.738400 0.325179 0.417062 -0.237034
C31   C     C_R   0.745985 0.809431 0.379942 -0.237506
C32   C     C_R   0.673236 0.260132 0.417738 -0.216772
C33   C     C_R   0.245846 0.309090 0.382547 -0.232068
C34   C     C_R   0.883169 0.622977 0.500294 0.868517
C35   C     C_R   0.163973 0.769190 0.447267 -0.227728
C36   C     C_R   0.698614 0.827245 0.499144 -0.107010
C37   C     C_R   0.684365 0.186905 0.500944 -0.080424
C38   C     C_R   0.197555 0.326052 0.501003 -0.102692
C39   C     C_R   0.184594 0.686734 0.500921 -0.067990
C40   C     C_R   0.728077 0.793508 0.620516 0.159691
C41   C     C_R   0.755160 0.181981 0.590528 0.100748
C42   C     C_R   0.225265 0.290217 0.622533 0.120956
C43   C     C_R   0.265959 0.671285 0.562891 0.113347
C44   C     C_3   0.675321 0.748443 0.727943 -0.491510
C45   C     C_3   0.241753 0.174749 0.730124 -0.464593
C46   C     C_3   0.822597 0.110113 0.606143 -0.501206
C47   C     C_3   0.171510 0.246475 0.730486 -0.480184
C48   C     C_3   0.332746 0.600838 0.530771 -0.511524
C49   C     C_3   0.737142 0.961564 0.914379 -0.876206
C50   C     C_3   0.210969 0.547263 0.859496 -0.766908
C51   C     C_3   0.180582 0.953310 0.914964 -0.829561
C52   C     C_3   0.314724 0.776179 0.890210 -0.801140
C53   C     C_3   0.701237 0.503360 0.927624 -0.834667
C54   C     C_3   0.759060 0.286441 0.935515 -0.824961
C55   C     C_3   0.403680 0.672543 0.534218 -0.508482
C56   C     C_3   0.749485 0.681276 0.731506 -0.489134
C57   C     C_3   0.893978 0.181457 0.604925 -0.487872
C58   C     C_R   0.421578 0.004610 0.071835 0.118496
H1    H     H_    0.343872 0.227164 0.289307 0.172306
H2    H     H_    0.615688 0.265825 0.352378 0.156623
H3    H     H_    0.229878 0.341303 0.288708 0.171649
H4    H     H_    0.098983 0.781901 0.403730 0.147458
H5    H     H_    0.670036 0.788315 0.821681 0.218242
H6    H     H_    0.825533 0.064888 0.517393 0.201437
H7    H     H_    0.170344 0.286112 0.825223 0.205523
H8    H     H_    0.322914 0.571294 0.428906 0.206421
H9    H     H_    0.610902 0.720807 0.690501 0.195107
H10   H     H_    0.817242 0.076862 0.704888 0.211431
H11   H     H_    0.105000 0.223179 0.694640 0.199926
H12   H     H_    0.215022 0.898221 0.402998 0.146142
H13   H     H_    0.340074 0.551992 0.612677 0.201376
H14   H     H_    0.280828 0.172241 0.825054 0.214783
H15   H     H_    0.436213 0.683927 0.434952 0.203509
H16   H     H_    0.788801 0.685237 0.825884 0.206531
H17   H     H_    0.938861 0.178083 0.515537 0.194219
H18   H     H_    0.215972 0.110078 0.692844 0.203376
H19   H     H_    0.450393 0.666610 0.620469 0.197714
H20   H     H_    0.728141 0.614183 0.698038 0.227996
H21   H     H_    0.928407 0.189860 0.703293 0.210642
H22   H     H_    0.639287 0.006187 0.128339 0.164735
H23   H     H_    0.843532 0.726710 0.286586 0.170594
H24   H     H_    0.101557 0.595857 0.128097 0.162127
H25   H     H_    0.675699 0.067330 0.820833 0.238669
H26   H     H_    0.771526 0.006557 0.986676 0.231368
H27   H     H_    0.784846 0.943395 0.833103 0.252493
H28   H     H_    0.716772 0.900167 0.966884 0.240101
H29   H     H_    0.139144 0.659793 0.905002 0.201306
H30   H     H_    0.263524 0.586858 0.809778 0.227343
H31   H     H_    0.200909 0.485249 0.800815 0.261286
H32   H     H_    0.234476 0.531231 0.962511 0.213003
H33   H     H_    0.272367 0.961327 0.755603 0.246307
H34   H     H_    0.731410 0.381639 0.351648 0.152974
H35   H     H_    0.166235 0.004013 0.993250 0.245663
H36   H     H_    0.174455 0.886606 0.959399 0.251447
H37   H     H_    0.129428 0.959906 0.834849 0.235328
H38   H     H_    0.440647 0.832046 0.910158 0.214098
H39   H     H_    0.348201 0.714513 0.856938 0.231006
H40   H     H_    0.256360 0.786904 0.823774 0.262083
H41   H     H_    0.292185 0.767679 0.995966 0.231477
H42   H     H_    0.825186 0.564623 0.943271 0.210131
H43   H     H_    0.669422 0.456858 0.855077 0.257016
H44   H     H_    0.670997 0.569333 0.913666 0.242814
H45   H     H_    0.286460 0.975245 0.128541 0.193653
H46   H     H_    0.686104 0.482465 0.032172 0.239603
H47   H     H_    0.791757 0.365196 0.773948 0.257555
H48   H     H_    0.725675 0.242857 0.860379 0.235845
H49   H     H_    0.706489 0.320118 0.995732 0.250554
H50   H     H_    0.799811 0.243418 0.000860 0.245281
H51   H     H_    0.364577 0.880024 0.135267 0.207047
H52   H     H_    0.823401 0.472457 0.153364 0.196583
H53   H     H_    0.848302 0.352773 0.135522 0.206221
H54   H     H_    0.728273 0.839927 0.285463 0.168866
N1    N     N_R   0.499140 0.000000 0.142800 -0.113717
N2    N     N_2   0.816144 0.349907 0.867474 -0.270186
N3    N     N_R   0.999140 0.500000 0.142800 -0.108533
N4    N     N_R   0.499160 1.000000 0.857150 -0.147331
N5    N     N_R   0.999160 0.500000 0.857150 -0.132733
N6    N     N_2   0.660642 0.005324 0.856189 -0.253361
N7    N     N_2   0.128900 0.597299 0.865610 -0.252936
N8    N     N_2   0.268958 0.968170 0.858843 -0.287200
N9    N     N_2   0.377136 0.849052 0.879552 -0.266898
N10   N     N_2   0.797076 0.507594 0.904315 -0.295250
O1    O     O_R   0.408400 0.908380 0.614690 -0.608117
O2    O     O_R   0.591610 0.908390 0.614650 -0.589807
O3    O     O_R   0.091610 0.591610 0.614650 -0.580944
O4    O     O_R   0.091610 0.408390 0.614650 -0.618093
O5    O     O_R   0.591590 0.091600 0.385310 -0.621628
O6    O     O_R   0.591590 0.908400 0.385310 -0.627086
O7    O     O_R   0.091590 0.591600 0.385310 -0.634069
O8    O     O_R   0.091590 0.408400 0.385310 -0.615060
O9    O     O_R   0.408400 0.091620 0.614690 -0.618909
O10   O     O_R   0.908400 0.408380 0.614690 -0.620934
O11   O     O_R   0.908400 0.591620 0.614690 -0.607049
O12   O     O_R   0.408370 0.908370 0.385350 -0.619837
O13   O     O_R   0.408370 0.091630 0.385350 -0.617968
O14   O     O_R   0.908370 0.408370 0.385350 -0.616201
O15   O     O_R   0.908370 0.591630 0.385350 -0.625467
O16   O     O_R   0.591610 0.091610 0.614650 -0.627270
Zn1   Zn    Zn3+2 0.500010 1.000000 0.653130 0.953937
Zn2   Zn    Zn3+2 0.000010 0.500000 0.653130 0.962813
Zn3   Zn    Zn3+2 0.499980 0.000000 0.346870 0.934662
Zn4   Zn    Zn3+2 0.999980 0.500000 0.346870 0.933880

loop_
_geom_bond_atom_site_label_1
_geom_bond_atom_site_label_2
_ccdc_geom_bond_type
C48   C55   S    
O15   Zn4   S    
C12   O9    A    
O1    Zn1   S    
C11   H51   S    
C52   N9    S    
C57   H21   S    
C4    N3    A    
C20   C56   S    
C52   H41   S    
C27   C33   A    
C29   H23   S    
O4    Zn2   S    
H38   N9    S    
C45   H18   S    
H25   N6    S    
C38   C42   A    
C53   N10   S    
C18   C42   A    
C20   C40   A    
C17   O4    A    
C20   C25   A    
C53   H46   S    
C12   C22   S    
C52   H39   S    
C56   H20   S    
O5    Zn3   S    
C23   C26   S    
C2    C13   S    
C47   H11   S    
O14   Zn4   S    
O2    Zn1   S    
C46   H10   S    
C50   H32   S    
C14   O16   A    
C28   C35   A    
C53   H43   S    
C12   O13   A    
C58   N1    A    
C9    N9    S    
C31   H54   S    
C11   C58   S    
O6    Zn3   S    
C6    N5    A    
C10   N2    S    
C50   H30   S    
C25   C34   S    
C17   C38   S    
N4    Zn1   S    
C17   O8    A    
N3    Zn4   S    
O3    Zn2   S    
C45   H14   S    
H33   N8    S    
C3    H22   S    
C21   C26   A    
C19   C43   A    
C8    N5    A    
C45   C47   S    
C44   H5    S    
C25   C29   A    
C28   H12   S    
C56   H16   S    
C15   O2    A    
C54   H48   S    
C50   N7    S    
C49   H27   S    
H47   N2    S    
C36   C40   A    
C30   H34   S    
C3    N1    A    
C39   C43   A    
O7    Zn4   S    
C51   H36   S    
C34   O11   A    
C3    C5    A    
C46   C57   S    
C14   O5    A    
C46   H6    S    
C7    N4    A    
C35   C39   A    
C1    O1    A    
H29   N7    S    
C13   H52   S    
C2    N3    A    
C44   C56   S    
C50   H31   S    
C49   N6    S    
C40   C44   S    
C53   H44   S    
C41   C46   S    
C51   N8    S    
C32   C37   A    
C16   O7    A    
C9    C11   S    
C51   H35   S    
C21   C41   A    
C54   H49   S    
C16   O3    A    
C4    C6    A    
C26   C30   A    
C15   O6    A    
C5    N4    A    
N5    Zn2   S    
C32   H2    S    
C48   H13   S    
C1    O12   A    
C18   C45   S    
C15   C36   S    
C49   H26   S    
C43   C48   S    
C19   C55   S    
C7    C9    S    
C7    C58   A    
C6    N7    S    
C18   C22   A    
C49   H28   S    
C8    C10   S    
C2    C8    A    
C24   C28   A    
C10   N10   S    
C10   C13   S    
O10   Zn2   S    
C21   C57   S    
C34   O15   A    
C33   C38   A    
C54   H50   S    
C5    N6    S    
C22   C27   A    
C57   H17   S    
C19   C24   A    
C29   C31   A    
C27   H1    S    
C1    C24   S    
O12   Zn3   S    
C30   C32   A    
C23   O14   A    
C33   H3    S    
C55   H19   S    
C54   N2    S    
C52   H40   S    
N1    Zn3   S    
C23   O10   A    
C35   H4    S    
H42   N10   S    
C42   C47   S    
C37   C41   A    
O8    Zn4   S    
O9    Zn1   S    
O16   Zn1   S    
C16   C39   S    
C55   H15   S    
O13   Zn3   S    
C4    H24   S    
O11   Zn2   S    
C13   H53   S    
C9    N8    S    
C31   C36   A    
C44   H9    S    
C11   H45   S    
C48   H8    S    
C47   H7    S    
C51   H37   S    
C14   C37   S    
