data_mof_unit_32217.cif
_audit_creation_date              2012-12-10T20:34:13-0500
_audit_creation_method            fapswitch 2.2
_symmetry_space_group_name_H-M    P1
_symmetry_Int_Tables_number       1
_space_group_crystal_system       triclinic
_cell_length_a                    9.954463
_cell_length_b                    10.679596
_cell_length_c                    13.658881
_cell_angle_alpha                 92.140405
_cell_angle_beta                  83.668916
_cell_angle_gamma                 89.338647
_cell_volume                      1442.02875958

loop_
_atom_site_label
_atom_site_type_symbol
_atom_type_description
_atom_site_fract_x
_atom_site_fract_y
_atom_site_fract_z
_atom_type_partial_charge
C1    C     C_R   0.501063 0.739119 0.490548 0.892704
C2    C     C_3   0.248869 0.925814 0.529211 -0.038774
C3    C     C_R   0.916318 0.535609 0.582705 0.146178
C4    C     C_R   0.476439 0.500908 0.685150 0.916061
C5    C     C_R   0.940229 0.444474 0.423548 0.179511
C6    C     C_R   0.084612 0.448490 0.422143 -0.025894
C7    C     C_R   0.057494 0.530122 0.584486 0.110258
C8    C     C_3   0.054952 0.646724 0.649177 -0.062136
C9    C     C_3   0.902867 0.658286 0.639870 -0.065026
C10   C     C_R   0.500865 0.259868 0.496554 0.902574
C11   C     C_R   0.523511 0.498139 0.314880 0.880912
C12   C     C_1   0.459518 0.509007 0.788297 -0.177386
C13   C     C_1   0.539321 0.488376 0.211880 -0.129140
C14   C     C_2   0.545182 0.471234 0.021222 0.179082
C15   C     C_2   0.442607 0.524866 0.979660 -0.005986
C16   C     C_1   0.447776 0.517173 0.875638 -0.088123
C17   C     C_1   0.546305 0.479461 0.124702 0.079563
C18   C     C_2   0.323842 0.594019 0.033218 0.418884
C19   C     C_2   0.171406 0.388557 0.338460 0.489211
C20   C     C_3   0.093938 0.622844 0.752746 -0.820053
C21   C     C_3   0.806229 0.656987 0.735282 -0.770753
C22   C     C_3   0.662483 0.402614 0.961758 -0.886335
C23   C     C_R   0.382127 0.936195 0.467872 0.047533
C24   C     C_3   0.757583 0.866545 0.399707 -0.836554
C25   C     C_2   0.269148 0.108783 0.651222 0.374718
C26   C     C_3   0.136465 0.143794 0.506267 -0.960787
C27   C     C_3   0.141558 0.873589 0.466083 -0.870139
C28   C     C_3   0.880478 0.371771 0.342398 -0.741526
C29   C     C_R   0.503748 0.868950 0.464427 -0.125964
C30   C     C_R   0.625961 0.932671 0.436392 0.181254
C31   C     C_R   0.624092 0.063542 0.444925 -0.220002
C32   C     C_R   0.502666 0.127798 0.476876 -0.127111
C33   C     C_R   0.381509 0.063912 0.477772 0.069804
C34   C     C_3   0.251109 0.069291 0.545688 0.167048
H1    H     H_    0.113722 0.722171 0.614166 0.167471
H2    H     H_    0.702009 0.678095 0.719011 0.249709
H3    H     H_    0.808968 0.564985 0.770140 0.240875
H4    H     H_    0.832178 0.732272 0.787789 0.231494
H5    H     H_    0.730719 0.359028 0.010447 0.239470
H6    H     H_    0.624852 0.326941 0.914376 0.258076
H7    H     H_    0.722228 0.469314 0.915067 0.238912
H8    H     H_    0.803840 0.827076 0.461927 0.241814
H9    H     H_    0.740159 0.790918 0.344705 0.250534
H10   H     H_    0.831392 0.931911 0.363044 0.223375
H11   H     H_    0.194931 0.170459 0.693433 0.087949
H12   H     H_    0.879701 0.736879 0.593395 0.141375
H13   H     H_    0.140458 0.133459 0.424838 0.242141
H14   H     H_    0.036760 0.112117 0.540235 0.247892
H15   H     H_    0.143661 0.244516 0.526635 0.244636
H16   H     H_    0.144053 0.920038 0.394531 0.263759
H17   H     H_    0.159949 0.772091 0.449035 0.266118
H18   H     H_    0.039464 0.886442 0.506978 0.225251
H19   H     H_    0.783423 0.330682 0.368746 0.253094
H20   H     H_    0.869509 0.432938 0.279741 0.257336
H21   H     H_    0.944006 0.288795 0.315645 0.197664
H22   H     H_    0.717732 0.114007 0.431359 0.163350
H23   H     H_    0.258026 0.873966 0.597185 0.165097
H24   H     H_    0.246671 0.630959 0.991330 0.064834
H25   H     H_    0.250183 0.322576 0.351687 0.081366
H26   H     H_    0.051003 0.534143 0.781548 0.244628
H27   H     H_    0.204910 0.618645 0.751384 0.252325
H28   H     H_    0.058687 0.702152 0.804283 0.235781
N1    N     N_R   0.857130 0.500860 0.500650 -0.129696
N2    N     N_R   0.142770 0.500820 0.500650 -0.183219
O1    O     O_R   0.385310 0.683210 0.499990 -0.620715
O2    O     O_2   0.156346 0.413048 0.253705 -0.546013
O3    O     O_2   0.365249 0.070648 0.690719 -0.594726
O4    O     O_R   0.614650 0.683240 0.500000 -0.610807
O5    O     O_R   0.368820 0.499950 0.640340 -0.611727
O6    O     O_R   0.598170 0.499990 0.640350 -0.600425
O7    O     O_R   0.385350 0.316760 0.500000 -0.645347
O8    O     O_R   0.614690 0.316790 0.500010 -0.630078
O9    O     O_R   0.401830 0.500010 0.359650 -0.596859
O10   O     O_R   0.631180 0.500050 0.359660 -0.635219
O11   O     O_2   0.309876 0.611451 0.122592 -0.531584
Zn1   Zn    Zn3+2 0.346870 0.499980 0.499990 0.939444
Zn2   Zn    Zn3+2 0.653130 0.500020 0.500010 0.937040

loop_
_geom_bond_atom_site_label_1
_geom_bond_atom_site_label_2
_ccdc_geom_bond_type
C15   C18   S    
C18   O11   D    
C24   H8    S    
C25   O3    D    
C4    O6    A    
C2    H23   S    
C7    C8    S    
C21   H2    S    
C6    C19   S    
C8    C20   S    
O1    Zn1   S    
O5    Zn1   S    
C23   C29   A    
C3    C7    A    
C5    C6    A    
C22   H7    S    
C15   C16   S    
C1    O4    A    
C5    N1    A    
C19   O2    D    
C6    N2    A    
C20   H27   S    
O8    Zn2   S    
C26   C34   S    
C21   H4    S    
C12   C16   T    
C8    C9    S    
C23   C33   A    
O10   Zn2   S    
C1    O1    A    
C2    C27   S    
C31   H22   S    
C20   H26   S    
C27   H16   S    
C26   H14   S    
C25   C34   S    
C10   O7    A    
C2    C34   S    
C9    H12   S    
O6    Zn2   S    
C14   C17   S    
C4    O5    A    
C28   H21   S    
C27   H17   S    
C11   O9    A    
C26   H15   S    
C28   H20   S    
C19   H25   S    
C8    H1    S    
C29   C30   A    
C3    C9    S    
C5    C28   S    
C31   C32   A    
C30   C31   A    
C22   H6    S    
C1    C29   S    
C33   C34   S    
N2    Zn1   S    
C26   H13   S    
C24   H10   S    
O9    Zn1   S    
C4    C12   S    
C25   H11   S    
C27   H18   S    
N1    Zn2   S    
O4    Zn2   S    
C11   O10   A    
C28   H19   S    
C3    N1    A    
C13   C17   T    
C32   C33   A    
C14   C22   S    
C11   C13   S    
C9    C21   S    
O7    Zn1   S    
C22   H5    S    
C18   H24   S    
C20   H28   S    
C24   C30   S    
C7    N2    A    
C10   C32   S    
C21   H3    S    
C2    C23   S    
C24   H9    S    
C14   C15   D    
C10   O8    A    
