data_mof_unit_24848.cif
_audit_creation_date              2012-12-10T18:06:41-0500
_audit_creation_method            fapswitch 2.2
_symmetry_space_group_name_H-M    P1
_symmetry_Int_Tables_number       1
_space_group_crystal_system       triclinic
_cell_length_a                    12.596623
_cell_length_b                    13.037944
_cell_length_c                    15.401025
_cell_angle_alpha                 85.305776
_cell_angle_beta                  98.952899
_cell_angle_gamma                 98.118489
_cell_volume                      2468.87793577

loop_
_atom_site_label
_atom_site_type_symbol
_atom_type_description
_atom_site_fract_x
_atom_site_fract_y
_atom_site_fract_z
_atom_type_partial_charge
C1    C     C_R   0.442316 0.307684 0.509780 0.981748
C2    C     C_R   0.416069 0.441545 0.101461 0.113920
C3    C     C_R   0.308709 0.458558 0.066891 -0.072649
C4    C     C_R   0.483007 0.407919 0.046521 -0.053144
C5    C     C_R   0.452608 0.420771 0.954576 -0.114706
C6    C     C_R   0.342840 0.431736 0.921192 0.666643
C7    C     C_R   0.271448 0.447682 0.977675 -0.166677
C8    C     C_R   0.578307 0.361685 0.078643 0.377242
C9    C     C_R   0.650901 0.348806 0.022177 -0.166211
C10   C     C_R   0.632274 0.382580 0.933492 -0.022055
C11   C     C_R   0.533012 0.420843 0.899887 0.049240
C12   C     C_R   0.434555 0.510007 0.335779 0.916352
C13   C     C_R   0.709612 0.378153 0.877017 0.431164
C14   C     C_R   0.688621 0.413645 0.788941 -0.160009
C15   C     C_R   0.519738 0.465123 0.814166 -0.095664
C16   C     C_R   0.619186 0.935274 0.354193 -0.119418
C17   C     C_R   0.583337 0.801509 0.467476 -0.176661
C18   C     C_R   0.338699 0.155322 0.582322 0.313349
C19   C     C_R   0.315219 0.048423 0.596487 -0.226126
C20   C     C_R   0.366075 0.982099 0.555500 0.713151
C21   C     C_R   0.441519 0.022955 0.498202 -0.123637
C22   C     C_R   0.445165 0.128239 0.468249 -0.184362
C23   C     C_R   0.556617 0.691929 0.489190 0.953880
C24   C     C_R   0.510293 0.962558 0.466654 -0.033905
C25   C     C_R   0.558467 0.998561 0.390607 -0.029569
C26   C     C_R   0.543546 0.096236 0.351106 -0.221603
C27   C     C_R   0.488779 0.161562 0.389720 0.700036
C28   C     C_R   0.535904 0.868940 0.510003 0.689719
C29   C     C_R   0.628303 0.835173 0.390890 -0.255028
C30   C     C_R   0.404543 0.196355 0.517693 -0.183773
C31   C     C_R   0.150910 0.576097 0.664735 0.600019
C32   C     C_R   0.753132 0.389749 0.386076 -0.021629
C33   C     C_R   0.843708 0.351007 0.367808 -0.244798
C34   C     C_R   0.563511 0.485026 0.664053 0.947314
C35   C     C_R   0.943631 0.375719 0.419578 0.425962
C36   C     C_R   0.952642 0.443922 0.488578 -0.051472
C37   C     C_R   0.856391 0.474626 0.509445 0.040879
C38   C     C_R   0.052307 0.487115 0.536172 -0.101992
C39   C     C_R   0.053649 0.526339 0.620098 -0.236028
C40   C     C_R   0.955350 0.526417 0.651130 0.410205
C41   C     C_R   0.863131 0.526038 0.588619 0.282901
C42   C     C_R   0.148807 0.502570 0.499819 -0.036624
C43   C     C_R   0.242470 0.590094 0.624238 0.722585
C44   C     C_R   0.390098 0.498719 0.242448 -0.202544
C45   C     C_R   0.593958 0.457987 0.757607 -0.159480
C46   C     C_R   0.241120 0.488900 0.121578 -0.180040
C47   C     C_R   0.280814 0.507384 0.209369 0.658770
C48   C     C_R   0.456974 0.469280 0.187105 -0.178671
H1    H     H_    0.188175 0.456342 0.950748 0.225111
H2    H     H_    0.664898 0.782643 0.357147 0.193042
H3    H     H_    0.576011 0.122238 0.291016 0.223903
H4    H     H_    0.654338 0.961094 0.294974 0.179721
H5    H     H_    0.259581 0.016325 0.641724 0.227292
H6    H     H_    0.452147 0.507480 0.790878 0.251718
H7    H     H_    0.153830 0.479092 0.435362 0.243412
H8    H     H_    0.675100 0.367507 0.348143 0.235426
H9    H     H_    0.835098 0.298305 0.315591 0.219537
H10   H     H_    0.745826 0.405631 0.745031 0.206750
H11   H     H_    0.722353 0.312793 0.048777 0.229286
H12   H     H_    0.157959 0.499538 0.096081 0.197889
H13   H     H_    0.542622 0.471900 0.210304 0.213889
N1    N     N_R   0.239390 0.551900 0.544730 -0.211080
N2    N     N_R   0.759950 0.448600 0.455730 -0.115916
O1    O     O_R   0.374950 0.371210 0.521360 -0.562399
O2    O     O_R   0.542050 0.338030 0.492790 -0.599618
O3    O     O_R   0.368720 0.526070 0.390200 -0.566560
O4    O     O_R   0.535820 0.492890 0.361630 -0.616696
O5    O     O_R   0.457950 0.661970 0.507210 -0.538183
O6    O     O_R   0.625050 0.628790 0.478640 -0.570535
O7    O     O_R   0.464180 0.507110 0.638370 -0.555029
O8    O     O_R   0.631280 0.473930 0.609800 -0.605406
Zn1   Zn    Zn3+2 0.388420 0.522150 0.519080 1.123727
Zn2   Zn    Zn3+2 0.611580 0.477850 0.480920 1.019597
Cl1   Cl    Cl    0.832889 0.327721 0.912831 -0.519362
F1    F     F_    0.517041 0.841906 0.593943 -0.571430
Cl2   Cl    Cl    0.285451 0.233034 0.649264 -0.474100
F2    F     F_    0.332686 0.878753 0.565589 -0.578154
F3    F     F_    0.471208 0.253828 0.346185 -0.645432
F4    F     F_    0.336374 0.639205 0.665775 -0.553626
Cl3   Cl    Cl    0.947043 0.554677 0.760447 -0.397132
F5    F     F_    0.157940 0.616785 0.744044 -0.543886
Cl4   Cl    Cl    0.046476 0.302049 0.405653 -0.534720
Cl5   Cl    Cl    0.801444 0.636644 0.594874 -0.488428
F6    F     F_    0.212670 0.535231 0.260784 -0.638212
F7    F     F_    0.301065 0.418598 0.835496 -0.619243
Cl6   Cl    Cl    0.600596 0.297711 0.183309 -0.661754

loop_
_geom_bond_atom_site_label_1
_geom_bond_atom_site_label_2
_ccdc_geom_bond_type
C17   C29   A    
C23   O6    A    
C19   C20   A    
C4    C8    A    
C27   F3    S    
C26   C27   A    
C17   C23   S    
C6    F7    S    
C31   C43   A    
C20   F2    S    
C36   C37   A    
C5    C11   A    
C3    C7    A    
C5    C6    A    
C43   F4    S    
C41   Cl5   S    
O2    Zn2   S    
C18   C19   A    
C11   C15   A    
O3    Zn1   S    
C35   C36   A    
C8    C9    A    
C1    O2    A    
C40   Cl3   S    
O6    Zn2   S    
C18   C30   A    
C9    C10   A    
C42   N1    A    
C44   C47   A    
C19   H5    S    
C13   C14   A    
C37   N2    A    
C35   Cl4   S    
C14   C45   A    
C29   H2    S    
C14   H10   S    
C12   O4    A    
C15   H6    S    
C16   H4    S    
C24   C25   A    
C7    H1    S    
C39   C40   A    
O8    Zn2   S    
N2    Zn2   S    
C2    C48   A    
C25   C26   A    
C12   O3    A    
C9    H11   S    
C23   O5    A    
C2    C4    A    
C42   H7    S    
O5    Zn1   S    
N1    Zn1   S    
C34   C45   S    
C47   F6    S    
C20   C21   A    
O4    Zn2   S    
C40   C41   A    
C22   C27   A    
C15   C45   A    
C1    O1    A    
C16   C25   A    
C34   O7    A    
C46   C47   A    
C33   H9    S    
C22   C30   A    
C46   H12   S    
C17   C28   A    
C24   C28   A    
C32   N2    A    
C4    C5    A    
C10   C13   A    
C38   C42   A    
C6    C7    A    
C3    C46   A    
C31   F5    S    
C32   C33   A    
C36   C38   A    
C2    C3    A    
C16   C29   A    
C12   C44   S    
C26   H3    S    
C48   H13   S    
C38   C39   A    
C1    C30   S    
C33   C35   A    
C31   C39   A    
C8    Cl6   S    
O1    Zn1   S    
C37   C41   A    
C10   C11   A    
C13   Cl1   S    
C21   C24   A    
O7    Zn1   S    
C21   C22   A    
C28   F1    S    
C34   O8    A    
C32   H8    S    
C44   C48   A    
C43   N1    A    
C18   Cl2   S    
