data_mof_unit_60916.cif
_audit_creation_date              2012-12-11T17:24:07-0500
_audit_creation_method            fapswitch 2.2
_symmetry_space_group_name_H-M    P1
_symmetry_Int_Tables_number       1
_space_group_crystal_system       triclinic
_cell_length_a                    22.936583
_cell_length_b                    7.200748
_cell_length_c                    20.791532
_cell_angle_alpha                 89.99953
_cell_angle_beta                  93.751142
_cell_angle_gamma                 89.999679
_cell_volume                      3426.58413856

loop_
_atom_site_label
_atom_site_type_symbol
_atom_type_description
_atom_site_fract_x
_atom_site_fract_y
_atom_site_fract_z
_atom_type_partial_charge
O1    O     O_R   0.307200 0.614510 0.194080 -0.531860
O2    O     O_R   0.692800 0.385490 0.805920 -0.530717
O3    O     O_R   0.192800 0.114510 0.305920 -0.531868
O4    O     O_R   0.807200 0.885490 0.694080 -0.530717
O5    O     O_R   0.188140 0.283260 0.181690 -0.541591
O6    O     O_R   0.811860 0.716740 0.818310 -0.537413
O7    O     O_R   0.311860 0.783260 0.318310 -0.541593
O8    O     O_R   0.688140 0.216740 0.681690 -0.537414
C1    C     C_R   0.168367 0.453359 0.165906 0.692569
C2    C     C_R   0.831678 0.546625 0.834049 0.685784
C3    C     C_R   0.331634 0.953357 0.334093 0.692579
C4    C     C_R   0.668321 0.046627 0.665952 0.685785
O9    O     O_R   0.306460 0.284700 0.186400 -0.528871
O10   O     O_R   0.693540 0.715300 0.813600 -0.531314
O11   O     O_R   0.193540 0.784700 0.313600 -0.528871
O12   O     O_R   0.806460 0.215300 0.686400 -0.531312
O13   O     O_R   0.311970 0.115840 0.310660 -0.537327
O14   O     O_R   0.688030 0.884160 0.689340 -0.536638
O15   O     O_R   0.188030 0.615840 0.189340 -0.537327
O16   O     O_R   0.811970 0.384160 0.810660 -0.536641
C5    C     C_R   0.325257 0.453306 0.171628 0.707410
C6    C     C_R   0.674638 0.546726 0.828239 0.705909
C7    C     C_R   0.174743 0.953306 0.328372 0.707381
C8    C     C_R   0.825362 0.046726 0.671761 0.705909
O17   O     O_3   0.251670 0.448440 0.290760 -0.373186
O18   O     O_3   0.748330 0.551560 0.709240 -0.372580
O19   O     O_3   0.248330 0.948440 0.209240 -0.373175
O20   O     O_3   0.751670 0.051560 0.790760 -0.372582
V1    V     V_3+5 0.249690 0.173030 0.242440 1.442957
V2    V     V_3+5 0.750310 0.826970 0.757560 1.455733
V3    V     V_3+5 0.250310 0.673030 0.257560 1.442965
V4    V     V_3+5 0.749690 0.326970 0.742440 1.455735
H1    H     H_    0.072461 0.254617 0.492400 0.185281
H2    H     H_    0.928682 0.744834 0.509082 0.184637
H3    H     H_    0.427543 0.754629 0.007605 0.185287
H4    H     H_    0.571317 0.244828 0.990917 0.184645
C9    C     C_R   0.996987 0.158828 0.539344 0.303941
C10   C     C_R   0.004190 0.840526 0.462201 0.312879
C11   C     C_R   0.503016 0.658837 0.960660 0.303939
C12   C     C_R   0.495810 0.340523 0.037799 0.312880
C13   C     C_R   0.955829 0.015114 0.544448 0.003434
C14   C     C_R   0.045272 0.984411 0.456972 0.000333
C15   C     C_R   0.544173 0.515116 0.955554 0.003434
C16   C     C_R   0.454729 0.484413 0.043029 0.000323
C17   C     C_R   0.959955 0.856606 0.505648 -0.182612
C18   C     C_R   0.041212 0.142795 0.495865 -0.181991
C19   C     C_R   0.540045 0.356604 0.994352 -0.182605
C20   C     C_R   0.458791 0.642803 0.004139 -0.181993
C21   C     C_1   0.909475 0.027743 0.589114 0.058031
C22   C     C_1   0.091320 0.972236 0.411891 0.064924
C23   C     C_1   0.590526 0.527744 0.910887 0.058028
C24   C     C_1   0.408680 0.472237 0.088110 0.064914
C25   C     C_1   0.129500 0.962794 0.374047 -0.140799
C26   C     C_1   0.870962 0.037310 0.626534 -0.150263
C27   C     C_1   0.370500 0.462795 0.125953 -0.140763
C28   C     C_1   0.629039 0.537309 0.873467 -0.150260
C29   C     C_R   0.424841 0.100141 0.377292 -0.162681
C30   C     C_R   0.575914 0.896659 0.621787 -0.135429
C31   C     C_R   0.075162 0.600151 0.122703 -0.162817
C32   C     C_R   0.924077 0.396629 0.878223 -0.135430
C33   C     C_R   0.381559 0.964388 0.383044 -0.106299
C34   C     C_R   0.618407 0.035340 0.616953 -0.106119
C35   C     C_R   0.118442 0.464393 0.116954 -0.106275
C36   C     C_R   0.881590 0.535330 0.883050 -0.106118
C37   C     C_R   0.386147 0.841205 0.435434 -0.181569
C38   C     C_R   0.613245 0.160307 0.565133 -0.143358
C39   C     C_R   0.113851 0.341191 0.064570 -0.181401
C40   C     C_R   0.886753 0.660306 0.934867 -0.143324
C41   C     C_R   0.433152 0.853719 0.482476 -0.031691
C42   C     C_R   0.567035 0.144567 0.517231 -0.010564
C43   C     C_R   0.066840 0.353685 0.017535 -0.031776
C44   C     C_R   0.932962 0.644557 0.982771 -0.010521
C45   C     C_R   0.476666 0.991017 0.476133 -0.074022
C46   C     C_R   0.523892 0.006112 0.523118 -0.065209
C47   C     C_R   0.023329 0.490994 0.023873 -0.074024
C48   C     C_R   0.976101 0.506087 0.976890 -0.065160
C49   C     C_R   0.472683 0.114069 0.422984 -0.025721
C50   C     C_R   0.527989 0.883025 0.576161 -0.005392
C51   C     C_R   0.027316 0.614066 0.077015 -0.025702
C52   C     C_R   0.972001 0.382988 0.923851 -0.005440
C53   C     C_R   0.437060 0.732773 0.536032 0.292252
C54   C     C_R   0.563897 0.262508 0.462936 0.295739
C55   C     C_R   0.062925 0.232714 0.963987 0.292141
C56   C     C_R   0.936102 0.762508 0.037062 0.295646
C57   C     C_R   0.483708 0.750055 0.583343 0.307366
C58   C     C_R   0.516341 0.249737 0.416551 0.291239
C59   C     C_R   0.016276 0.249995 0.916677 0.307477
C60   C     C_R   0.983660 0.749741 0.083446 0.291242
H5    H     H_    0.421346 0.193684 0.336405 0.162076
H6    H     H_    0.579830 0.801388 0.662187 0.157919
H7    H     H_    0.078660 0.693706 0.163586 0.162113
H8    H     H_    0.920160 0.301349 0.837827 0.157917
H9    H     H_    0.352462 0.737333 0.439777 0.160112
H10   H     H_    0.646318 0.266521 0.561427 0.157115
H11   H     H_    0.147535 0.237316 0.060228 0.160025
H12   H     H_    0.853684 0.766533 0.938569 0.157114
Br1   Br    Br    0.994282 0.379303 0.590878 -0.575832
Br2   Br    Br    0.006898 0.619903 0.410745 -0.538371
Br3   Br    Br    0.505726 0.879322 0.909131 -0.575859
Br4   Br    Br    0.493100 0.119895 0.089253 -0.538382
O21   O     O_3   0.391709 0.612133 0.546549 -0.550601
C61   C     C_3   0.406655 0.432097 0.526555 0.116202
H13   H     H_    0.450489 0.387777 0.547342 0.150407
H14   H     H_    0.405917 0.426142 0.473154 0.096714
C62   C     C_3   0.361636 0.295520 0.548855 -0.665359
H15   H     H_    0.317472 0.333123 0.527769 0.221336
H16   H     H_    0.372251 0.153061 0.533225 0.186093
H17   H     H_    0.361557 0.297902 0.602263 0.224337
O22   O     O_3   0.606054 0.397280 0.456245 -0.551357
C63   C     C_3   0.649442 0.324883 0.418163 0.116133
H18   H     H_    0.630836 0.289246 0.368883 0.164630
H19   H     H_    0.670145 0.198909 0.440898 0.105514
C64   C     C_3   0.696633 0.470823 0.411867 -0.688083
H20   H     H_    0.716681 0.507577 0.460276 0.221519
H21   H     H_    0.731104 0.415856 0.381946 0.184343
H22   H     H_    0.677427 0.597592 0.388564 0.225353
O23   O     O_3   0.108268 0.112046 0.953470 -0.550638
C65   C     C_3   0.093311 0.931987 0.973438 0.116394
H23   H     H_    0.049320 0.888082 0.952987 0.149928
H24   H     H_    0.094417 0.925723 0.026854 0.096992
C66   C     C_3   0.138038 0.795198 0.950632 -0.664987
H25   H     H_    0.182366 0.832416 0.971330 0.221404
H26   H     H_    0.127454 0.652742 0.966294 0.185936
H27   H     H_    0.137704 0.797798 0.897195 0.224232
O24   O     O_3   0.893946 0.897284 0.043752 -0.551379
C67   C     C_3   0.850557 0.824891 0.081834 0.116130
H28   H     H_    0.869162 0.789278 0.131117 0.164639
H29   H     H_    0.829860 0.698905 0.059104 0.105521
C68   C     C_3   0.803361 0.970822 0.088118 -0.688084
H30   H     H_    0.783317 0.007554 0.039705 0.221515
H31   H     H_    0.768890 0.915855 0.118037 0.184345
H32   H     H_    0.822562 0.097602 0.111416 0.225381
O25   O     O_3   0.487092 0.630074 0.635454 -0.553224
C69   C     C_3   0.456103 0.708075 0.685346 0.093884
H33   H     H_    0.408501 0.714309 0.671085 0.161842
H34   H     H_    0.472175 0.850398 0.698086 0.122236
C70   C     C_3   0.464880 0.586832 0.745114 -0.637535
H35   H     H_    0.511992 0.581142 0.761252 0.224341
H36   H     H_    0.440194 0.645412 0.784592 0.206639
H37   H     H_    0.448912 0.443867 0.734285 0.221256
O26   O     O_3   0.516474 0.356023 0.361091 -0.546494
C71   C     C_3   0.493380 0.533342 0.373048 0.100338
H38   H     H_    0.514175 0.597822 0.417581 0.148546
H39   H     H_    0.445411 0.523784 0.377198 0.102327
C72   C     C_3   0.504406 0.659649 0.316519 -0.623463
H40   H     H_    0.482717 0.602475 0.271450 0.222544
H41   H     H_    0.486677 0.800093 0.324981 0.185096
H42   H     H_    0.552100 0.671264 0.310943 0.226276
O27   O     O_3   0.012885 0.129981 0.864575 -0.553151
C73   C     C_3   0.043877 0.207929 0.814677 0.093916
H43   H     H_    0.091478 0.214177 0.828940 0.161834
H44   H     H_    0.027805 0.350240 0.801918 0.122213
C74   C     C_3   0.035104 0.086624 0.754924 -0.637571
H45   H     H_    0.987994 0.080911 0.738785 0.224337
H46   H     H_    0.059790 0.145169 0.715440 0.206625
H47   H     H_    0.051077 0.943673 0.765772 0.221203
O28   O     O_3   0.983532 0.856036 0.138902 -0.546472
C75   C     C_3   0.006639 0.033328 0.126937 0.100260
H48   H     H_    0.985745 0.097958 0.082481 0.148720
H49   H     H_    0.054585 0.023688 0.122633 0.102191
C76   C     C_3   0.995784 0.159497 0.183554 -0.623464
H50   H     H_    0.017577 0.102165 0.228543 0.222447
H51   H     H_    0.013511 0.299935 0.175082 0.185093
H52   H     H_    0.948116 0.171175 0.189286 0.226340

loop_
_geom_bond_atom_site_label_1
_geom_bond_atom_site_label_2
_ccdc_geom_bond_type
O17   V3    S    
C12   C19   A    
C55   C59   A    
C30   C34   A    
C67   H28   S    
O19   V1    S    
O23   C65   S    
O13   V1    S    
C45   C46   A    
O3    C7    A    
C10   Br2   S    
O15   V3    S    
C76   H52   S    
C69   C70   S    
C9    Br1   S    
C76   H50   S    
C53   O21   S    
O1    C5    A    
C62   H16   S    
C12   Br4   S    
C40   H12   S    
C29   H5    S    
H4    C19   S    
C36   C40   A    
O9    V1    S    
C10   C14   A    
C52   C59   A    
O4    C8    A    
C8    C26   S    
C21   C26   T    
O1    V3    S    
C61   C62   S    
O2    V4    S    
C23   C28   T    
C14   C18   A    
O3    V1    S    
C45   C49   A    
C42   C46   A    
C10   C17   A    
C75   C76   S    
C76   H51   S    
C65   H23   S    
C1    O15   A    
O28   C75   S    
C3    O13   A    
C74   H45   S    
C2    O16   A    
C66   H27   S    
C73   C74   S    
O2    C6    A    
C41   C45   A    
O14   V2    S    
C74   H46   S    
C70   H36   S    
C43   C55   A    
C24   C27   T    
C44   C48   A    
C38   H10   S    
C64   H22   S    
C16   C24   S    
O11   C7    A    
C70   H35   S    
C71   H39   S    
O12   C8    A    
C75   H49   S    
H1    C18   S    
C71   C72   S    
O10   V2    S    
H3    C20   S    
C13   C21   S    
C51   C60   A    
C72   H41   S    
C72   H40   S    
O5    V1    S    
C32   H8    S    
C70   H37   S    
C35   C39   A    
C22   C25   T    
O7    V3    S    
C34   C38   A    
O8    V4    S    
O21   C61   S    
C29   C49   A    
O22   C63   S    
C31   C51   A    
C5    C27   S    
O18   V4    S    
C11   C15   A    
C67   C68   S    
C54   C58   A    
O11   V3    S    
O10   C6    A    
O4    V2    S    
C63   H18   S    
C40   C44   A    
C65   C66   S    
C56   C60   A    
O7    C3    A    
C47   C48   A    
C54   O22   S    
O5    C1    A    
O25   C69   S    
C4    C34   S    
C11   Br3   S    
O8    C4    A    
O9    C5    A    
H2    C17   S    
C31   H7    S    
C60   O28   S    
C74   H47   S    
C61   H14   S    
C30   H6    S    
C63   C64   S    
C66   H25   S    
C44   C56   A    
C14   C22   S    
C65   H24   S    
C50   C57   A    
O6    V2    S    
C39   H11   S    
C49   C58   A    
C46   C50   A    
O24   C67   S    
C73   H44   S    
C72   H42   S    
C64   H20   S    
O16   V4    S    
C56   O24   S    
C32   C52   A    
C67   H29   S    
C1    C35   S    
C2    C36   S    
C48   C52   A    
C3    C33   S    
O6    C2    A    
C6    C28   S    
C29   C33   A    
C69   H33   S    
O12   V4    S    
C62   H15   S    
C38   C42   A    
C31   C35   A    
C73   H43   S    
C32   C36   A    
C68   H32   S    
O20   V2    S    
C68   H30   S    
O27   C73   S    
C43   C47   A    
C55   O23   S    
C75   H48   S    
C15   C19   A    
C15   C23   S    
C37   C41   A    
C7    C25   S    
C37   H9    S    
C69   H34   S    
C39   C43   A    
C9    C13   A    
C61   H13   S    
C42   C54   A    
C63   H19   S    
C66   H26   S    
C41   C53   A    
C30   C50   A    
C33   C37   A    
C12   C16   A    
C59   O27   S    
C4    O14   A    
C62   H17   S    
C13   C17   A    
C71   H38   S    
C64   H21   S    
C9    C18   A    
O26   C71   S    
C47   C51   A    
C53   C57   A    
C16   C20   A    
C58   O26   S    
C57   O25   S    
C11   C20   A    
C68   H31   S    
