data_mof_unit_56522.cif
_audit_creation_date              2013-03-05T15:50:09-0500
_audit_creation_method            fapswitch 2.2
_symmetry_space_group_name_H-M    P1
_symmetry_Int_Tables_number       1
_space_group_crystal_system       triclinic
_cell_length_a                    12.091818
_cell_length_b                    12.860597
_cell_length_c                    15.515436
_cell_angle_alpha                 85.773651
_cell_angle_beta                  115.49869
_cell_angle_gamma                 94.30506
_cell_volume                      2169.31742543

loop_
_atom_site_label
_atom_site_type_symbol
_atom_site_description
_atom_site_fract_x
_atom_site_fract_y
_atom_site_fract_z
_atom_type_partial_charge
O1    O     O_R   0.580150 0.341050 0.504560 -0.635627
O2    O     O_R   0.419850 0.658950 0.495440 -0.629790
O3    O     O_R   0.388090 0.353760 0.493600 -0.574569
O4    O     O_R   0.611910 0.646240 0.506400 -0.577089
C1    C     C_R   0.477455 0.299593 0.500162 0.920986
C2    C     C_R   0.522928 0.700415 0.500871 0.916684
O5    O     O_R   0.650890 0.490020 0.640860 -0.630430
O6    O     O_R   0.349110 0.509980 0.359140 -0.635165
O7    O     O_R   0.458830 0.502730 0.629890 -0.582292
O8    O     O_R   0.541170 0.497270 0.370110 -0.576219
C3    C     C_R   0.576437 0.496963 0.679930 0.884893
C4    C     C_R   0.423926 0.505302 0.319987 0.885653
Zn1   Zn    Zn3+2 0.628240 0.491510 0.507320 1.009945
Zn2   Zn    Zn3+2 0.371760 0.508490 0.492680 1.009716
C5    C     C_R   0.625636 0.503405 0.783230 -0.063669
C6    C     C_R   0.379700 0.520822 0.216846 -0.058193
C7    C     C_R   0.784251 0.475623 0.942972 -0.171401
C8    C     C_R   0.243795 0.600174 0.065485 -0.169805
C9    C     C_R   0.745105 0.475864 0.844385 -0.172966
C10   C     C_R   0.269807 0.568937 0.159998 -0.183341
C11   C     C_R   0.549152 0.537179 0.820492 -0.189549
C12   C     C_R   0.459666 0.500292 0.178081 -0.180633
C13   C     C_R   0.585392 0.536528 0.918789 0.091240
C14   C     C_R   0.442204 0.540579 0.087585 0.104946
C15   C     C_R   0.703579 0.501821 0.980441 0.149430
C16   C     C_R   0.330220 0.587859 0.029347 0.155082
C17   C     C_R   0.503041 0.560885 0.956509 0.067865
C18   C     C_R   0.532958 0.533996 0.053724 0.057545
C19   C     C_R   0.653298 0.503338 0.114282 -0.123276
C20   C     C_R   0.391274 0.609565 0.900188 -0.149877
C21   C     C_R   0.737923 0.489985 0.078221 -0.173012
C22   C     C_R   0.306980 0.623473 0.936595 -0.184239
H1    H     H_    0.828814 0.465728 0.126655 0.159985
H2    H     H_    0.222778 0.661483 0.891604 0.166996
H3    H     H_    0.537151 0.454250 0.221254 0.153015
H4    H     H_    0.458237 0.557981 0.771085 0.185363
C23   C     C_R   0.538065 0.811966 0.503917 -0.131313
C24   C     C_R   0.463271 0.187911 0.500927 -0.126029
C25   C     C_R   0.335128 0.030170 0.460682 0.304066
C26   C     C_R   0.666972 0.968887 0.549798 0.309534
C27   C     C_R   0.347052 0.137930 0.466142 -0.184826
C28   C     C_R   0.654544 0.861292 0.542640 -0.183972
C29   C     C_R   0.568811 0.131698 0.533597 -0.190592
C30   C     C_R   0.432823 0.868360 0.472698 -0.188063
C31   C     C_R   0.560179 0.025397 0.523079 0.007882
C32   C     C_R   0.441837 0.974105 0.485760 0.007820
N1    N     N_R   0.799120 0.480200 0.517090 -0.177249
N2    N     N_R   0.200880 0.519800 0.482910 -0.174237
C33   C     C_R   0.010033 0.606073 0.413360 0.280277
C34   C     C_R   0.981460 0.383267 0.572381 0.269512
C35   C     C_R   0.128452 0.592879 0.421386 -0.125234
C36   C     C_R   0.864328 0.397216 0.566471 -0.114858
C37   C     C_R   0.158304 0.454406 0.537712 0.415375
C38   C     C_R   0.845983 0.552573 0.469827 0.402116
C39   C     C_R   0.034515 0.457623 0.526354 -0.207975
C40   C     C_R   0.962186 0.539601 0.468608 -0.203424
H5    H     H_    0.823771 0.339735 0.600223 0.185041
H6    H     H_    0.163364 0.642040 0.378038 0.174035
N3    N     N_R   0.938114 0.682008 0.343304 0.245231
O9    O     O_R   0.982475 0.777453 0.344182 -0.256342
O10   O     O_R   0.845843 0.650740 0.266333 -0.376849
N4    N     N_R   0.037741 0.287383 0.616261 0.261111
O11   O     O_R   0.045125 0.256438 0.700253 -0.312149
O12   O     O_R   0.052007 0.220184 0.563569 -0.255592
H7    H     H_    0.206461 0.585203 0.189226 0.165168
H8    H     H_    0.806397 0.451434 0.816215 0.172000
H9    H     H_    0.875491 0.450829 0.989749 0.149844
H10   H     H_    0.158494 0.637255 0.021857 0.153714
H11   H     H_    0.686073 0.491449 0.190613 0.182227
H12   H     H_    0.368026 0.641054 0.828472 0.161429
H13   H     H_    0.343518 0.828722 0.438559 0.205612
H14   H     H_    0.657814 0.172070 0.566218 0.201781
H15   H     H_    0.735621 0.816397 0.566957 0.225710
H16   H     H_    0.265835 0.182478 0.443702 0.217351
N5    N     N_R   0.215433 0.979297 0.431734 0.219124
O13   O     O_R   0.197733 0.902984 0.485022 -0.318850
O14   O     O_R   0.120615 0.021679 0.363652 -0.309975
N6    N     N_R   0.787446 0.019002 0.582586 0.218111
O15   O     O_R   0.809620 0.094250 0.530518 -0.321786
O16   O     O_R   0.879405 0.976442 0.653366 -0.314377
N7    N     N_R   0.784013 0.647241 0.431297 0.235971
O17   O     O_R   0.686144 0.648714 0.350769 -0.334103
O18   O     O_R   0.835045 0.734928 0.470183 -0.339620
N8    N     N_R   0.243898 0.394211 0.616198 0.233325
O19   O     O_R   0.279346 0.306725 0.602089 -0.321703
O20   O     O_R   0.269226 0.417436 0.703143 -0.392456

loop_
_geom_bond_atom_site_label_1
_geom_bond_atom_site_label_2
_geom_bond_distance
_ccdc_geom_bond_type
C15   C21   1.389332 A    
C39   C40   1.415521 A    
C16   C22   1.390583 A    
C29   H14   1.081593 S    
C8    C16   1.404994 A    
N5    O13   1.301465 A    
N7    O17   1.299513 A    
C25   C27   1.387559 A    
C11   H4    1.075216 S    
C31   C32   1.421007 A    
O5    C3    1.294536 A    
C12   H3    1.077782 S    
C9    H8    1.083114 S    
C37   N8    1.431657 S    
O1    C1    1.289935 A    
C18   C19   1.417765 A    
C14   C16   1.417373 A    
N1    C38   1.379546 A    
N6    O16   1.301323 A    
C8    H10   1.083805 S    
O4    Zn1   2.012799 S    
C30   H13   1.082231 S    
C23   C28   1.393053 A    
N4    O12   1.301140 A    
N7    O18   1.300684 A    
C27   H16   1.083777 S    
C3    C5    1.456308 S    
N2    C35   1.353906 A    
C4    C6    1.455618 S    
C33   C35   1.405162 A    
C34   C36   1.403755 A    
C21   H1    1.084319 S    
C25   N5    1.437356 S    
C8    C10   1.394885 A    
C6    C10   1.400174 A    
C26   C28   1.388048 A    
N3    O9    1.300756 A    
C1    C24   1.433444 S    
C17   C20   1.418312 A    
O2    C2    1.288953 A    
C20   H12   1.078189 S    
C30   C32   1.379034 A    
C19   H11   1.077656 S    
C37   C39   1.433316 A    
N2    C37   1.379046 A    
C38   C40   1.435625 A    
C7    H9    1.083926 S    
N3    O10   1.299598 A    
C10   H7    1.083151 S    
N8    O19   1.298852 A    
C24   C27   1.393496 A    
O4    C2    1.294116 A    
Zn1   N1    2.021317 S    
N6    O15   1.301282 A    
Zn2   N2    2.021319 S    
O6    Zn2   1.968410 S    
C22   H2    1.084150 S    
C5    C9    1.399908 A    
O7    Zn2   1.924772 S    
N4    O11   1.301269 A    
C29   C31   1.379578 A    
C5    C11   1.391365 A    
O6    C4    1.295294 A    
C2    C23   1.434203 S    
C35   H6    1.082577 S    
N5    O14   1.301404 A    
O3    Zn2   2.012798 S    
O8    C4    1.298544 A    
C25   C32   1.415013 A    
C13   C17   1.416970 A    
O7    C3    1.298983 A    
C34   N4    1.431987 S    
C26   N6    1.437233 S    
O1    Zn1   1.976376 S    
C28   H15   1.082234 S    
C6    C12   1.388846 A    
C14   C18   1.415743 A    
N8    O20   1.301047 A    
O3    C1    1.292727 A    
O8    Zn1   1.924773 S    
N1    C36   1.354018 A    
C33   C40   1.430054 A    
C34   C39   1.427470 A    
C33   N3    1.431305 S    
C7    C15   1.403389 A    
C23   C30   1.391447 A    
C11   C13   1.393319 A    
C24   C29   1.391306 A    
C19   C21   1.386755 A    
C20   C22   1.388502 A    
C7    C9    1.392816 A    
C12   C14   1.392274 A    
C13   C15   1.418586 A    
O2    Zn2   1.976376 S    
C36   H5    1.082047 S    
O5    Zn1   1.968411 S    
C26   C31   1.415322 A    
C17   C18   1.413373 A    
C38   N7    1.430092 S    
