data_mof_unit_39977.cif
_audit_creation_date              2012-12-11T14:56:39-0500
_audit_creation_method            fapswitch 2.2
_symmetry_space_group_name_H-M    P1
_symmetry_Int_Tables_number       1
_space_group_crystal_system       triclinic
_cell_length_a                    10.632878
_cell_length_b                    10.633918
_cell_length_c                    17.037971
_cell_angle_alpha                 80.497034
_cell_angle_beta                  90.063653
_cell_angle_gamma                 119.954463
_cell_volume                      1638.75863873

loop_
_atom_site_label
_atom_site_type_symbol
_atom_type_description
_atom_site_fract_x
_atom_site_fract_y
_atom_site_fract_z
_atom_type_partial_charge
C1    C     C_R   0.221548 0.853158 0.128527 0.574741
C2    C     C_R   0.801282 0.423331 0.264929 -0.117643
C3    C     C_R   0.794880 0.406029 0.186527 0.255035
C4    C     C_R   0.658336 0.347412 0.155416 0.044438
C5    C     C_1   0.635244 0.873134 0.211403 -0.047443
C6    C     C_1   0.661887 0.857043 0.279170 -0.047340
C7    C     C_1   0.180112 0.824837 0.211198 -0.046208
C8    C     C_1   0.151459 0.819819 0.279843 -0.055002
C9    C     C_1   0.644290 0.323572 0.778179 -0.033530
C10   C     C_1   0.651640 0.345109 0.707445 -0.034209
C11   C     C_R   0.494431 0.790260 0.771819 -0.131211
C12   C     C_R   0.638162 0.281736 0.085545 0.563378
C13   C     C_R   0.509486 0.772190 0.694738 -0.121454
C14   C     C_R   0.644679 0.859889 0.649211 0.029277
C15   C     C_R   0.756654 0.981325 0.676815 -0.136740
C16   C     C_R   0.740735 0.000391 0.754371 -0.134253
C17   C     C_R   0.612600 0.897884 0.803772 0.020353
C18   C     C_R   0.077829 0.894041 0.792868 -0.116936
C19   C     C_R   0.039744 0.878561 0.716117 -0.132658
C20   C     C_R   0.047963 0.772536 0.681450 0.022609
C21   C     C_R   0.076906 0.669312 0.728180 -0.131449
C22   C     C_R   0.116761 0.685811 0.805445 -0.137381
C23   C     C_R   0.601283 0.882833 0.131098 0.563958
C24   C     C_R   0.128224 0.805598 0.835534 0.031657
C25   C     C_R   0.683415 0.813931 0.358662 0.553972
C26   C     C_R   0.689596 0.397001 0.394498 0.555158
C27   C     C_R   0.104453 0.810808 0.359301 0.561541
C28   C     C_R   0.674774 0.806474 0.582172 0.538509
C29   C     C_R   0.678822 0.382289 0.624283 0.548070
C30   C     C_R   0.027314 0.773387 0.596738 0.566927
C31   C     C_R   0.213657 0.856973 0.902658 0.552483
C32   C     C_R   0.637635 0.284828 0.861110 0.549615
C33   C     C_R   0.599305 0.896184 0.889001 0.573945
C34   C     C_R   0.533253 0.316451 0.201883 -0.177685
C35   C     C_R   0.540567 0.328226 0.281514 -0.158324
C36   C     C_R   0.673581 0.374833 0.313686 -0.009353
Cr1   Cr    Cr6+3 0.402240 0.783890 0.019450 1.006022
Cr2   Cr    Cr6+3 0.382360 0.097900 0.991800 1.015642
Cr3   Cr    Cr6+3 0.715380 0.118170 0.988700 1.018508
Cr4   Cr    Cr6+3 0.936650 0.882420 0.465510 1.010424
Cr5   Cr    Cr6+3 0.605770 0.565620 0.493360 1.025590
Cr6   Cr    Cr6+3 0.921340 0.550490 0.496380 1.013645
H1    H     H_    0.427435 0.271205 0.178849 0.146896
H2    H     H_    0.011942 0.955130 0.682224 0.125156
H3    H     H_    0.076813 0.581463 0.703798 0.136294
H4    H     H_    0.147142 0.611216 0.839302 0.120698
H5    H     H_    0.442833 0.297745 0.318199 0.139438
H6    H     H_    0.907303 0.472097 0.287802 0.145742
H7    H     H_    0.393593 0.713214 0.808410 0.126876
H8    H     H_    0.419263 0.680822 0.673835 0.138180
H9    H     H_    0.859781 0.054286 0.641025 0.122793
H10   H     H_    0.831396 0.088560 0.776985 0.135033
H11   H     H_    0.079077 0.983673 0.815911 0.141744
O1    O     O_R   0.521780 0.757110 0.108900 -0.502295
O2    O     O_R   0.513330 0.228330 0.898660 -0.493714
O3    O     O_R   0.739230 0.266130 0.888050 -0.521885
O4    O     O_R   0.712580 0.991850 0.918770 -0.495730
O5    O     O_3   0.499990 0.999980 0.999980 -0.301245
O6    O     O_R   0.083770 0.911170 0.376030 -0.505825
O7    O     O_R   0.808770 0.880340 0.383890 -0.498562
O8    O     O_R   0.584340 0.689460 0.394160 -0.506702
O9    O     O_R   0.614320 0.443940 0.423590 -0.493312
O10   O     O_R   0.805020 0.410040 0.421340 -0.527856
O11   O     O_R   0.049240 0.685450 0.403290 -0.499017
O12   O     O_R   0.275160 0.783810 0.101120 -0.516369
O13   O     O_R   0.077520 0.903010 0.551800 -0.512638
O14   O     O_R   0.802980 0.872780 0.546830 -0.527790
O15   O     O_R   0.578090 0.681300 0.569920 -0.518184
O16   O     O_R   0.608530 0.436370 0.586530 -0.494113
O17   O     O_R   0.798770 0.401880 0.597100 -0.522863
O18   O     O_R   0.043450 0.677890 0.566230 -0.503349
O19   O     O_3   0.821250 0.666180 0.485090 -0.272942
O20   O     O_R   0.237900 0.972600 0.090980 -0.508148
O21   O     O_R   0.511190 0.220540 0.061620 -0.519034
O22   O     O_R   0.736920 0.257720 0.063840 -0.490944
O23   O     O_R   0.710450 0.984050 0.081720 -0.491741
O24   O     O_R   0.524090 0.765520 0.933110 -0.505937
O25   O     O_R   0.277300 0.791600 0.938160 -0.522215
O26   O     O_R   0.240210 0.981010 0.915190 -0.514897
O27   O     O_3   0.921273 0.444020 0.140798 -0.547736
C37   C     C_3   0.976325 0.349790 0.170939 0.017773
H12   H     H_    0.975401 0.288729 0.123738 0.171716
H13   H     H_    0.910477 0.263954 0.224734 0.115768
C38   C     C_3   0.133988 0.442398 0.189674 -0.260476
H14   H     H_    0.203034 0.511088 0.133193 0.200920
H15   H     H_    0.140770 0.516560 0.230448 0.170694
C39   C     C_3   0.192905 0.345085 0.228799 -0.479569
H16   H     H_    0.128848 0.278268 0.286882 0.157581
H17   H     H_    0.308289 0.416191 0.239833 0.165037
H18   H     H_    0.187587 0.269957 0.189038 0.150071

loop_
_geom_bond_atom_site_label_1
_geom_bond_atom_site_label_2
_ccdc_geom_bond_type
C39   H16   S    
Cr4   O7    S    
C12   O21   A    
C19   C20   A    
C38   C39   S    
Cr5   O8    S    
C23   O23   A    
C35   H5    S    
C30   O18   A    
C7    C8    T    
C20   C30   S    
C23   O1    A    
C18   C24   A    
C28   O15   A    
C38   H15   S    
C18   C19   A    
C5    C6    T    
C6    C25   S    
Cr2   O26   S    
C15   C16   A    
Cr3   O4    S    
Cr6   O17   S    
C34   C35   A    
C9    C32   S    
Cr2   O5    S    
Cr2   O2    S    
C35   C36   A    
C16   C17   A    
Cr4   O14   S    
Cr1   O12   S    
C1    O12   A    
C25   O7    A    
C15   H9    S    
C4    C12   S    
C9    C10   T    
C32   O2    A    
C21   H3    S    
Cr1   O5    S    
C18   H11   S    
Cr4   O6    S    
Cr4   O13   S    
C21   C22   A    
C17   C33   S    
Cr5   O9    S    
C3    O27   S    
C37   H13   S    
C37   H12   S    
Cr5   O15   S    
C29   O16   A    
C4    C34   A    
C28   O14   A    
C38   H14   S    
C2    H6    S    
Cr3   O5    S    
Cr1   O24   S    
C26   O10   A    
C11   H7    S    
Cr3   O3    S    
C5    C23   S    
Cr6   O19   S    
C25   O8    A    
Cr3   O23   S    
C30   O13   A    
Cr5   O19   S    
Cr1   O1    S    
C26   C36   S    
C22   H4    S    
Cr3   O22   S    
C39   H17   S    
C22   C24   A    
C12   O22   A    
C3    C4    A    
Cr6   O11   S    
C37   C38   S    
C19   H2    S    
C31   O25   A    
Cr5   O16   S    
C29   O17   A    
Cr2   O21   S    
C2    C36   A    
C11   C17   A    
C33   O4    A    
Cr4   O19   S    
C1    C7    S    
C34   H1    S    
C16   H10   S    
O27   C37   S    
C31   O26   A    
Cr1   O25   S    
C1    O20   A    
C2    C3    A    
C26   O9    A    
C24   C31   S    
C27   O6    A    
C11   C13   A    
C10   C29   S    
C33   O24   A    
Cr6   O18   S    
C27   O11   A    
C13   H8    S    
C20   C21   A    
C39   H18   S    
C8    C27   S    
C14   C15   A    
C14   C28   S    
C13   C14   A    
Cr6   O10   S    
C32   O3    A    
Cr2   O20   S    
