data_mof_unit_7232.cif
_audit_creation_date              2012-12-10T18:42:51-0500
_audit_creation_method            fapswitch 2.2
_symmetry_space_group_name_H-M    P1
_symmetry_Int_Tables_number       1
_space_group_crystal_system       triclinic
_cell_length_a                    18.10623
_cell_length_b                    18.123079
_cell_length_c                    18.087933
_cell_angle_alpha                 119.923889
_cell_angle_beta                  89.958919
_cell_angle_gamma                 59.859577
_cell_volume                      4191.34213719

loop_
_atom_site_label
_atom_site_type_symbol
_atom_type_description
_atom_site_fract_x
_atom_site_fract_y
_atom_site_fract_z
_atom_type_partial_charge
C1    C     C_R   0.891507 0.216989 0.608597 0.974110
C2    C     C_3   0.551728 0.896792 0.946315 -0.287874
C3    C     C_3   0.905006 0.857842 0.730636 -0.834683
C4    C     C_3   0.413454 0.033646 0.008417 0.273501
C5    C     C_3   0.587692 0.965068 0.981106 0.327691
C6    C     C_3   0.017244 0.405401 0.454186 0.439164
C7    C     C_3   0.982954 0.594618 0.545977 0.438277
C8    C     C_3   0.087094 0.429115 0.480175 0.393960
C9    C     C_3   0.913069 0.570973 0.520034 0.395595
C10   C     C_3   0.049814 0.502020 0.449105 -0.184296
C11   C     C_3   0.950330 0.498007 0.551042 -0.185049
C12   C     C_3   0.978979 0.478069 0.422283 -0.473528
C13   C     C_R   0.108434 0.783008 0.391434 0.975762
C14   C     C_3   0.021142 0.521992 0.577892 -0.469800
C15   C     C_3   0.924117 0.035054 0.478072 0.423778
C16   C     C_3   0.075676 0.964906 0.522150 0.422502
C17   C     C_R   0.608537 0.782874 0.891350 0.962220
C18   C     C_R   0.391527 0.217181 0.106534 0.898675
C19   C     C_3   0.953670 0.966343 0.513448 0.240445
C20   C     C_3   0.046134 0.033627 0.486817 0.240067
C21   C     C_3   0.051419 0.897035 0.448233 -0.349721
C22   C     C_3   0.948393 0.102957 0.551961 -0.348707
C23   C     C_3   0.021583 0.966735 0.413446 0.261953
C24   C     C_3   0.553311 0.430274 0.413217 0.491000
C25   C     C_3   0.978256 0.033279 0.586798 0.261912
C26   C     C_3   0.956231 0.463284 0.011914 0.295039
C27   C     C_3   0.043956 0.536529 0.987974 0.293610
C28   C     C_3   0.949215 0.560908 0.087072 0.218786
C29   C     C_3   0.050973 0.438901 0.912818 0.218603
C30   C     C_3   0.053226 0.498712 0.049726 -0.347854
C31   C     C_3   0.946944 0.501113 0.950155 -0.350141
C32   C     C_3   0.059964 0.400747 0.973930 0.424599
C33   C     C_3   0.940220 0.599077 0.025971 0.427279
C34   C     C_3   0.554056 0.403860 0.922477 0.434213
C35   C     C_3   0.446666 0.569845 0.586813 0.489673
C36   C     C_3   0.445906 0.595732 0.077151 0.450405
C37   C     C_3   0.449685 0.472313 0.955789 0.202019
C38   C     C_3   0.550261 0.527308 0.043866 0.215760
C39   C     C_3   0.448877 0.498945 0.051050 -0.435239
C40   C     C_3   0.551092 0.500671 0.948595 -0.433249
C41   C     C_R   0.608397 0.500292 0.891644 0.976545
C42   C     C_R   0.391594 0.499534 0.108194 0.959842
C43   C     C_3   0.553593 0.430507 0.017724 0.470572
C44   C     C_3   0.446367 0.569089 0.981914 0.484729
C45   C     C_R   0.892519 0.498854 0.608343 0.910379
C46   C     C_3   0.487085 0.962681 0.915295 0.311971
C47   C     C_R   0.107533 0.501124 0.391679 0.910392
C48   C     C_R   0.890313 0.500980 0.892645 0.964267
C49   C     C_R   0.109767 0.498945 0.107296 0.959741
C50   C     C_R   0.608388 0.500154 0.608657 1.020977
C51   C     C_R   0.391609 0.499882 0.391347 1.026775
C52   C     C_3   0.551876 0.525954 0.482857 0.438767
C53   C     C_3   0.448099 0.474166 0.517176 0.439893
C54   C     C_3   0.447476 0.595162 0.517389 0.441205
C55   C     C_3   0.552498 0.404958 0.482639 0.442044
C56   C     C_3   0.448890 0.499554 0.447878 -0.560291
C57   C     C_3   0.515191 0.035440 0.074660 0.259196
C58   C     C_3   0.551089 0.500557 0.552146 -0.557283
C59   C     C_3   0.823908 0.001958 0.587465 0.203792
C60   C     C_3   0.771365 0.955943 0.580956 -0.835285
C61   C     C_3   0.176598 0.997655 0.413765 0.212388
C62   C     C_3   0.231040 0.042446 0.424983 -0.843801
C63   C     C_3   0.002150 0.000995 0.305225 0.166840
C64   C     C_3   0.044980 0.955760 0.207472 -0.788486
C65   C     C_3   0.998512 0.999135 0.695088 0.167025
C66   C     C_3   0.955530 0.043957 0.792661 -0.792745
C67   C     C_3   0.810027 0.688163 0.201054 0.174516
C68   C     C_3   0.522702 0.031148 0.950374 0.251890
C69   C     C_3   0.761110 0.734640 0.297378 -0.886298
C70   C     C_3   0.190267 0.311504 0.798998 0.169784
C71   C     C_3   0.239375 0.264931 0.702716 -0.888833
C72   C     C_3   0.924593 0.401176 0.083033 0.141430
C73   C     C_3   0.891403 0.335466 0.072872 -0.757946
C74   C     C_3   0.075750 0.598545 0.916853 0.141322
C75   C     C_3   0.109242 0.663956 0.926865 -0.755620
C76   C     C_3   0.404471 0.430207 0.830184 0.198850
C77   C     C_3   0.359945 0.378401 0.777487 -0.852237
C78   C     C_3   0.596139 0.568359 0.169072 0.208177
C79   C     C_3   0.478025 0.968836 0.039962 0.243942
C80   C     C_3   0.640259 0.620539 0.222181 -0.837455
C81   C     C_3   0.494112 0.153230 0.921307 0.058478
C82   C     C_3   0.518900 0.161235 0.846467 -0.750798
C83   C     C_3   0.392047 0.008449 0.165674 0.099829
C84   C     C_3   0.358114 0.963707 0.196925 -0.792574
C85   C     C_3   0.422794 0.987864 0.812149 0.069638
C86   C     C_3   0.388912 0.941518 0.736872 -0.673256
C87   C     C_3   0.593991 0.003222 0.167661 0.103510
C88   C     C_3   0.589095 0.051215 0.266124 -0.719652
C89   C     C_3   0.305062 0.999640 0.985452 0.147606
C90   C     C_3   0.449073 0.103236 0.045029 -0.361754
C91   C     C_3   0.204074 0.050385 0.002350 -0.800866
C92   C     C_3   0.697400 0.997008 0.990589 0.147725
C93   C     C_3   0.793502 0.953770 0.993374 -0.797926
C94   C     C_3   0.197805 0.313975 0.505038 0.120835
C95   C     C_3   0.296809 0.221838 0.465322 -0.816018
C96   C     C_3   0.802424 0.686459 0.495409 0.113538
C97   C     C_3   0.704319 0.781132 0.537244 -0.788536
C98   C     C_3   0.095935 0.238080 0.323319 0.136092
C99   C     C_3   0.098181 0.139933 0.271429 -0.850833
C100  C     C_3   0.903553 0.762341 0.676617 0.147189
F1    F     F_    0.392861 0.693231 0.534809 -0.574787
F2    F     F_    0.391949 0.641136 0.963968 -0.605856
F3    F     F_    0.605836 0.552751 0.465761 -0.589792
F4    F     F_    0.394139 0.447374 0.534278 -0.588810
F5    F     F_    0.608302 0.358123 0.323380 -0.563288
F6    F     F_    0.391678 0.642011 0.676651 -0.566185
F7    F     F_    0.607115 0.306902 0.465243 -0.573179
F8    F     F_    0.845147 0.074266 0.458238 -0.632116
F9    F     F_    0.154626 0.925678 0.542019 -0.633888
F10   F     F_    0.121909 0.300502 0.949950 -0.666542
F11   F     F_    0.878284 0.699343 0.049999 -0.664004
F12   F     F_    0.610663 0.305383 0.842527 -0.643352
F13   F     F_    0.389338 0.694186 0.157139 -0.633972
F14   F     F_    0.607941 0.358376 0.035610 -0.612255
H1    H     H_    0.963269 0.460578 0.358674 0.178873
H2    H     H_    0.236888 0.073567 0.493645 0.266295
H3    H     H_    0.891553 0.896124 0.695100 0.262065
H4    H     H_    0.852102 0.914614 0.798558 0.218893
H5    H     H_    0.972335 0.834298 0.738971 0.266491
H6    H     H_    0.300121 0.980333 0.373859 0.228183
H7    H     H_    0.197139 0.106546 0.415813 0.253545
H8    H     H_    0.003988 0.069561 0.350321 0.165304
H9    H     H_    0.930564 0.027022 0.315935 0.226554
H10   H     H_    0.043811 0.887294 0.160863 0.278296
H11   H     H_    0.006544 0.015636 0.193805 0.212180
H12   H     H_    0.116324 0.930682 0.194642 0.267116
H13   H     H_    0.069824 0.974052 0.684867 0.226285
H14   H     H_    0.997540 0.929982 0.649651 0.164861
H15   H     H_    0.036664 0.539754 0.641616 0.178493
H16   H     H_    0.884219 0.068934 0.805270 0.267586
H17   H     H_    0.993941 0.983855 0.806091 0.212753
H18   H     H_    0.956571 0.112436 0.839586 0.277635
H19   H     H_    0.783703 0.646232 0.154396 0.152819
H20   H     H_    0.794586 0.753515 0.197228 0.210958
H21   H     H_    0.785485 0.777822 0.345567 0.274096
H22   H     H_    0.687031 0.789553 0.315123 0.220316
H23   H     H_    0.774048 0.671541 0.303540 0.250187
H24   H     H_    0.205561 0.246188 0.802812 0.209544
H25   H     H_    0.216588 0.353377 0.845736 0.149630
H26   H     H_    0.784307 0.065695 0.578178 0.201824
H27   H     H_    0.226655 0.327962 0.696554 0.252121
H28   H     H_    0.313413 0.209878 0.685046 0.217994
H29   H     H_    0.214940 0.221888 0.654482 0.273657
H30   H     H_    0.887350 0.474295 0.152683 0.156788
H31   H     H_    0.998136 0.355870 0.073768 0.196120
H32   H     H_    0.929827 0.260088 0.004757 0.263459
H33   H     H_    0.901816 0.319281 0.125052 0.207299
H34   H     H_    0.818136 0.377533 0.081252 0.276252
H35   H     H_    0.002198 0.644055 0.926205 0.196575
H36   H     H_    0.112862 0.525401 0.847213 0.156813
H37   H     H_    0.829435 0.035546 0.656235 0.173840
H38   H     H_    0.182528 0.621668 0.918393 0.276748
H39   H     H_    0.098883 0.680129 0.874676 0.206409
H40   H     H_    0.070978 0.739348 0.994977 0.264193
H41   H     H_    0.476931 0.380008 0.787883 0.180316
H42   H     H_    0.370221 0.507751 0.841694 0.204931
H43   H     H_    0.287092 0.427085 0.816938 0.262877
H44   H     H_    0.366088 0.369399 0.711946 0.242365
H45   H     H_    0.393431 0.300053 0.764005 0.252596
H46   H     H_    0.631284 0.490258 0.156588 0.200579
H47   H     H_    0.523870 0.617613 0.211525 0.176852
H48   H     H_    0.808488 0.891950 0.589995 0.259316
H49   H     H_    0.606213 0.699211 0.236212 0.259842
H50   H     H_    0.634464 0.628867 0.287438 0.237728
H51   H     H_    0.713025 0.572457 0.182734 0.259433
H52   H     H_    0.500885 0.206787 0.982447 0.201302
H53   H     H_    0.422695 0.177905 0.933826 0.108343
H54   H     H_    0.513134 0.109059 0.783276 0.225333
H55   H     H_    0.472313 0.242899 0.867435 0.250269
H56   H     H_    0.589495 0.138576 0.833118 0.288052
H57   H     H_    0.332913 0.070998 0.164454 0.176800
H58   H     H_    0.419808 0.043846 0.215873 0.178236
H59   H     H_    0.703580 0.017386 0.634463 0.227312
H60   H     H_    0.414225 0.904859 0.203967 0.278023
H61   H     H_    0.302948 0.027296 0.263279 0.192992
H62   H     H_    0.331257 0.926077 0.147142 0.283782
H63   H     H_    0.463255 0.006727 0.788653 0.186772
H64   H     H_    0.362572 0.061059 0.872548 0.174766
H65   H     H_    0.347458 0.922151 0.758139 0.273278
H66   H     H_    0.346484 0.998857 0.721521 0.207352
H67   H     H_    0.447225 0.869342 0.674699 0.279344
H68   H     H_    0.661658 0.970848 0.127139 0.200815
H69   H     H_    0.587094 0.938164 0.144922 0.167642
H70   H     H_    0.762423 0.924337 0.513674 0.261879
H71   H     H_    0.522344 0.083604 0.308722 0.240726
H72   H     H_    0.643523 0.990575 0.272601 0.214964
H73   H     H_    0.598048 0.114934 0.290537 0.303114
H74   H     H_    0.327907 0.954639 0.015428 0.188532
H75   H     H_    0.340565 0.944863 0.911127 0.199028
H76   H     H_    0.179568 0.093519 0.970696 0.281971
H77   H     H_    0.191005 0.989502 0.972566 0.228287
H78   H     H_    0.166223 0.105868 0.076263 0.246755
H79   H     H_    0.649662 0.069566 0.059037 0.183682
H80   H     H_    0.691710 0.016547 0.940695 0.199802
H81   H     H_    0.172030 0.966807 0.344579 0.170675
H82   H     H_    0.842960 0.881849 0.925670 0.253472
H83   H     H_    0.807719 0.012731 0.012836 0.228060
H84   H     H_    0.801742 0.934667 0.043692 0.272039
H85   H     H_    0.155061 0.286223 0.504791 0.155955
H86   H     H_    0.184652 0.374200 0.576037 0.160444
H87   H     H_    0.341282 0.247801 0.467445 0.290156
H88   H     H_    0.310675 0.188179 0.504978 0.215170
H89   H     H_    0.312463 0.160571 0.394010 0.240189
H90   H     H_    0.813212 0.627039 0.425098 0.160514
H91   H     H_    0.846867 0.711629 0.493460 0.154117
H92   H     H_    0.214407 0.931843 0.420789 0.200520
H93   H     H_    0.691447 0.842094 0.607654 0.256190
H94   H     H_    0.690198 0.813996 0.496925 0.207361
H95   H     H_    0.658020 0.758176 0.538233 0.287770
H96   H     H_    0.164602 0.215175 0.327196 0.168013
H97   H     H_    0.078759 0.272840 0.284280 0.152684
H98   H     H_    0.030957 0.160202 0.264244 0.271633
H99   H     H_    0.150181 0.083696 0.203035 0.213331
H100  H     H_    0.115164 0.102471 0.307916 0.264298
H101  H     H_    0.917202 0.726787 0.714886 0.153012
H102  H     H_    0.834733 0.788573 0.671670 0.183203
O1    O     O_3   0.750010 0.499980 0.749990 -0.569255
O2    O     O_R   0.305750 0.265450 0.132730 -0.597938
O3    O     O_R   0.867280 0.265410 0.571220 -0.621389
O4    O     O_R   0.132720 0.734590 0.428780 -0.620898
O5    O     O_R   0.571230 0.734580 0.867270 -0.613180
O6    O     O_R   0.428770 0.265420 0.132730 -0.647020
O7    O     O_R   0.694200 0.438470 0.867270 -0.598298
O8    O     O_R   0.305800 0.561530 0.132730 -0.594229
O9    O     O_R   0.867340 0.561470 0.694210 -0.659185
O10   O     O_R   0.132660 0.438530 0.305790 -0.660797
O11   O     O_R   0.867310 0.438430 0.867270 -0.594492
O12   O     O_3   0.249990 0.500020 0.250010 -0.562241
O13   O     O_R   0.132690 0.561570 0.132730 -0.594511
O14   O     O_R   0.694200 0.438520 0.571220 -0.597115
O15   O     O_R   0.305800 0.561480 0.428780 -0.596552
O16   O     O_R   0.867340 0.561440 0.867270 -0.632172
O17   O     O_R   0.132660 0.438560 0.132730 -0.632575
O18   O     O_R   0.571190 0.561530 0.694210 -0.603448
O19   O     O_R   0.428810 0.438470 0.305790 -0.597368
O20   O     O_3   0.910905 0.922133 0.521060 -0.591439
O21   O     O_3   0.089077 0.077637 0.479213 -0.592391
O22   O     O_3   0.050283 0.922767 0.320206 -0.567338
O23   O     O_R   0.571190 0.561490 0.867270 -0.609727
O24   O     O_3   0.949845 0.077269 0.680078 -0.568282
O25   O     O_3   0.903964 0.620752 0.180761 -0.604327
O26   O     O_3   0.096362 0.378985 0.819151 -0.603361
O27   O     O_3   0.907417 0.424704 0.018776 -0.559236
O28   O     O_3   0.092828 0.575058 0.981138 -0.559629
O29   O     O_3   0.394911 0.442274 0.913662 -0.586362
O30   O     O_3   0.604733 0.557781 0.086211 -0.568772
O31   O     O_3   0.554944 0.049955 0.894883 -0.603957
O32   O     O_3   0.460110 0.926953 0.079791 -0.602625
O33   O     O_3   0.478088 0.913420 0.829530 -0.589198
O34   O     O_R   0.428810 0.438510 0.132730 -0.627616
O35   O     O_3   0.524984 0.081473 0.160499 -0.599696
O36   O     O_3   0.319819 0.078489 0.025437 -0.590342
O37   O     O_3   0.681402 0.920105 0.963456 -0.580055
O38   O     O_3   0.181133 0.354751 0.453114 -0.607392
O39   O     O_3   0.819085 0.645673 0.547331 -0.600981
O40   O     O_3   0.031523 0.307261 0.411021 -0.583809
O41   O     O_3   0.968944 0.692654 0.589370 -0.589358
O42   O     O_R   0.867310 0.438490 0.571220 -0.592564
O43   O     O_R   0.132690 0.561510 0.428780 -0.591072
O44   O     O_R   0.867280 0.265380 0.694210 -0.598714
O45   O     O_R   0.132720 0.734620 0.305790 -0.596856
O46   O     O_R   0.694250 0.734550 0.867270 -0.605959
Zn1   Zn    Zn3+2 0.618190 0.587870 0.793920 1.070030
Zn2   Zn    Zn3+2 0.381810 0.412130 0.206080 1.033899
Zn3   Zn    Zn3+2 0.793940 0.412090 0.793920 1.071008
Zn4   Zn    Zn3+2 0.206060 0.587910 0.206080 1.065421
Zn5   Zn    Zn3+2 0.793970 0.587840 0.793920 1.015599
Zn6   Zn    Zn3+2 0.206030 0.412160 0.206080 0.999611
Zn7   Zn    Zn3+2 0.793940 0.412130 0.618200 1.072411
Zn8   Zn    Zn3+2 0.206060 0.587870 0.381800 1.076267

loop_
_geom_bond_atom_site_label_1
_geom_bond_atom_site_label_2
_ccdc_geom_bond_type
C60   H70   S    
C7    C10   S    
C38   C40   S    
C87   C88   S    
C82   H56   S    
C100  H101  S    
C26   C32   S    
C16   C21   S    
O1    Zn1   S    
C89   O36   S    
C35   C53   S    
C34   C37   S    
C34   F12   S    
C57   C79   S    
C54   F1    S    
C76   O29   S    
O12   Zn4   S    
C19   O20   S    
C63   O22   S    
C98   O40   S    
C81   C82   S    
C67   O25   S    
C45   O42   A    
C52   F3    S    
C4    C46   S    
C85   O33   S    
C27   C33   S    
C24   C55   S    
C15   C19   S    
C98   H96   S    
C48   O11   A    
O19   Zn2   S    
C98   H97   S    
C97   H95   S    
C73   H33   S    
C35   C58   S    
C34   C40   S    
C65   H13   S    
C67   H19   S    
C51   C56   S    
C29   C32   S    
C92   H80   S    
C24   C52   S    
C94   O38   S    
C43   F14   S    
O8    Zn4   S    
C11   C14   S    
C78   C80   S    
C27   C29   S    
C53   F4    S    
C95   H89   S    
C72   H31   S    
C38   O30   S    
O15   Zn8   S    
C72   H30   S    
C37   O29   S    
C99   H100  S    
C51   O19   A    
C94   H85   S    
C5    O37   S    
C17   O46   A    
C50   O18   A    
O42   Zn7   S    
C81   O31   S    
C80   H50   S    
C49   O17   A    
C2    C79   S    
O12   Zn6   S    
C86   H65   S    
C3    C100  S    
C15   C22   S    
C100  H102  S    
C59   O20   S    
C47   O43   A    
C85   H64   S    
O1    Zn5   S    
C22   C25   S    
C83   H57   S    
C83   O32   S    
C86   H67   S    
O2    Zn6   S    
C29   O26   S    
C31   C33   S    
C74   H35   S    
C70   C71   S    
C33   F11   S    
O45   Zn4   S    
C57   O35   S    
C84   H61   S    
O4    Zn8   S    
C61   H81   S    
C62   H6    S    
C61   C62   S    
C36   C44   S    
C61   H92   S    
C71   H27   S    
C1    O44   A    
C74   O28   S    
C92   O37   S    
C88   H72   S    
C69   H21   S    
C82   H55   S    
C1    C22   S    
C13   O4    A    
C27   O28   S    
C35   C54   S    
C29   C31   S    
C60   H59   S    
C72   O27   S    
O23   Zn1   S    
C9    O39   S    
C87   H68   S    
C5    C68   S    
C84   H60   S    
C36   F13   S    
C6    C12   S    
C52   C54   S    
C16   F9    S    
C96   H90   S    
C39   C42   S    
C66   H18   S    
C99   H98   S    
C7    C14   S    
C68   O31   S    
C69   H23   S    
C52   C58   S    
C91   H76   S    
C54   C56   S    
C10   C47   S    
C57   C90   S    
C73   H34   S    
C6    O40   S    
C50   C58   S    
C65   H14   S    
C3    H5    S    
C67   H20   S    
C76   C77   S    
C4    O36   S    
C4    C79   S    
C92   H79   S    
C74   C75   S    
O46   Zn5   S    
C23   O22   S    
C44   F2    S    
C26   O27   S    
O11   Zn3   S    
C39   C43   S    
C99   H99   S    
C25   O24   S    
C64   H10   S    
C51   O15   A    
C76   H42   S    
C2    C46   S    
C55   F7    S    
O3    Zn7   S    
C18   C90   S    
C15   F8    S    
C2    C17   S    
C93   H83   S    
C46   O33   S    
C46   C68   S    
C3    H4    S    
C42   O8    A    
C75   H39   S    
C68   C90   S    
C83   C84   S    
C20   C23   S    
C75   H38   S    
C16   C20   S    
C96   C97   S    
C86   H66   S    
C81   H53   S    
C13   C21   S    
C1    O3    A    
C59   C60   S    
C45   O9    A    
C83   H58   S    
C97   H93   S    
C9    C11   S    
O34   Zn2   S    
C85   C86   S    
C41   O7    A    
O43   Zn8   S    
C10   C12   S    
C77   H45   S    
C71   H28   S    
C6    C8    S    
C48   O16   A    
C85   H63   S    
C88   H71   S    
C88   H73   S    
C30   C49   S    
C20   C22   S    
C28   C33   S    
C64   H11   S    
C69   H22   S    
C64   H12   S    
C31   C48   S    
C21   C23   S    
C89   H74   S    
C7    O41   S    
C2    C5    S    
C89   C91   S    
C28   O25   S    
C53   C55   S    
C36   C38   S    
C18   O2    A    
C60   H48   S    
C80   H51   S    
C6    C11   S    
C63   H8    S    
C71   H29   S    
C66   H17   S    
C41   O23   A    
C53   C56   S    
C78   H46   S    
C16   C25   S    
C7    C9    S    
C66   H16   S    
C100  O41   S    
O18   Zn1   S    
C87   H69   S    
C8    C14   S    
C8    O38   S    
C19   C21   S    
C26   C31   S    
C36   C39   S    
C34   C43   S    
C96   O39   S    
C72   C73   S    
O5    Zn1   S    
O1    Zn3   S    
C80   H49   S    
C63   H9    S    
O13   Zn4   S    
C4    C90   S    
C70   H24   S    
O14   Zn7   S    
C59   H37   S    
C24   C56   S    
C91   H78   S    
C77   H44   S    
C76   H41   S    
C26   C28   S    
O16   Zn5   S    
C5    C57   S    
C73   H32   S    
C61   O21   S    
C79   O32   S    
C12   H1    S    
C37   C44   S    
C28   C30   S    
C93   H84   S    
C87   O35   S    
C38   C43   S    
C37   C39   S    
C35   F6    S    
O12   Zn8   S    
C95   H87   S    
C70   O26   S    
O17   Zn6   S    
C30   C32   S    
C75   H40   S    
C96   H91   S    
C47   O10   A    
C91   H77   S    
C59   H26   S    
C11   C45   S    
O1    Zn7   S    
C82   H54   S    
C15   C23   S    
C92   C93   S    
C78   O30   S    
C50   O14   A    
C94   H86   S    
C65   C66   S    
C97   H94   S    
C49   O13   A    
C94   C95   S    
C18   O6    A    
C9    C12   S    
O7    Zn3   S    
C17   O5    A    
C62   H2    S    
C19   C25   S    
C63   C64   S    
C93   H82   S    
C3    H3    S    
O12   Zn2   S    
C40   C44   S    
C95   H88   S    
C42   O34   A    
C65   O24   S    
C8    C10   S    
C98   C99   S    
C32   F10   S    
C55   C58   S    
C77   H43   S    
C81   H52   S    
C89   H75   S    
C78   H47   S    
C74   H36   S    
C40   C41   S    
C24   F5    S    
C67   C69   S    
O44   Zn3   S    
C84   H62   S    
C13   O45   A    
O9    Zn5   S    
C62   H7    S    
C20   O21   S    
O10   Zn6   S    
O6    Zn2   S    
C27   C30   S    
C14   H15   S    
C70   H25   S    
