data_mof_unit_26278.cif
_audit_creation_date              2012-12-11T15:45:05-0500
_audit_creation_method            fapswitch 2.2
_symmetry_space_group_name_H-M    P1
_symmetry_Int_Tables_number       1
_space_group_crystal_system       triclinic
_cell_length_a                    19.134325
_cell_length_b                    10.958869
_cell_length_c                    18.790251
_cell_angle_alpha                 90.0232
_cell_angle_beta                  90.460637
_cell_angle_gamma                 89.765149
_cell_volume                      3939.97756797

loop_
_atom_site_label
_atom_site_type_symbol
_atom_type_description
_atom_site_fract_x
_atom_site_fract_y
_atom_site_fract_z
_atom_type_partial_charge
C1    C     C_R   0.761456 0.529351 0.644823 0.535403
C2    C     C_R   0.239795 0.535261 0.353270 0.531921
C3    C     C_R   0.261456 0.029351 0.644823 0.535404
C4    C     C_R   0.739795 0.035260 0.353270 0.531921
C5    C     C_R   0.837127 0.125134 0.518237 -0.158510
C6    C     C_R   0.215548 0.987653 0.454293 -0.148079
C7    C     C_R   0.337127 0.625132 0.518237 -0.158510
C8    C     C_R   0.715550 0.487650 0.454292 -0.148079
C9    C     C_R   0.825501 0.101116 0.445802 -0.159101
C10   C     C_R   0.216419 0.975603 0.527388 -0.139596
C11   C     C_R   0.325501 0.601114 0.445802 -0.159101
C12   C     C_R   0.716422 0.475598 0.527387 -0.139597
C13   C     C_3   0.632228 0.111926 0.472460 -0.250196
C14   C     C_3   0.288637 0.283447 0.554400 -0.280987
C15   C     C_3   0.132228 0.611936 0.472458 -0.250198
C16   C     C_3   0.788635 0.783447 0.554400 -0.280988
C17   C     C_3   0.645227 0.139061 0.550711 -0.270499
C18   C     C_3   0.282692 0.302214 0.474875 -0.239139
C19   C     C_3   0.145227 0.639070 0.550709 -0.270500
C20   C     C_3   0.782690 0.802214 0.474875 -0.239140
C21   C     C_R   0.780968 0.156068 0.562376 0.016391
C22   C     C_R   0.247852 0.088112 0.423752 0.018041
C23   C     C_R   0.280969 0.656069 0.562376 0.016391
C24   C     C_R   0.747853 0.588112 0.423752 0.018042
C25   C     C_R   0.991694 0.330431 0.421560 -0.041048
C26   C     C_R   0.996836 0.346993 0.571597 -0.038493
C27   C     C_R   0.491693 0.830431 0.421560 -0.041048
C28   C     C_R   0.496835 0.846993 0.571597 -0.038492
C29   C     C_R   0.010095 0.106357 0.432524 -0.078791
C30   C     C_R   0.034634 0.132023 0.577897 -0.091788
C31   C     C_R   0.510096 0.606357 0.432524 -0.078790
C32   C     C_R   0.534635 0.632024 0.577897 -0.091788
C33   C     C_R   0.028761 0.005091 0.473406 -0.134895
C34   C     C_R   0.042456 0.018420 0.545668 -0.126150
C35   C     C_R   0.528763 0.505091 0.473406 -0.134894
C36   C     C_R   0.542458 0.518421 0.545668 -0.126149
C37   C     C_R   0.012072 0.234687 0.538153 -0.012072
C38   C     C_R   0.004845 0.224078 0.463291 0.009929
C39   C     C_R   0.512071 0.734687 0.538153 -0.012073
C40   C     C_R   0.504845 0.724078 0.463291 0.009929
C41   C     C_R   0.984171 0.453249 0.528452 0.020050
C42   C     C_R   0.970870 0.438827 0.455269 0.007833
C43   C     C_R   0.484170 0.953248 0.528451 0.020051
C44   C     C_R   0.470869 0.938826 0.455269 0.007833
C45   C     C_R   0.791283 0.171341 0.638945 0.565265
C46   C     C_R   0.226638 0.126610 0.353965 0.545131
C47   C     C_R   0.291282 0.671340 0.638945 0.565266
C48   C     C_R   0.726638 0.626610 0.353965 0.545131
C49   C     C_R   0.985260 0.574947 0.555150 -0.070284
C50   C     C_R   0.943894 0.538145 0.415370 -0.072417
C51   C     C_R   0.485258 0.074948 0.555149 -0.070284
C52   C     C_R   0.443893 0.038145 0.415370 -0.072416
C53   C     C_R   0.964771 0.673916 0.513269 -0.142557
C54   C     C_R   0.943201 0.655221 0.443580 -0.121756
C55   C     C_R   0.464770 0.173916 0.513268 -0.142560
C56   C     C_R   0.443201 0.155221 0.443578 -0.121757
C57   C     C_R   0.746740 0.061619 0.072304 0.018050
C58   C     C_R   0.253060 0.061770 0.927576 0.017552
C59   C     C_R   0.246740 0.561619 0.072304 0.018049
C60   C     C_R   0.753060 0.561770 0.927576 0.017552
C61   C     C_R   0.790678 0.987121 0.032123 0.043616
C62   C     C_R   0.209481 0.987416 0.967809 0.043368
C63   C     C_R   0.290677 0.487121 0.032123 0.043616
C64   C     C_R   0.709481 0.487416 0.967809 0.043368
C65   C     C_R   0.793168 0.996091 0.959000 0.010893
C66   C     C_R   0.207030 0.996568 0.040931 0.011002
C67   C     C_R   0.293168 0.496091 0.959000 0.010892
C68   C     C_R   0.707030 0.496568 0.040931 0.011002
C69   C     C_R   0.702621 0.149181 0.962393 -0.159083
C70   C     C_R   0.296674 0.150014 0.037311 -0.158893
C71   C     C_R   0.202621 0.649181 0.962393 -0.159083
C72   C     C_R   0.796674 0.650015 0.037311 -0.158893
C73   C     C_R   0.700857 0.140562 0.036679 -0.127797
C74   C     C_R   0.298480 0.141061 0.963056 -0.128406
C75   C     C_R   0.200857 0.640562 0.036679 -0.127797
C76   C     C_R   0.798480 0.641061 0.963056 -0.128406
C77   C     C_3   0.868069 0.975758 0.039498 -0.271456
C78   C     C_3   0.132120 0.976584 0.960502 -0.270972
C79   C     C_3   0.368069 0.475758 0.039498 -0.271456
C80   C     C_3   0.632120 0.476584 0.960502 -0.270972
C81   C     C_3   0.870873 0.981557 0.959581 -0.273913
C82   C     C_3   0.129344 0.982677 0.040394 -0.273201
C83   C     C_3   0.370873 0.481557 0.959581 -0.273913
C84   C     C_3   0.629344 0.482677 0.040394 -0.273201
C85   C     C_R   0.752030 0.082421 0.923102 0.007786
C86   C     C_R   0.247862 0.082904 0.076735 0.008768
C87   C     C_R   0.252030 0.582421 0.923101 0.007787
C88   C     C_R   0.747862 0.582904 0.076735 0.008768
C89   C     C_R   0.970789 0.347544 0.646029 0.521625
C90   C     C_R   0.026849 0.344371 0.351876 0.522821
C91   C     C_R   0.470788 0.847544 0.646029 0.521625
C92   C     C_R   0.526849 0.844371 0.351876 0.522821
C93   C     C_R   0.999422 0.341518 0.075940 -0.000255
C94   C     C_R   0.998547 0.341303 0.925019 -0.001693
C95   C     C_R   0.499422 0.841518 0.075940 -0.000255
C96   C     C_R   0.498548 0.841303 0.925019 -0.001693
C97   C     C_R   0.993666 0.448279 0.036144 0.022975
C98   C     C_R   0.001553 0.448045 0.964988 0.027584
C99   C     C_R   0.493668 0.948279 0.036144 0.022977
C100  C     C_R   0.501554 0.948045 0.964988 0.027583
C101  C     C_R   0.999230 0.230592 0.962998 -0.172235
C102  C     C_R   0.999012 0.230679 0.037963 -0.172049
C103  C     C_R   0.499230 0.730592 0.962998 -0.172235
C104  C     C_R   0.499013 0.730679 0.037963 -0.172049
C105  C     C_3   0.992311 0.584849 0.040384 0.184725
C106  C     C_3   0.006262 0.583883 0.959984 0.185931
C107  C     C_3   0.492311 0.084849 0.040384 0.184726
C108  C     C_3   0.506262 0.083883 0.959984 0.185931
C109  C     C_R   0.760994 0.530221 0.853016 0.545874
C110  C     C_R   0.238945 0.530352 0.146934 0.544626
C111  C     C_R   0.260994 0.030221 0.853016 0.545874
C112  C     C_R   0.738945 0.030352 0.146934 0.544626
C113  C     C_R   0.772649 0.126045 0.853103 0.556931
C114  C     C_R   0.227303 0.126257 0.146861 0.547884
C115  C     C_R   0.272649 0.626045 0.853103 0.556931
C116  C     C_R   0.727303 0.626257 0.146861 0.547884
C117  C     C_R   0.971345 0.346888 0.852985 0.551779
C118  C     C_R   0.028396 0.347129 0.147249 0.550212
C119  C     C_R   0.471345 0.846888 0.852985 0.551779
C120  C     C_R   0.528396 0.847129 0.147249 0.550211
C121  C     C_R   0.757083 0.104605 0.417339 0.011181
C122  C     C_R   0.253319 0.058646 0.570816 0.026491
C123  C     C_R   0.257084 0.604606 0.417339 0.011181
C124  C     C_R   0.753320 0.558644 0.570816 0.026492
C125  C     C_R   0.704620 0.154799 0.459092 -0.004549
C126  C     C_R   0.292394 0.149739 0.539607 0.028417
C127  C     C_R   0.204621 0.654803 0.459091 -0.004548
C128  C     C_R   0.792394 0.649739 0.539607 0.028416
C129  C     C_R   0.716390 0.179131 0.530192 0.007893
C130  C     C_R   0.287326 0.166810 0.466982 0.023712
C131  C     C_R   0.216391 0.679135 0.530191 0.007896
C132  C     C_R   0.787326 0.666811 0.466982 0.023711
Cr1   Cr    Cr6+3 0.885860 0.491680 0.749630 1.019830
Cr2   Cr    Cr6+3 0.114140 0.491680 0.250370 1.019444
Cr3   Cr    Cr6+3 0.385860 0.991680 0.749630 1.019829
Cr4   Cr    Cr6+3 0.614140 0.991680 0.250370 1.019444
Cr5   Cr    Cr6+3 0.730490 0.332970 0.748720 0.989290
Cr6   Cr    Cr6+3 0.269510 0.332970 0.251280 0.988193
Cr7   Cr    Cr6+3 0.230490 0.832970 0.748720 0.989290
Cr8   Cr    Cr6+3 0.769510 0.832970 0.251280 0.988193
Cr9   Cr    Cr6+3 0.887570 0.179310 0.750150 0.990600
Cr10  Cr    Cr6+3 0.112430 0.179310 0.249850 0.991787
Cr11  Cr    Cr6+3 0.387570 0.679310 0.750150 0.990600
Cr12  Cr    Cr6+3 0.612430 0.679310 0.249850 0.991787
H1    H     H_    0.888571 0.110780 0.540712 0.151529
H2    H     H_    0.184139 0.925480 0.422722 0.135662
H3    H     H_    0.388571 0.610775 0.540713 0.151528
H4    H     H_    0.684142 0.425475 0.422720 0.135660
H5    H     H_    0.966471 0.765436 0.534817 0.099050
H6    H     H_    0.927049 0.731640 0.410850 0.105115
H7    H     H_    0.466471 0.265437 0.534816 0.099049
H8    H     H_    0.427049 0.231639 0.410849 0.105115
H9    H     H_    0.669866 0.215611 0.936271 0.126748
H10   H     H_    0.328844 0.217010 0.063300 0.127808
H11   H     H_    0.169866 0.715610 0.936271 0.126748
H12   H     H_    0.828843 0.717011 0.063300 0.127808
H13   H     H_    0.666785 0.199659 0.066415 0.172493
H14   H     H_    0.332171 0.200171 0.933210 0.174147
H15   H     H_    0.166785 0.699659 0.066415 0.172493
H16   H     H_    0.832171 0.700171 0.933210 0.174147
H17   H     H_    0.886064 0.887438 0.061508 0.127787
H18   H     H_    0.114373 0.888331 0.938556 0.127993
H19   H     H_    0.386064 0.387438 0.061508 0.127787
H20   H     H_    0.614373 0.388331 0.938556 0.127993
H21   H     H_    0.891052 0.056552 0.066308 0.134038
H22   H     H_    0.108915 0.057444 0.933640 0.134258
H23   H     H_    0.391052 0.556552 0.066308 0.134037
H24   H     H_    0.608915 0.557444 0.933640 0.134258
H25   H     H_    0.897463 0.063824 0.940314 0.169305
H26   H     H_    0.102619 0.065315 0.059554 0.170203
H27   H     H_    0.397463 0.563824 0.940314 0.169305
H28   H     H_    0.602619 0.565315 0.059554 0.170204
H29   H     H_    0.887678 0.894879 0.934703 0.136688
H30   H     H_    0.112693 0.896262 0.065389 0.133679
H31   H     H_    0.387678 0.394879 0.934703 0.136688
H32   H     H_    0.612693 0.396262 0.065389 0.133680
H33   H     H_    0.999134 0.144930 0.934738 0.114772
H34   H     H_    0.000205 0.145048 0.066216 0.114730
H35   H     H_    0.499134 0.644930 0.934738 0.114772
H36   H     H_    0.500205 0.645048 0.066216 0.114730
H37   H     H_    0.939130 0.618483 0.054416 0.106934
H38   H     H_    0.060211 0.612356 0.945654 0.108435
H39   H     H_    0.439130 0.118481 0.054416 0.106934
H40   H     H_    0.560211 0.112358 0.945654 0.108435
H41   H     H_    0.868329 0.066506 0.414398 0.128191
H42   H     H_    0.186176 0.902950 0.550120 0.146301
H43   H     H_    0.368329 0.566502 0.414399 0.128191
H44   H     H_    0.686181 0.402942 0.550119 0.146301
H45   H     H_    0.125253 0.513076 0.461190 0.156794
H46   H     H_    0.838195 0.819052 0.577457 0.148832
H47   H     H_    0.625256 0.013065 0.461192 0.156790
H48   H     H_    0.338198 0.319051 0.577456 0.148832
H49   H     H_    0.593221 0.173555 0.447055 0.150348
H50   H     H_    0.240627 0.310483 0.583575 0.134333
H51   H     H_    0.093223 0.673568 0.447053 0.150343
H52   H     H_    0.740625 0.810481 0.583576 0.134332
H53   H     H_    0.613301 0.216244 0.571076 0.122205
H54   H     H_    0.231017 0.339476 0.458005 0.145073
H55   H     H_    0.113302 0.716255 0.571074 0.122204
H56   H     H_    0.731015 0.839475 0.458005 0.145072
H57   H     H_    0.645967 0.055940 0.584677 0.142605
H58   H     H_    0.328880 0.348585 0.452302 0.152433
H59   H     H_    0.145965 0.555949 0.584675 0.142604
H60   H     H_    0.828878 0.848587 0.452302 0.152435
H61   H     H_    0.032921 0.916056 0.448791 0.098064
H62   H     H_    0.058358 0.940207 0.577090 0.101874
H63   H     H_    0.532924 0.416056 0.448791 0.098065
H64   H     H_    0.558361 0.440209 0.577090 0.101877
H65   H     H_    0.996637 0.089887 0.377411 0.127516
H66   H     H_    0.047153 0.139018 0.633988 0.129576
H67   H     H_    0.496638 0.589886 0.377411 0.127516
H68   H     H_    0.547154 0.639020 0.633988 0.129575
H69   H     H_    0.926699 0.526199 0.360739 0.121849
H70   H     H_    0.007040 0.597788 0.606567 0.136203
H71   H     H_    0.426698 0.026198 0.360738 0.121849
H72   H     H_    0.507038 0.097789 0.606567 0.136203
O1    O     O_R   0.957020 0.451640 0.669920 -0.534502
O2    O     O_R   0.042980 0.451640 0.330080 -0.528958
O3    O     O_R   0.457020 0.951640 0.669920 -0.534503
O4    O     O_R   0.542980 0.951640 0.330080 -0.528958
O5    O     O_R   0.736470 0.210100 0.823360 -0.505408
O6    O     O_R   0.263530 0.210100 0.176640 -0.510469
O7    O     O_R   0.236470 0.710100 0.823360 -0.505408
O8    O     O_R   0.763530 0.710100 0.176640 -0.510469
O9    O     O_R   0.831960 0.093290 0.830130 -0.522869
O10   O     O_R   0.168040 0.093290 0.169870 -0.527250
O11   O     O_R   0.331960 0.593290 0.830130 -0.522869
O12   O     O_R   0.668040 0.593290 0.169870 -0.527250
O13   O     O_R   0.945600 0.250580 0.824860 -0.514773
O14   O     O_R   0.054400 0.250580 0.175140 -0.516753
O15   O     O_R   0.445600 0.750580 0.824860 -0.514773
O16   O     O_R   0.554400 0.750580 0.175140 -0.516753
O17   O     O_3   0.834640 0.334650 0.749500 -0.264030
O18   O     O_3   0.165360 0.334650 0.250500 -0.242035
O19   O     O_3   0.334640 0.834650 0.749500 -0.264029
O20   O     O_3   0.665360 0.834650 0.250500 -0.242035
O21   O     O_R   0.821450 0.543440 0.674610 -0.497094
O22   O     O_R   0.178550 0.543440 0.325390 -0.501995
O23   O     O_R   0.321450 0.043440 0.674610 -0.497094
O24   O     O_R   0.678550 0.043440 0.325390 -0.501994
O25   O     O_R   0.715320 0.458650 0.668100 -0.544233
O26   O     O_R   0.284680 0.458650 0.331900 -0.538210
O27   O     O_R   0.215320 0.958650 0.668100 -0.544233
O28   O     O_R   0.784680 0.958650 0.331900 -0.538210
O29   O     O_R   0.737170 0.209590 0.674530 -0.505530
O30   O     O_R   0.262830 0.209590 0.325470 -0.508247
O31   O     O_R   0.237170 0.709590 0.674530 -0.505530
O32   O     O_R   0.762830 0.709590 0.325470 -0.508247
O33   O     O_R   0.832710 0.092740 0.669580 -0.523273
O34   O     O_R   0.167290 0.092740 0.330420 -0.520986
O35   O     O_R   0.332710 0.592740 0.669580 -0.523274
O36   O     O_R   0.667290 0.592740 0.330420 -0.520986
O37   O     O_R   0.946290 0.250060 0.676040 -0.521163
O38   O     O_R   0.053710 0.250060 0.323960 -0.508497
O39   O     O_R   0.446290 0.750060 0.676040 -0.521163
O40   O     O_R   0.553710 0.750060 0.323960 -0.508497
O41   O     O_R   0.956270 0.452200 0.830470 -0.471233
O42   O     O_R   0.043730 0.452200 0.169530 -0.472060
O43   O     O_R   0.456270 0.952200 0.830470 -0.471233
O44   O     O_R   0.543730 0.952200 0.169530 -0.472060
O45   O     O_R   0.820760 0.543950 0.823440 -0.476133
O46   O     O_R   0.179240 0.543950 0.176560 -0.478069
O47   O     O_R   0.320760 0.043950 0.823440 -0.476133
O48   O     O_R   0.679240 0.043950 0.176560 -0.478069
O49   O     O_R   0.714570 0.459210 0.828640 -0.525878
O50   O     O_R   0.285430 0.459210 0.171360 -0.526799
O51   O     O_R   0.214570 0.959210 0.828640 -0.525878
O52   O     O_R   0.785430 0.959210 0.171360 -0.526799
O53   O     O_3   0.049015 0.632772 0.079512 -0.571198
C133  C     C_3   0.024852 0.722237 0.127484 -0.120350
H73   H     H_    0.986491 0.683408 0.165419 0.120863
H74   H     H_    0.001393 0.800893 0.098379 0.086552
H75   H     H_    0.069865 0.756209 0.159224 0.130296
O54   O     O_3   0.950689 0.635572 0.920475 -0.573557
C134  C     C_3   0.976698 0.723236 0.872683 -0.121406
H76   H     H_    0.014880 0.681976 0.835215 0.122675
H77   H     H_    0.000936 0.800633 0.901989 0.087932
H78   H     H_    0.932545 0.759628 0.840384 0.131130
O55   O     O_3   0.549015 0.132773 0.079512 -0.571198
C135  C     C_3   0.524851 0.222238 0.127484 -0.120350
H79   H     H_    0.486491 0.183408 0.165419 0.120863
H80   H     H_    0.501393 0.300893 0.098379 0.086552
H81   H     H_    0.569864 0.256210 0.159224 0.130295
O56   O     O_3   0.450689 0.135571 0.920475 -0.573557
C136  C     C_3   0.476698 0.223236 0.872683 -0.121406
H82   H     H_    0.514879 0.181976 0.835215 0.122675
H83   H     H_    0.500935 0.300633 0.901989 0.087931
H84   H     H_    0.432544 0.259627 0.840384 0.131130

loop_
_geom_bond_atom_site_label_1
_geom_bond_atom_site_label_2
_ccdc_geom_bond_type
Cr9   O33   S    
Cr7   O31   S    
C47   O31   A    
C2    C123  S    
Cr11  O35   S    
C116  O12   A    
O56   C136  S    
C6    H2    S    
C94   C117  S    
C95   C99   A    
C29   C33   A    
O54   C134  S    
C46   O34   A    
C82   H30   S    
C83   H27   S    
C70   C74   A    
C9    C121  A    
C17   H53   S    
C81   H25   S    
C112  O52   A    
C87   C115  S    
C108  O56   S    
C119  O15   A    
C97   C105  S    
C14   H50   S    
C15   C127  S    
C22   C130  A    
C19   C131  S    
Cr2   O22   S    
C20   C132  S    
C41   C49   A    
C108  H40   S    
C5    H1    S    
C62   C66   A    
C120  O44   A    
C60   C76   A    
C52   H71   S    
Cr8   O28   S    
C48   O36   A    
C43   C44   A    
C115  O11   A    
C37   C38   A    
Cr6   O30   S    
C66   C82   S    
C78   C82   S    
C113  O9    A    
C16   C20   S    
C19   H59   S    
Cr4   O44   S    
C17   H57   S    
C113  O5    A    
C112  O48   A    
Cr4   O24   S    
Cr7   O19   S    
C133  H74   S    
C18   C130  S    
Cr7   O7    S    
Cr7   O51   S    
C93   C102  A    
Cr11  O11   S    
C10   C122  A    
C14   C126  S    
C57   C61   A    
C118  O42   A    
C59   C63   A    
C98   C106  S    
C60   C64   A    
C1    C124  S    
C111  O51   A    
C136  H83   S    
C91   O39   A    
C49   C53   A    
C51   C55   A    
C127  C131  A    
C61   C65   A    
C5    C21   A    
Cr9   O17   S    
C126  C130  A    
C48   O32   A    
C79   H23   S    
C80   H24   S    
C51   H72   S    
C88   C116  S    
C72   H12   S    
C120  O16   A    
C97   C98   A    
C54   H6    S    
C53   C54   A    
Cr1   O45   S    
C33   H61   S    
C25   C90   S    
C64   C68   A    
Cr10  O14   S    
Cr6   O6    S    
C77   H21   S    
C73   H13   S    
C36   H64   S    
C57   C73   A    
C20   H56   S    
C60   C109  S    
C45   O33   A    
C27   C44   A    
C61   C77   S    
C29   C38   A    
C107  C108  S    
Cr7   O27   S    
C47   O35   A    
C14   H48   S    
C44   C52   A    
C15   H45   S    
Cr11  O39   S    
C53   H5    S    
Cr1   O21   S    
C21   C45   S    
C100  C108  S    
C23   C47   S    
C30   C34   A    
C24   C48   S    
C134  H78   S    
C135  H79   S    
C46   O30   A    
C109  O49   A    
C39   C40   A    
Cr8   O8    S    
C50   H69   S    
C1    O21   A    
C81   H29   S    
C121  C125  A    
C125  C129  A    
C25   C38   A    
Cr5   O29   S    
C123  C127  A    
C27   C40   A    
C8    C12   A    
Cr2   O18   S    
C23   C131  A    
C2    O26   A    
C21   C129  A    
C42   C50   A    
C90   O38   A    
C102  H34   S    
C93   C97   A    
C69   C85   A    
C58   C74   A    
Cr8   O32   S    
C62   C78   S    
C84   H28   S    
C66   C86   A    
C29   H65   S    
Cr3   O43   S    
Cr10  O38   S    
C13   C17   S    
C85   C113  S    
Cr5   O25   S    
C7    C23   A    
C96   C100  A    
C117  O13   A    
C8    C24   A    
C28   C91   S    
C90   O2    A    
C105  H37   S    
C4    O28   A    
C58   C62   A    
C119  O43   A    
C55   C56   A    
C101  C102  A    
C41   C42   A    
C96   C119  S    
C35   C36   A    
C135  H81   S    
C80   C84   S    
C15   C19   S    
Cr12  O40   S    
C5    C9    A    
C50   C54   A    
C115  O7    A    
C94   C98   A    
Cr9   O13   S    
C6    C22   A    
Cr5   O5    S    
C31   C40   A    
C32   C39   A    
C80   H20   S    
C7    H3    S    
C18   H54   S    
O55   C135  S    
Cr8   O52   S    
C69   C73   A    
C56   H8    S    
C124  C128  A    
C15   H51   S    
Cr1   O41   S    
C13   H49   S    
O53   C133  S    
C77   H17   S    
C64   C80   S    
C133  H75   S    
C8    H4    S    
Cr10  O10   S    
C105  O53   S    
C78   H22   S    
C74   H14   S    
C58   C111  S    
C68   C84   S    
C20   H60   S    
C45   O29   A    
Cr12  O20   S    
C28   C39   A    
Cr2   O2    S    
C49   H70   S    
C69   H9    S    
C30   C37   A    
C116  O8    A    
C136  H82   S    
C16   H52   S    
C114  O10   A    
C24   C132  A    
C65   C81   S    
C77   C81   S    
C71   H11   S    
C4    O24   A    
C18   H58   S    
Cr1   O17   S    
C114  O6    A    
C16   H46   S    
C71   C87   A    
C92   O40   A    
C35   H63   S    
C22   C46   S    
Cr3   O19   S    
Cr6   O18   S    
C109  O45   A    
C32   C36   A    
C110  O50   A    
C19   H55   S    
Cr12  O16   S    
C11   C123  A    
C25   C42   A    
C6    C10   A    
C26   C37   A    
Cr4   O4    S    
C95   C120  S    
C99   C107  S    
C105  C106  S    
C28   C43   A    
Cr9   O37   S    
C79   C83   S    
C43   C51   A    
C4    C121  S    
C103  H35   S    
C101  H33   S    
C96   C103  A    
C103  C104  A    
Cr8   O20   S    
C133  H73   S    
C84   H32   S    
C13   C125  S    
C3    O23   A    
C82   H26   S    
Cr3   O47   S    
Cr10  O34   S    
C83   H31   S    
Cr4   O48   S    
C14   C18   S    
C106  O54   S    
C72   C76   A    
C107  O55   S    
C63   C79   S    
C34   H62   S    
C26   C89   S    
C7    C11   A    
C11   H43   S    
C134  H77   S    
C135  H80   S    
C136  H84   S    
C9    H41   S    
C32   H68   S    
C57   C112  S    
C12   H44   S    
Cr4   O20   S    
C59   C110  S    
Cr11  O19   S    
C92   O4    A    
C106  H38   S    
C10   H42   S    
Cr5   O49   S    
C94   C101  A    
Cr6   O26   S    
C3    C122  S    
Cr2   O42   S    
Cr12  O36   S    
Cr2   O46   S    
C89   O37   A    
C128  C132  A    
C72   C88   A    
Cr9   O9    S    
C63   C67   A    
C17   C129  S    
C2    O22   A    
Cr6   O50   S    
Cr1   O1    S    
C107  H39   S    
C122  C126  A    
C117  O41   A    
C99   C100  A    
C12   C124  A    
Cr3   O3    S    
C33   C34   A    
C27   C92   S    
C3    O27   A    
C67   C83   S    
C16   C128  S    
C111  O47   A    
C1    O25   A    
C134  H76   S    
C78   H18   S    
C68   C88   A    
C93   C118  S    
Cr5   O17   S    
C70   C86   A    
C59   C75   A    
C95   C104  A    
C75   H15   S    
C55   H7    S    
C76   H16   S    
C70   H10   S    
C79   H19   S    
C30   H66   S    
C65   C85   A    
C67   C87   A    
C13   H47   S    
C86   C114  S    
Cr11  O15   S    
C71   C75   A    
C104  H36   S    
C118  O14   A    
Cr3   O23   S    
C31   C35   A    
C91   O3    A    
C110  O46   A    
C89   O1    A    
Cr10  O18   S    
C31   H67   S    
Cr12  O12   S    
C52   C56   A    
C26   C41   A    
