data_mof_unit_29410.cif
_audit_creation_date              2012-12-11T14:48:21-0500
_audit_creation_method            fapswitch 2.2
_symmetry_space_group_name_H-M    P1
_symmetry_Int_Tables_number       1
_space_group_crystal_system       triclinic
_cell_length_a                    8.326388
_cell_length_b                    15.130758
_cell_length_c                    22.851685
_cell_angle_alpha                 97.075727
_cell_angle_beta                  90.315174
_cell_angle_gamma                 99.727038
_cell_volume                      2814.94169984

loop_
_atom_site_label
_atom_site_type_symbol
_atom_type_description
_atom_site_fract_x
_atom_site_fract_y
_atom_site_fract_z
_atom_type_partial_charge
Ba1   Ba    Ba6+2 0.857590 0.542650 0.472590 1.720868
Ba2   Ba    Ba6+2 0.332250 0.457420 0.527420 1.699547
C1    C     C_3   0.756120 0.866963 0.347414 -0.243081
C2    C     C_R   0.116896 0.587160 0.938732 -0.079403
C3    C     C_R   0.072932 0.583537 0.878193 0.619478
C4    C     C_3   0.129133 0.729632 0.310640 0.341770
C5    C     C_R   0.873227 0.451221 0.884654 0.610183
C6    C     C_R   0.921386 0.450221 0.944187 -0.088450
C7    C     C_R   0.043114 0.518939 0.971493 -0.056061
C8    C     C_R   0.233237 0.657711 0.967333 -0.111445
C9    C     C_R   0.274913 0.661001 0.027100 0.630802
C10   C     C_R   0.204574 0.591781 0.060218 -0.070218
C11   C     C_R   0.090456 0.519719 0.031843 -0.196947
C12   C     C_3   0.644609 0.779316 0.321875 0.457957
C13   C     C_R   0.851477 0.381000 0.976807 -0.130427
C14   C     C_R   0.903326 0.378913 0.034947 0.644987
C15   C     C_R   0.023581 0.448400 0.063501 -0.099780
C16   C     C_3   0.105267 0.754105 0.249063 -0.266606
C17   C     C_R   0.079644 0.447833 0.122439 0.662004
C18   C     C_R   0.244256 0.593564 0.120954 0.602882
C19   C     C_2   0.751551 0.501450 0.769745 -0.077611
C20   C     C_3   0.704596 0.501735 0.705411 -0.038430
C21   C     C_1   0.997205 0.524138 0.685390 0.020792
C22   C     C_2   0.038778 0.522341 0.741728 -0.091907
C23   C     C_3   0.473500 0.327256 0.346285 0.299733
C24   C     C_2   0.910022 0.511640 0.788075 0.212393
C25   C     C_R   0.400100 0.558270 0.233692 0.023646
C26   C     C_R   0.447598 0.564189 0.293362 0.019553
C27   C     C_R   0.180073 0.488398 0.316139 0.042184
C28   C     C_3   0.318249 0.737127 0.655610 0.471138
C29   C     C_R   0.128246 0.486860 0.256767 -0.070775
C30   C     C_R   0.237238 0.522508 0.214104 0.201872
C31   C     C_2   0.847103 0.491283 0.665681 -0.273704
C32   C     C_R   0.776110 0.229804 0.505388 -0.278015
C33   C     C_R   0.876150 0.169776 0.518159 -0.023489
C34   C     C_3   0.449415 0.297785 0.280223 0.443983
C35   C     C_R   0.820369 0.075726 0.506582 0.496758
C36   C     C_R   0.654643 0.041586 0.488103 -0.030229
C37   C     C_R   0.555406 0.106378 0.477800 -0.136689
C38   C     C_R   0.619296 0.198690 0.483009 0.083458
C39   C     C_R   0.437700 0.905487 0.446921 0.502427
C40   C     C_3   0.358858 0.733517 0.720868 -0.355940
C41   C     C_R   0.362589 0.815505 0.447325 -0.042881
C42   C     C_R   0.587728 0.786313 0.504521 0.067341
C43   C     C_R   0.652984 0.879339 0.511362 -0.154367
C44   C     C_R   0.583169 0.941108 0.481089 -0.057489
C45   C     C_3   0.981548 0.236986 0.673934 0.478141
C46   C     C_R   0.442804 0.755230 0.472447 -0.364150
C47   C     C_3   0.981275 0.253539 0.387803 0.934781
C48   C     C_3   0.053834 0.167183 0.375668 0.603537
C49   C     C_3   0.755202 0.696900 0.657164 0.395917
C50   C     C_3   0.851890 0.761995 0.707126 0.589407
C51   C     C_3   0.757824 0.713445 0.802172 -0.155255
C52   C     C_3   0.614629 0.810655 0.218148 -0.104582
C53   C     C_3   0.693623 0.193147 0.635852 -0.213371
C54   C     C_3   0.961790 0.236992 0.839473 -0.106974
C55   C     C_3   0.870376 0.029098 0.699389 -0.208559
C56   C     C_3   0.960840 0.193757 0.732330 0.213726
C57   C     C_3   0.350482 0.066971 0.675114 -0.287212
C58   C     C_3   0.420381 0.126733 0.861280 -0.213336
C59   C     C_3   0.255321 0.848757 0.592377 -0.152019
C60   C     C_3   0.392995 0.268822 0.733893 0.903314
C61   C     C_3   0.423817 0.185396 0.764720 0.188610
C62   C     C_R   0.336941 0.530740 0.334054 -0.259309
F1    F     F_    0.814440 0.230000 0.383796 -0.720409
F2    F     F_    0.995237 0.119789 0.322031 -0.644909
F3    F     F_    0.772340 0.833852 0.724422 -0.741567
F4    F     F_    0.433694 0.370271 0.250700 -0.727076
F5    F     F_    0.313476 0.324644 0.772443 -0.713869
F6    F     F_    0.832246 0.309250 0.063331 -0.634134
F7    F     F_    0.387269 0.731619 0.051827 -0.663700
F8    F     F_    0.368411 0.955390 0.411736 -0.701933
F9    F     F_    0.928104 0.019946 0.514146 -0.708677
H1    H     H_    0.564721 0.757810 0.358335 -0.047494
H2    H     H_    0.812934 0.857315 0.389837 0.141186
H3    H     H_    0.970350 0.791287 0.689581 0.033706
H4    H     H_    0.684584 0.922794 0.356231 0.112258
H5    H     H_    0.362354 0.351298 0.363685 -0.078383
H6    H     H_    0.580095 0.382761 0.353989 0.070317
H7    H     H_    0.337877 0.245694 0.271638 0.082127
H8    H     H_    0.556122 0.268747 0.262987 0.103589
H9    H     H_    0.854869 0.887090 0.316565 0.163056
H10   H     H_    0.209306 0.804595 0.237692 0.139216
H11   H     H_    0.073303 0.300005 0.683306 0.057021
H12   H     H_    0.361488 0.663500 0.729858 0.094911
H13   H     H_    0.077916 0.174659 0.741611 0.093528
H14   H     H_    0.315481 0.246446 0.693566 -0.054701
H15   H     H_    0.555025 0.180648 0.762182 0.069325
H16   H     H_    0.039751 0.668242 0.316010 0.073191
H17   H     H_    0.757937 0.326758 0.956939 0.140250
H18   H     H_    0.491612 0.580140 0.202716 0.104800
H19   H     H_    0.291968 0.711484 0.943565 0.147783
H20   H     H_    0.165968 0.529413 0.754776 0.141004
H21   H     H_    0.655350 0.499114 0.801668 0.124685
H22   H     H_    0.003703 0.457152 0.244254 0.148436
H23   H     H_    0.480012 0.774713 0.733217 0.165073
H24   H     H_    0.376789 0.532292 0.379387 0.060200
H25   H     H_    0.254323 0.714409 0.315149 -0.078231
H26   H     H_    0.824410 0.461368 0.619955 0.083154
H27   H     H_    0.754184 0.902216 0.542234 0.172934
H28   H     H_    0.427752 0.087867 0.466081 0.184138
H29   H     H_    0.385469 0.685247 0.471215 0.093728
H30   H     H_    0.821198 0.301860 0.512653 0.089921
H31   H     H_    0.094797 0.692403 0.216846 0.088804
H32   H     H_    0.992590 0.783414 0.245644 0.138569
H33   H     H_    0.402340 0.704126 0.626957 0.075207
H34   H     H_    0.267307 0.761522 0.749351 0.107753
H35   H     H_    0.996874 0.736039 0.775515 0.209799
H36   H     H_    0.791752 0.675420 0.837522 0.106792
H37   H     H_    0.637695 0.678940 0.782839 0.088785
H38   H     H_    0.748985 0.782879 0.822766 0.171844
H39   H     H_    0.465445 0.842113 0.288205 0.199961
H40   H     H_    0.520188 0.821559 0.186578 0.181580
H41   H     H_    0.665701 0.750629 0.199391 0.144812
H42   H     H_    0.711385 0.871072 0.222917 0.110038
H43   H     H_    0.806754 0.320864 0.675553 0.172245
H44   H     H_    0.631241 0.174391 0.674904 0.128571
H45   H     H_    0.021908 0.286899 0.432690 -0.261861
H46   H     H_    0.727846 0.130443 0.613240 0.096922
H47   H     H_    0.607557 0.220141 0.608818 0.092693
H48   H     H_    0.827386 0.286412 0.776782 0.241297
H49   H     H_    0.846890 0.199584 0.855817 0.082859
H50   H     H_    0.004666 0.299871 0.870226 0.137645
H51   H     H_    0.059718 0.194541 0.839459 0.124532
H52   H     H_    0.772867 0.104698 0.767035 0.206988
H53   H     H_    0.754446 0.981062 0.690462 0.184278
H54   H     H_    0.950693 0.000296 0.728055 0.136823
H55   H     H_    0.927542 0.036294 0.656364 0.164632
H56   H     H_    0.021308 0.123517 0.410797 -0.026258
H57   H     H_    0.219288 0.073082 0.754375 0.202229
H58   H     H_    0.243476 0.014690 0.659182 0.130607
H59   H     H_    0.462343 0.035855 0.670722 0.126641
H60   H     H_    0.354199 0.120796 0.646066 0.125379
H61   H     H_    0.440854 0.260457 0.848946 0.262614
H62   H     H_    0.386211 0.142351 0.907971 0.134683
H63   H     H_    0.552217 0.121948 0.860241 0.107827
H64   H     H_    0.346263 0.060587 0.843517 0.134197
H65   H     H_    0.328256 0.877270 0.680488 0.190165
H66   H     H_    0.325731 0.908428 0.574809 0.080398
H67   H     H_    0.188293 0.183785 0.374429 -0.045450
H68   H     H_    0.131125 0.862616 0.603459 0.128719
H69   H     H_    0.241814 0.789733 0.557988 0.099560
H70   H     H_    0.837455 0.656395 0.632403 -0.061750
H71   H     H_    0.655532 0.651705 0.675783 -0.067721
N1    N     N_R   0.953347 0.515167 0.851065 -0.415440
N2    N     N_2   0.338138 0.830892 0.644409 -0.447119
N3    N     N_R   0.185674 0.521240 0.151821 -0.449001
N4    N     N_2   0.880809 0.716168 0.757437 -0.478610
N5    N     N_2   0.540441 0.796203 0.274458 -0.457212
N6    N     N_2   0.832635 0.262295 0.653149 -0.451387
N7    N     N_2   0.932452 0.259949 0.781029 -0.425498
N8    N     N_2   0.834146 0.113872 0.728529 -0.454026
N9    N     N_2   0.329803 0.099783 0.736559 -0.455836
N10   N     N_2   0.388667 0.197734 0.827742 -0.410589
O1    O     O_2   0.888680 0.450300 0.360330 -0.451835
O2    O     O_2   0.215290 0.183866 0.539445 -0.458278
O3    O     O_3   0.044763 0.177945 0.631260 -0.619872
O4    O     O_3   0.129270 0.451230 0.431380 -0.499958
O5    O     O_3   0.578310 0.608920 0.529980 -0.495674
O6    O     O_2   0.337770 0.279070 0.470480 -0.498217
O7    O     O_3   0.501085 0.252103 0.372537 -0.601786
O8    O     O_2   0.364287 0.440175 0.702114 -0.448281
O9    O     O_3   0.544501 0.316687 0.717506 -0.675189
O10   O     O_2   0.139527 0.642402 0.850053 -0.623388
O11   O     O_2   0.761142 0.393842 0.862632 -0.616129
O12   O     O_3   0.682352 0.748596 0.621846 -0.639659
O13   O     O_2   0.036392 0.380827 0.146938 -0.476296
O14   O     O_2   0.329543 0.660732 0.146504 -0.565275
O15   O     O_3   0.676100 0.614850 0.396630 -0.481182
O16   O     O_2   0.773975 0.545191 0.293059 -0.476355
O17   O     O_3   0.029136 0.307659 0.343699 -0.622282
O18   O     O_3   0.741796 0.714644 0.300776 -0.607824
O19   O     O_2   0.851930 0.720960 0.529560 -0.452057
O20   O     O_3   0.095720 0.661380 0.425720 -0.512360
O21   O     O_2   0.034791 0.823952 0.464602 -0.425366
O22   O     O_3   0.103242 0.801771 0.352185 -0.551566
O23   O     O_2   0.301020 0.549730 0.639710 -0.501118
O24   O     O_3   0.060450 0.548840 0.568630 -0.457343
O25   O     O_3   0.513610 0.385220 0.603380 -0.483583
O26   O     O_3   0.157354 0.694790 0.641011 -0.661095
O27   O     O_3   0.611400 0.391150 0.470030 -0.476480
O28   O     O_3   0.093990 0.338690 0.574280 -0.486500
P1    P     P_3+3 0.054670 0.423610 0.368990 1.046852
P2    P     P_3+3 0.674060 0.707690 0.546600 0.995560
P3    P     P_3+3 0.148945 0.776919 0.422629 1.051519
P4    P     P_3+3 0.135040 0.576460 0.631020 0.977791
P5    P     P_3+3 0.061310 0.219104 0.562904 1.040346
P6    P     P_3+3 0.658282 0.608258 0.319883 0.975772
P7    P     P_3+3 0.516854 0.278772 0.449215 1.051294
P8    P     P_3+3 0.526369 0.411669 0.681276 0.998193

loop_
_geom_bond_atom_site_label_1
_geom_bond_atom_site_label_2
_ccdc_geom_bond_type
C51   H37   S    
C19   C24   D    
C55   N8    S    
C61   H15   S    
O24   P4    S    
C55   H55   S    
H43   N6    S    
C57   N9    S    
O22   P3    S    
C30   N3    S    
C53   H46   S    
C49   H71   S    
C42   C43   A    
C57   H58   S    
C35   C36   A    
C47   F1    S    
C40   H23   S    
C4    H25   S    
O17   P1    S    
Ba1   O4    S    
C33   C35   A    
C22   C24   S    
O6    P7    D    
C32   C33   A    
C26   P6    S    
O20   P3    S    
C53   H44   S    
C36   C37   A    
C48   H67   S    
C19   H21   S    
C41   P3    S    
C51   H36   S    
C13   C14   A    
C52   H40   S    
Ba1   Ba2   S    
Ba2   O28   S    
O1    P1    D    
Ba1   O1    S    
C7    C11   A    
O27   P7    S    
C38   P7    S    
C47   H45   S    
O19   P2    D    
C23   O7    S    
C14   C15   A    
C21   C31   D    
H57   N9    S    
C39   C44   A    
C12   H1    S    
C25   H18   S    
Ba2   O23   S    
O5    P2    S    
C20   P8    S    
C1    H2    S    
C41   C46   A    
C42   P2    S    
Ba2   O4    S    
C58   H64   S    
C3    O10   D    
C51   H38   S    
C5    O11   D    
C27   C62   A    
C8    H19   S    
C50   N4    S    
C19   C20   S    
C28   H33   S    
C39   C41   A    
C17   O13   D    
C18   O14   D    
C56   H13   S    
H35   N4    S    
Ba1   P2    S    
C56   N8    S    
C37   H28   S    
C52   N5    S    
C53   H47   S    
Ba2   O6    S    
Ba1   P1    S    
C4    C16   S    
C57   H59   S    
C3    N1    Am   
C23   H5    S    
C54   H50   S    
Ba1   O5    S    
O12   P2    S    
C61   N9    S    
C12   O18   S    
C34   H7    S    
C55   H53   S    
C47   O17   S    
Ba1   O27   S    
C6    C7    A    
C43   C44   A    
C57   H60   S    
C51   N4    S    
C17   N3    Am   
O23   P4    D    
C49   C50   S    
C60   F5    S    
C31   H26   S    
Ba2   O27   S    
C54   H49   S    
C24   N1    S    
C59   N2    S    
Ba2   P4    S    
C60   C61   S    
C48   H56   S    
O21   P3    D    
Ba1   O24   S    
C60   O9    S    
C45   N6    S    
C34   H8    S    
C21   C22   D    
Ba1   O19   S    
C52   H42   S    
C10   C18   A    
C1    H9    S    
C16   H10   S    
C18   N3    Am   
C14   F6    S    
C40   H12   S    
C16   H31   S    
C45   H11   S    
C54   N7    S    
C48   F2    S    
C58   H62   S    
C1    C12   S    
O26   P4    S    
C39   F8    S    
C26   C62   A    
O7    P7    S    
C62   H24   S    
O15   P6    S    
C6    C13   A    
C40   H34   S    
C32   C38   A    
Ba2   O25   S    
Ba2   O5    S    
C2    C8    A    
C1    H4    S    
C54   H51   S    
O8    P8    D    
C56   N7    S    
C53   N6    S    
C45   O3    S    
O2    P5    D    
C59   H68   S    
C20   C31   S    
C35   F9    S    
H52   N8    S    
C27   P1    S    
C25   C30   A    
C23   H6    S    
C29   C30   A    
C59   H66   S    
O3    P5    S    
C61   N10   S    
C50   F3    S    
C2    C3    A    
C50   H3    S    
C43   H27   S    
C55   H54   S    
C21   P4    S    
C9    C10   A    
C34   F4    S    
C49   H70   S    
C4    H16   S    
C60   H14   S    
C32   H30   S    
C11   C15   A    
C46   H29   S    
H65   N2    S    
C28   N2    S    
C58   H63   S    
C16   H32   S    
Ba1   O20   S    
C27   C29   A    
C22   H20   S    
C45   C56   S    
H61   N10   S    
O25   P8    S    
C4    O22   S    
O18   P6    S    
C29   H22   S    
C52   H41   S    
C12   N5    S    
Ba1   O15   S    
C15   C17   A    
O9    P8    S    
C9    F7    S    
O28   P5    S    
C58   N10   S    
C36   C44   S    
C5    C6    A    
C8    C9    A    
C23   C34   S    
C37   C38   A    
H48   N7    S    
C59   H69   S    
C10   C11   A    
C33   P5    S    
C47   C48   S    
O16   P6    D    
C25   C26   A    
C28   O26   S    
H39   N5    S    
C28   C40   S    
C49   O12   S    
Ba2   O24   S    
C5    N1    Am   
C2    C7    A    
C42   C46   A    
O4    P1    S    
C13   H17   S    
