data_mof_unit_18083.cif
_audit_creation_date              2012-10-26T19:15:56-0400
_audit_creation_method            fapswitch 2.2
_symmetry_space_group_name_H-M    P1
_symmetry_Int_Tables_number       1
_space_group_crystal_system       triclinic
_cell_length_a                    7.811219
_cell_length_b                    9.085881
_cell_length_c                    17.068167
_cell_angle_alpha                 89.543718
_cell_angle_beta                  94.043232
_cell_angle_gamma                 89.986826
_cell_volume                      1208.30503439

loop_
_atom_site_label
_atom_site_type_symbol
_atom_type_description
_atom_site_fract_x
_atom_site_fract_y
_atom_site_fract_z
_atom_type_partial_charge
C1    C     C_R   0.499986 0.220139 0.499979 0.555360
C2    C     C_R   0.614160 0.415570 0.146205 -0.120642
C3    C     C_R   0.567987 0.451932 0.902121 0.188192
C4    C     C_R   0.459832 0.437788 0.100268 0.170572
C5    C     C_R   0.705245 0.414272 0.857250 0.276688
C6    C     C_R   0.306613 0.452407 0.138122 0.270155
C7    C     C_R   0.690418 0.438871 0.775763 -0.195659
C8    C     C_R   0.315776 0.489660 0.217499 -0.180248
C9    C     C_1   0.499997 0.065416 0.500022 -0.052291
C10   C     C_1   0.499977 0.934592 0.500063 -0.056979
C11   C     C_3   0.897383 0.383063 0.275008 -0.010321
C12   C     C_R   0.500011 0.779860 0.500070 0.546216
C13   C     C_3   0.013780 0.269905 0.318302 -0.336356
C14   C     C_3   0.229485 0.723005 0.749185 0.001720
C15   C     C_3   0.061823 0.771554 0.705858 -0.343780
C16   C     C_3   0.899081 0.220695 0.862858 -0.023117
C17   C     C_3   0.073344 0.229585 0.828263 -0.366756
C18   C     C_3   0.153591 0.267881 0.075061 0.012890
C19   C     C_3   0.978223 0.196121 0.075972 -0.385187
C20   C     C_R   0.521436 0.498009 0.651424 0.555295
C21   C     C_R   0.479068 0.494277 0.348786 0.570498
C22   C     C_R   0.536134 0.488781 0.737638 -0.041370
C23   C     C_R   0.470602 0.472470 0.263286 -0.024652
C24   C     C_R   0.397570 0.524779 0.782263 0.203292
C25   C     C_R   0.615653 0.418132 0.228335 0.215897
C26   C     C_R   0.414498 0.507020 0.863684 -0.142484
Cu1   Cu    Cu3+1 0.669080 0.500010 0.500000 1.011104
Cu2   Cu    Cu3+1 0.330920 0.499990 0.500000 1.003604
H1    H     H_    0.728093 0.384845 0.118788 0.151126
H2    H     H_    0.337329 0.775879 0.720036 0.124704
H3    H     H_    0.229916 0.761491 0.811001 0.123133
H4    H     H_    0.951398 0.721632 0.733936 0.160534
H5    H     H_    0.050396 0.893282 0.707688 0.084695
H6    H     H_    0.058556 0.736404 0.643578 0.183864
H7    H     H_    0.802776 0.175626 0.817859 0.108173
H8    H     H_    0.908350 0.138500 0.911310 0.138325
H9    H     H_    0.172729 0.265680 0.873629 0.161904
H10   H     H_    0.109499 0.119573 0.806855 0.086018
H11   H     H_    0.068949 0.308601 0.778326 0.194113
H12   H     H_    0.305732 0.535946 0.896450 0.175101
H13   H     H_    0.243878 0.197126 0.112621 0.116767
H14   H     H_    0.192747 0.265074 0.013874 0.174035
H15   H     H_    0.984872 0.082240 0.053239 0.097194
H16   H     H_    0.937110 0.189586 0.136709 0.149443
H17   H     H_    0.883272 0.258716 0.037836 0.211853
H18   H     H_    0.798464 0.413844 0.741834 0.156337
H19   H     H_    0.200500 0.520621 0.244552 0.125144
H20   H     H_    0.907798 0.489346 0.306910 0.159042
H21   H     H_    0.940816 0.398959 0.215165 0.155483
H22   H     H_    0.999686 0.161558 0.288868 0.149299
H23   H     H_    0.149842 0.303351 0.318668 0.126315
H24   H     H_    0.978546 0.257843 0.379935 0.182377
N1    N     N_1   0.076820 0.499970 0.500010 -0.095439
N2    N     N_1   0.923180 0.500030 0.499990 -0.095734
N3    N     N_2   0.588115 0.436342 0.985406 -0.215805
N4    N     N_2   0.449026 0.441689 0.016952 -0.252814
O1    O     O_R   0.642760 0.288400 0.500000 -0.489890
O2    O     O_3   0.241270 0.568213 0.746388 -0.539956
O3    O     O_3   0.855900 0.359138 0.894307 -0.535882
O4    O     O_3   0.148495 0.416591 0.100794 -0.548963
O5    O     O_R   0.357240 0.711600 0.500000 -0.500278
O6    O     O_R   0.357190 0.288380 0.500000 -0.506366
O7    O     O_R   0.642810 0.711620 0.500000 -0.500636
O8    O     O_R   0.658410 0.498660 0.613920 -0.521663
O9    O     O_R   0.341590 0.501340 0.386080 -0.530471
O10   O     O_R   0.372840 0.498650 0.613930 -0.446900
O11   O     O_R   0.627160 0.501350 0.386070 -0.467052
O12   O     O_3   0.728692 0.329052 0.273286 -0.548770

loop_
_geom_bond_atom_site_label_1
_geom_bond_atom_site_label_2
_ccdc_geom_bond_type
C20   O8    A    
Cu2   O10   S    
N3    N4    D    
C19   H17   S    
C11   H21   S    
C1    O1    A    
C19   H15   S    
C13   H24   S    
C9    C10   T    
C15   H6    S    
C2    C4    A    
C14   H3    S    
Cu2   N1    S    
C1    O6    A    
C21   C23   S    
Cu2   O9    S    
C8    H19   S    
C15   H4    S    
C17   H9    S    
N1    N2    T    
C21   O11   A    
C12   O5    A    
C11   C13   S    
C19   H16   S    
C26   H12   S    
C11   H20   S    
C16   H8    S    
C25   O12   S    
Cu1   O7    S    
C14   H2    S    
C2    H1    S    
C10   C12   S    
C18   O4    S    
C20   C22   S    
C2    C25   A    
C17   H10   S    
C23   C25   A    
C16   H7    S    
Cu1   O1    S    
C14   O2    S    
C22   C24   A    
Cu1   N2    S    
C4    C6    A    
Cu1   O11   S    
Cu1   O8    S    
C5    O3    S    
Cu2   O5    S    
C13   H22   S    
C7    C22   A    
C7    H18   S    
C6    O4    S    
C8    C23   A    
C1    C9    S    
C11   O12   S    
C24   O2    S    
C18   C19   S    
C17   H11   S    
C18   H13   S    
C20   O10   A    
Cu1   Cu2   S    
C5    C7    A    
C12   O7    A    
C14   C15   S    
C6    C8    A    
C18   H14   S    
C21   O9    A    
C13   H23   S    
C3    N3    S    
C15   H5    S    
C3    C26   A    
C4    N4    S    
C24   C26   A    
C16   C17   S    
C3    C5    A    
C16   O3    S    
Cu2   O6    S    
