data_mof_unit_66299.cif
_audit_creation_date              2013-03-05T16:40:24-0500
_audit_creation_method            fapswitch 2.2
_symmetry_space_group_name_H-M    P1
_symmetry_Int_Tables_number       1
_space_group_crystal_system       triclinic
_cell_length_a                    13.001283
_cell_length_b                    17.715601
_cell_length_c                    16.541603
_cell_angle_alpha                 91.582268
_cell_angle_beta                  96.900361
_cell_angle_gamma                 90.934117
_cell_volume                      3780.17539838

loop_
_atom_site_label
_atom_site_type_symbol
_atom_site_description
_atom_site_fract_x
_atom_site_fract_y
_atom_site_fract_z
_atom_type_partial_charge
O1    O     O_R   0.499990 0.391240 0.567930 -0.581572
O2    O     O_R   0.500010 0.608760 0.432070 -0.581589
O3    O     O_R   0.500000 0.391270 0.432120 -0.543027
O4    O     O_R   0.500000 0.608730 0.567880 -0.543008
C1    C     C_R   0.502025 0.355550 0.499367 0.879498
C2    C     C_R   0.497972 0.644449 0.500633 0.879626
O5    O     O_R   0.348990 0.499980 0.556880 -0.593584
O6    O     O_R   0.651010 0.500020 0.443120 -0.593558
O7    O     O_R   0.349000 0.500000 0.421060 -0.522010
O8    O     O_R   0.651000 0.500000 0.578940 -0.522039
C3    C     C_R   0.300457 0.500939 0.484669 0.864108
C4    C     C_R   0.699542 0.499060 0.515331 0.863984
Cu1   Cu    Cu3+1 0.500000 0.499980 0.580420 1.059153
Cu2   Cu    Cu3+1 0.500000 0.500020 0.419580 1.059124
C5    C     C_R   0.812070 0.502602 0.524011 -0.073843
C6    C     C_R   0.187928 0.497399 0.475991 -0.073824
C7    C     C_R   0.031850 0.427950 0.423619 -0.142462
C8    C     C_R   0.968146 0.572055 0.576379 -0.142455
C9    C     C_R   0.137181 0.441079 0.424865 -0.200296
C10   C     C_R   0.862813 0.558930 0.575128 -0.200253
C11   C     C_R   0.132341 0.543597 0.525242 0.107798
C12   C     C_R   0.867660 0.456398 0.474770 0.107736
C13   C     C_R   0.025399 0.529398 0.525568 0.079561
C14   C     C_R   0.974600 0.470601 0.474438 0.079588
H1    H     H_    0.820205 0.595398 0.611831 0.216867
H2    H     H_    0.179787 0.404618 0.388151 0.216867
H3    H     H_    0.997055 0.383241 0.383230 0.194158
H4    H     H_    0.002937 0.616769 0.616761 0.194161
C15   C     C_R   0.562940 0.847045 0.564363 0.359428
C16   C     C_R   0.437058 0.152947 0.435626 0.359306
C17   C     C_R   0.560711 0.767907 0.561190 -0.233096
C18   C     C_R   0.439319 0.232088 0.438778 -0.233085
H5    H     H_    0.612473 0.737690 0.604377 0.246662
H6    H     H_    0.387609 0.262306 0.395553 0.246759
C19   C     C_R   0.494238 0.727186 0.501999 -0.208728
C20   C     C_R   0.505739 0.272811 0.498007 -0.208729
C21   C     C_R   0.429058 0.766186 0.443198 0.326713
C22   C     C_R   0.570819 0.233815 0.556879 0.326753
C23   C     C_R   0.432989 0.845163 0.445016 -0.207844
C24   C     C_R   0.566868 0.154841 0.555081 -0.207887
H7    H     H_    0.383442 0.875532 0.400043 0.223100
H8    H     H_    0.616350 0.124483 0.600111 0.223022
C25   C     C_R   0.498415 0.885500 0.504876 -0.077272
C26   C     C_R   0.501504 0.114498 0.495178 -0.077226
C27   C     C_1   0.499683 0.966208 0.501657 0.129501
C28   C     C_1   0.500234 0.033791 0.498415 0.129499
C29   C     C_R   0.538972 0.559023 0.836464 -0.263979
C30   C     C_R   0.461030 0.440981 0.163534 -0.263956
H9    H     H_    0.572368 0.606454 0.874053 0.188612
H10   H     H_    0.427636 0.393551 0.125943 0.188623
C31   C     C_R   0.540742 0.559565 0.751333 0.545671
C32   C     C_R   0.459262 0.440435 0.248665 0.545679
N1    N     N_R   0.499970 0.499970 0.701220 -0.229746
N2    N     N_R   0.500030 0.500030 0.298780 -0.229729
C33   C     C_R   0.456116 0.440144 0.736558 0.056515
C34   C     C_R   0.543882 0.559859 0.263444 0.056395
H11   H     H_    0.421500 0.393485 0.698810 0.155405
H12   H     H_    0.578498 0.606517 0.301193 0.155384
C35   C     C_R   0.454326 0.437854 0.822069 -0.224242
C36   C     C_R   0.545672 0.562152 0.177932 -0.224315
H13   H     H_    0.419790 0.389411 0.847780 0.170500
H14   H     H_    0.580207 0.610596 0.152224 0.170488
C37   C     C_R   0.496757 0.498001 0.873260 0.060882
C38   C     C_R   0.503243 0.502005 0.126739 0.060898
C39   C     C_1   0.498534 0.498779 0.962732 0.034402
C40   C     C_1   0.501466 0.501230 0.037268 0.034390
I1    I     I_    0.789266 0.363530 0.404912 -0.227969
I2    I     I_    0.210742 0.636441 0.595138 -0.227905
N3    N     N_R   0.631574 0.886588 0.627152 0.148903
O9    O     O_R   0.609365 0.953282 0.654228 -0.324790
O10   O     O_R   0.712155 0.853039 0.663123 -0.285183
N4    N     N_R   0.368465 0.113405 0.372798 0.148932
O11   O     O_R   0.390554 0.046628 0.345875 -0.324881
O12   O     O_R   0.288058 0.147020 0.336639 -0.285053
N5    N     N_R   0.357239 0.727084 0.382693 0.138720
O13   O     O_R   0.335412 0.755107 0.310897 -0.309710
O14   O     O_R   0.302778 0.669639 0.402298 -0.338051
N6    N     N_R   0.642540 0.272924 0.617451 0.138711
O15   O     O_R   0.663967 0.245046 0.689362 -0.309803
O16   O     O_R   0.697243 0.330247 0.597849 -0.337917
N7    N     N_R   0.586932 0.623945 0.719354 0.119870
O17   O     O_R   0.557734 0.690982 0.739908 -0.336739
O18   O     O_R   0.675346 0.617078 0.691183 -0.381848
N8    N     N_R   0.413081 0.376050 0.280641 0.119845
O19   O     O_R   0.442272 0.309017 0.260063 -0.336738
O20   O     O_R   0.324667 0.382913 0.308815 -0.381857

loop_
_geom_bond_atom_site_label_1
_geom_bond_atom_site_label_2
_geom_bond_distance
_ccdc_geom_bond_type
O5    Cu1   1.955138 S    
C22   C24   1.398537 A    
C37   C39   1.477078 S    
C6    C11   1.407041 A    
C33   C35   1.419164 A    
N5    O13   1.301385 A    
N7    O17   1.301348 A    
C29   H9    1.084231 S    
C27   C28   1.199890 T    
O5    C3    1.282803 A    
O1    C1    1.286426 A    
C18   C20   1.401226 A    
C19   C21   1.414109 A    
N8    O20   1.297490 A    
C29   C37   1.391997 A    
N6    O16   1.300869 A    
C30   C38   1.391994 A    
C10   H1    1.078751 S    
C1    C20   1.466994 S    
C32   N8    1.424283 S    
C2    C19   1.466976 S    
C8    C10   1.382910 A    
C36   H14   1.082799 S    
O4    Cu1   1.943393 S    
N3    O10   1.301892 A    
C9    H2    1.078756 S    
C5    C12   1.407026 A    
C26   C28   1.432152 S    
C13   C14   1.425214 A    
C17   H5    1.080339 S    
C31   N7    1.424281 S    
C15   N3    1.443089 S    
O7    C3    1.290217 A    
C30   H10   1.084234 S    
C21   N5    1.438572 S    
Cu1   Cu2   2.660569 S    
C15   C25   1.411888 A    
C16   C26   1.412002 A    
O2    C2    1.286432 A    
N7    O18   1.297477 A    
C32   N2    1.382251 A    
Cu1   N1    1.998277 S    
N1    C33   1.372839 A    
C11   C13   1.409591 A    
C5    C10   1.394218 A    
N2    C34   1.372844 A    
C35   H13   1.082799 S    
C7    C14   1.401850 A    
C8    C13   1.401850 A    
C7    H3    1.079265 S    
C8    H4    1.079258 S    
N8    O19   1.301375 A    
N4    O12   1.301903 A    
N6    O15   1.301460 A    
C23   C25   1.397639 A    
C22   N6    1.438590 S    
C34   C36   1.419167 A    
C31   N1    1.382247 A    
C38   C40   1.477080 S    
O7    Cu2   1.966279 S    
C25   C27   1.432147 S    
C3    C6    1.452931 S    
C16   N4    1.443210 S    
C4    C5    1.452919 S    
C24   C26   1.397713 A    
O6    C4    1.282809 A    
N5    O14   1.300796 A    
O3    Cu2   1.943391 S    
O8    C4    1.290207 A    
O4    C2    1.292608 A    
Cu2   N2    1.998277 S    
C33   H11   1.080523 S    
C11   I2    2.153660 S    
C17   C19   1.401176 A    
O1    Cu1   1.931757 S    
O6    Cu2   1.955137 S    
N4    O11   1.301156 A    
O3    C1    1.292625 A    
O8    Cu1   1.966278 S    
C29   C31   1.411439 A    
C35   C37   1.405533 A    
C36   C38   1.405534 A    
C20   C22   1.414123 A    
C21   C23   1.398582 A    
C16   C18   1.401263 A    
C6    C9    1.394225 A    
C24   H8    1.084530 S    
C7    C9    1.382915 A    
C34   H12   1.080524 S    
C12   C14   1.409591 A    
N3    O9    1.301135 A    
O2    Cu2   1.931757 S    
C12   I1    2.153644 S    
C30   C32   1.411439 A    
C23   H7    1.084483 S    
C15   C17   1.401214 A    
C39   C40   1.228492 T    
C18   H6    1.080356 S    
