data_mof_unit_13143.cif
_audit_creation_date              2012-12-10T17:22:07-0500
_audit_creation_method            fapswitch 2.2
_symmetry_space_group_name_H-M    P1
_symmetry_Int_Tables_number       1
_space_group_crystal_system       triclinic
_cell_length_a                    15.860003
_cell_length_b                    10.767491
_cell_length_c                    9.643873
_cell_angle_alpha                 90.486985
_cell_angle_beta                  89.223758
_cell_angle_gamma                 93.035909
_cell_volume                      1644.39547622

loop_
_atom_site_label
_atom_site_type_symbol
_atom_type_description
_atom_site_fract_x
_atom_site_fract_y
_atom_site_fract_z
_atom_type_partial_charge
C1    C     C_R   0.497420 0.262879 0.499705 0.830027
C2    C     C_3   0.946258 0.389788 0.577333 -0.464975
C3    C     C_3   0.917120 0.504053 0.497740 0.085455
C4    C     C_3   0.954130 0.624442 0.570481 0.236869
C5    C     C_3   0.053012 0.623879 0.572608 0.130720
C6    C     C_1   0.824750 0.500959 0.497383 0.017979
C7    C     C_1   0.175404 0.501686 0.501553 0.053560
C8    C     C_1   0.250897 0.500278 0.502159 -0.129871
C9    C     C_R   0.356562 0.119747 0.626412 -0.163797
C10   C     C_R   0.290237 0.050248 0.689488 -0.110631
C11   C     C_R   0.290692 0.921123 0.691269 -0.064563
C12   C     C_R   0.340466 0.499350 0.500803 0.779340
C13   C     C_R   0.357410 0.860707 0.629827 -0.148370
C14   C     C_R   0.425913 0.929340 0.566869 0.072999
C15   C     C_R   0.425591 0.060576 0.565254 0.021548
C16   C     C_R   0.493462 0.128738 0.499614 -0.192243
C17   C     C_R   0.560320 0.068508 0.436627 0.465719
C18   C     C_R   0.559280 0.939925 0.436725 -0.255740
C19   C     C_R   0.493856 0.870634 0.502265 -0.152201
C20   C     C_R   0.584484 0.704735 0.135491 0.368705
C21   C     C_R   0.595590 0.814570 0.059882 -0.308521
C22   C     C_R   0.601933 0.807145 0.916063 0.448441
C23   C     C_R   0.498336 0.737051 0.500624 0.833039
C24   C     C_R   0.588347 0.691376 0.853720 -0.147649
C25   C     C_R   0.543707 0.594304 0.924315 0.063724
C26   C     C_R   0.543330 0.596732 0.073103 0.044827
C27   C     C_R   0.455840 0.410861 0.074333 0.572986
C28   C     C_R   0.457538 0.410274 0.925883 -0.140818
C29   C     C_R   0.659479 0.498879 0.499285 0.858691
C30   C     C_3   0.043763 0.389959 0.578815 -0.419724
C31   C     C_3   0.050382 0.500112 0.347256 0.240224
C32   C     C_3   0.952389 0.497507 0.347259 -0.350954
C33   C     C_1   0.749140 0.499428 0.497835 -0.089104
C34   C     C_3   0.083154 0.503984 0.499174 0.087975
Cu1   Cu    Cu3+1 0.499990 0.499990 0.640660 0.935087
Cu2   Cu    Cu3+1 0.500010 0.500010 0.359340 1.046552
H1    H     H_    0.920536 0.302329 0.527618 0.222293
H2    H     H_    0.065586 0.392317 0.688093 0.177242
H3    H     H_    0.921409 0.390963 0.685831 0.190109
H4    H     H_    0.352522 0.219659 0.624868 0.134922
H5    H     H_    0.237904 0.096767 0.736098 0.148891
H6    H     H_    0.238718 0.867428 0.739287 0.169741
H7    H     H_    0.354105 0.760237 0.631039 0.147330
H8    H     H_    0.611210 0.894457 0.388188 0.209503
H9    H     H_    0.064779 0.301890 0.531852 0.253512
H10   H     H_    0.620405 0.898617 0.110830 0.207456
H11   H     H_    0.612567 0.681317 0.750571 0.217818
H12   H     H_    0.424019 0.336027 0.869851 0.144660
H13   H     H_    0.075208 0.584819 0.291880 0.178753
H14   H     H_    0.925979 0.411401 0.295695 0.216445
H15   H     H_    0.931421 0.576924 0.285781 0.214058
H16   H     H_    0.072519 0.621840 0.683030 0.109279
H17   H     H_    0.930891 0.624249 0.679958 0.104411
N1    N     N_R   0.500800 0.501210 0.147910 -0.218239
N2    N     N_R   0.500820 0.501290 0.852040 -0.196230
O1    O     O_R   0.499990 0.319640 0.618810 -0.612270
O2    O     O_R   0.500000 0.319660 0.381240 -0.490105
O3    O     O_R   0.379430 0.499990 0.618840 -0.593707
O4    O     O_R   0.379440 0.500020 0.381260 -0.555339
O5    O     O_R   0.500000 0.680340 0.618760 -0.606040
O6    O     O_R   0.500010 0.680360 0.381190 -0.565211
O7    O     O_R   0.620560 0.499980 0.618740 -0.606569
O8    O     O_R   0.620570 0.500010 0.381160 -0.502485
Cl1   Cl    Cl    0.914099 0.762078 0.495513 -0.487958
O9    O     O_3   0.625617 0.135598 0.370239 -0.567173
C35   C     C_3   0.694006 0.150345 0.461929 -0.267594
H18   H     H_    0.719089 0.059085 0.488680 0.203137
H19   H     H_    0.676039 0.201396 0.557853 0.131332
H20   H     H_    0.745683 0.206520 0.409899 0.193455
O10   O     O_3   0.412065 0.316741 0.146073 -0.565298
C36   C     C_3   0.324935 0.319969 0.119393 -0.247643
H21   H     H_    0.309804 0.279740 0.015656 0.141515
H22   H     H_    0.301902 0.415737 0.129053 0.176577
H23   H     H_    0.289869 0.261751 0.197602 0.224066
Cl2   Cl    Cl    0.671984 0.698143 0.243407 -0.591197
O11   O     O_3   0.635452 0.905300 0.837452 -0.554755
C37   C     C_3   0.583085 0.006913 0.849841 -0.254675
H24   H     H_    0.591657 0.054816 0.951558 0.181303
H25   H     H_    0.515273 0.978434 0.834245 0.157783
H26   H     H_    0.601615 0.075161 0.767980 0.181287
Cl3   Cl    Cl    0.087555 0.370361 0.249954 -0.647809
Cl4   Cl    Cl    0.106046 0.762576 0.503247 -0.561890

loop_
_geom_bond_atom_site_label_1
_geom_bond_atom_site_label_2
_ccdc_geom_bond_type
C35   H19   S    
C29   O8    A    
C4    H17   S    
C30   H9    S    
Cu1   Cu2   S    
C22   O11   S    
Cu2   O4    S    
C27   N1    A    
C7    C8    T    
C37   H24   S    
Cu1   O3    S    
C1    O1    A    
C1    O2    A    
C35   H20   S    
C15   C16   A    
C29   C33   S    
C30   H2    S    
C11   H6    S    
C18   C19   A    
C12   O4    A    
C2    H3    S    
C16   C17   A    
C5    H16   S    
O10   C36   S    
Cu2   O8    S    
C9    C10   A    
C12   O3    A    
C3    C6    S    
C35   H18   S    
C21   C22   A    
C10   H5    S    
C31   H13   S    
C26   N1    A    
C28   N2    A    
C37   H25   S    
C23   O5    A    
C30   C34   S    
Cu1   N2    S    
O11   C37   S    
Cu2   O2    S    
C36   H22   S    
C25   C26   A    
C9    H4    S    
C20   Cl2   S    
Cu1   O5    S    
C19   C23   S    
C32   H15   S    
C18   H8    S    
C31   C32   S    
C8    C12   S    
C5    C34   S    
C17   C18   A    
C31   C34   S    
C1    C16   S    
C24   C25   A    
C32   H14   S    
C27   O10   S    
C7    C34   S    
C22   C24   A    
Cu2   O6    S    
C13   H7    S    
C21   H10   S    
C37   H26   S    
C29   O7    A    
C28   H12   S    
Cu1   O1    S    
C24   H11   S    
C14   C19   A    
C25   N2    A    
C4    C5    S    
C36   H23   S    
C4    Cl1   S    
C17   O9    S    
C31   Cl3   S    
C6    C33   T    
C2    C30   S    
C2    C3    S    
C9    C15   A    
C36   H21   S    
C5    Cl4   S    
C11   C13   A    
C2    H1    S    
C20   C26   A    
Cu1   O7    S    
C3    C32   S    
Cu2   N1    S    
C10   C11   A    
C23   O6    A    
C20   C21   A    
O9    C35   S    
C27   C28   A    
C14   C15   A    
C13   C14   A    
C3    C4    S    
