data_mof_unit_5127.cif
_audit_creation_date              2012-12-11T16:56:06-0500
_audit_creation_method            fapswitch 2.2
_symmetry_space_group_name_H-M    P1
_symmetry_Int_Tables_number       1
_space_group_crystal_system       triclinic
_cell_length_a                    7.00095
_cell_length_b                    14.744982
_cell_length_c                    16.065148
_cell_angle_alpha                 90.578277
_cell_angle_beta                  90.084501
_cell_angle_gamma                 89.935954
_cell_volume                      1658.2999853

loop_
_atom_site_label
_atom_site_type_symbol
_atom_type_description
_atom_site_fract_x
_atom_site_fract_y
_atom_site_fract_z
_atom_type_partial_charge
O1    O     O_R   0.505830 0.583360 0.413880 -0.553693
O2    O     O_R   0.175830 0.595460 0.585520 -0.529639
O3    O     O_R   0.005520 0.416640 0.586120 -0.527398
C1    C     C_R   0.343932 0.616965 0.614847 0.707498
O4    O     O_R   0.176120 0.594390 0.414490 -0.520989
O5    O     O_R   0.005810 0.415570 0.413870 -0.554410
C2    C     C_R   0.345203 0.616939 0.386220 0.683849
O6    O     O_R   0.505540 0.584430 0.586130 -0.511994
O7    O     O_3   0.339200 0.441330 0.500000 -0.381461
V1    V     V_3+5 0.064350 0.510880 0.500000 1.476493
O8    O     O_R   0.676100 0.404540 0.414480 -0.541848
C3    C     C_R   0.844491 0.387280 0.381833 0.679668
O9    O     O_R   0.675810 0.405610 0.585510 -0.547537
C4    C     C_R   0.846454 0.384772 0.614382 0.684612
V2    V     V_3+5 0.564340 0.489120 0.500000 1.445195
O10   O     O_3   0.839360 0.558670 0.500000 -0.346430
C5    C     C_2   0.737708 0.190184 0.769778 0.502234
C6    C     C_2   0.876499 0.185970 0.828607 -0.345361
C7    C     C_2   0.722115 0.268060 0.710193 -0.314669
C8    C     C_2   0.871621 0.316478 0.681420 0.264254
C9    C     C_R   0.714534 0.195601 0.231232 0.005156
C10   C     C_R   0.884344 0.178282 0.189390 -0.123223
C11   C     C_R   0.033761 0.239244 0.202806 -0.212551
C12   C     C_R   0.013439 0.317750 0.252433 0.419506
C13   C     C_R   0.854949 0.322767 0.309184 -0.182485
C14   C     C_R   0.702093 0.262059 0.294568 -0.006497
C15   C     C_3   0.510909 0.289865 0.260735 -0.424150
C16   C     C_3   0.537574 0.225217 0.188435 0.367521
H1    H     H_    0.393519 0.269535 0.303096 0.130053
H2    H     H_    0.433386 0.168649 0.182092 0.039641
C17   C     C_R   0.519230 0.733389 0.699734 -0.020552
C18   C     C_R   0.351355 0.686860 0.682705 -0.099332
C19   C     C_R   0.205783 0.696342 0.741640 -0.126156
H3    H     H_    0.092252 0.649165 0.740702 0.162097
C20   C     C_R   0.217272 0.759003 0.807978 -0.200422
H4    H     H_    0.103056 0.761846 0.853185 0.128422
C21   C     C_R   0.381431 0.812064 0.819948 -0.063400
C22   C     C_R   0.535590 0.796955 0.765530 0.002201
C23   C     C_3   0.726364 0.759665 0.790134 -0.512497
C24   C     C_3   0.698775 0.686314 0.723506 0.862338
H5    H     H_    0.840937 0.809350 0.777405 0.157433
C25   C     C_R   0.494653 0.678277 0.253527 -0.161484
C26   C     C_R   0.353069 0.683272 0.316084 -0.201492
C27   C     C_R   0.212622 0.752257 0.307399 0.493009
C28   C     C_R   0.220211 0.813254 0.239711 -0.186922
C29   C     C_R   0.375688 0.813402 0.184288 -0.167018
C30   C     C_R   0.508689 0.743863 0.191950 -0.078934
C31   C     C_3   0.722413 0.748838 0.197956 0.361510
C32   C     C_3   0.710016 0.671049 0.260035 0.315004
H6    H     H_    0.764058 0.688303 0.323134 0.105364
O11   O     O_R   0.229930 0.912420 0.917160 -0.541592
O12   O     O_R   0.559420 0.902500 0.088780 -0.546833
O13   O     O_R   0.729660 0.081330 0.089380 -0.532021
C33   C     C_R   0.390286 0.881744 0.117713 0.705115
O14   O     O_R   0.559650 0.901420 0.917750 -0.536597
O15   O     O_R   0.729880 0.080250 0.917130 -0.510111
C34   C     C_R   0.391181 0.879147 0.889379 0.703875
O16   O     O_R   0.229700 0.913500 0.089410 -0.530945
O17   O     O_3   0.396250 0.055540 0.003280 -0.381997
V3    V     V_3+5 0.671130 0.986010 0.003260 1.454475
O18   O     O_R   0.059600 0.091310 0.917720 -0.559555
C35   C     C_R   0.889950 0.112427 0.889647 0.773701
O19   O     O_R   0.059370 0.092380 0.088750 -0.562141
C36   C     C_R   0.891317 0.112483 0.118777 0.724611
V4    V     V_3+5 0.171120 0.007820 0.003230 1.391047
O20   O     O_3   0.896130 0.938240 0.003240 -0.366220
O21   O     O_3   0.615718 0.116471 0.760418 -0.556093
C37   C     C_3   0.425703 0.143064 0.776490 -0.180532
H7    H     H_    0.361824 0.175389 0.720936 0.168909
H8    H     H_    0.413564 0.188165 0.832353 0.113686
H9    H     H_    0.340720 0.081313 0.789271 0.159880
H10   H     H_    0.726832 0.733896 0.854938 0.152520
O22   O     O_3   0.648631 0.600402 0.756916 -0.561711
C38   C     C_3   0.806821 0.552987 0.788222 -0.274779
H11   H     H_    0.885888 0.593227 0.835837 0.115999
H12   H     H_    0.900354 0.529763 0.736570 0.150102
H13   H     H_    0.753689 0.491282 0.819557 0.147387
O23   O     O_3   0.836006 0.679313 0.658083 -0.556213
C39   C     C_3   0.844787 0.755195 0.604994 -0.244164
H14   H     H_    0.977864 0.749804 0.568195 0.179581
H15   H     H_    0.850489 0.820765 0.639314 0.110777
H16   H     H_    0.723029 0.754438 0.560560 0.134671
O24   O     O_3   0.069546 0.762061 0.365951 -0.561280
C40   C     C_3   0.112256 0.837374 0.417567 -0.333229
H17   H     H_    0.139536 0.900230 0.381695 0.131503
H18   H     H_    0.236252 0.822115 0.458527 0.135276
H19   H     H_    0.986805 0.851873 0.457497 0.157820
H20   H     H_    0.110312 0.864610 0.234262 0.126046
H21   H     H_    0.770085 0.813190 0.228035 0.024192
H22   H     H_    0.977207 0.240308 0.837658 0.127585
O25   O     O_3   0.836034 0.727652 0.126366 -0.520879
C41   C     C_3   0.731935 0.695606 0.056598 -0.076004
H23   H     H_    0.638029 0.749060 0.031032 0.114616
H24   H     H_    0.647795 0.634230 0.071337 0.130813
H25   H     H_    0.834816 0.676417 0.006997 0.120495
O26   O     O_3   0.799849 0.592496 0.225751 -0.529408
C42   C     C_3   0.676560 0.517668 0.218382 -0.204260
H26   H     H_    0.563907 0.529645 0.171126 0.131061
H27   H     H_    0.613456 0.500972 0.279472 0.120011
H28   H     H_    0.759283 0.458793 0.195326 0.208647
H29   H     H_    0.581838 0.282169 0.684666 0.119816
O27   O     O_3   0.056688 0.291938 0.703596 -0.551707
C43   C     C_3   0.144697 0.363126 0.749335 -0.285483
H30   H     H_    0.048142 0.393121 0.797222 0.105658
H31   H     H_    0.201122 0.416569 0.708057 0.167174
H32   H     H_    0.269254 0.335007 0.783075 0.142758
H33   H     H_    0.151051 0.236183 0.160629 0.130477
O28   O     O_3   0.092407 0.393143 0.213891 -0.569930
C44   C     C_3   0.171732 0.457786 0.267748 -0.188474
H34   H     H_    0.260881 0.426932 0.317142 0.125730
H35   H     H_    0.059125 0.503162 0.292119 0.203959
H36   H     H_    0.266263 0.501620 0.230647 0.136102
H37   H     H_    0.504666 0.361050 0.240919 0.174596
O29   O     O_3   0.589615 0.270344 0.114046 -0.538374
C45   C     C_3   0.428813 0.290424 0.065225 -0.242358
H38   H     H_    0.348022 0.228148 0.048257 0.149574
H39   H     H_    0.478570 0.320734 0.006192 0.146524
H40   H     H_    0.337346 0.341791 0.096684 0.175606

loop_
_geom_bond_atom_site_label_1
_geom_bond_atom_site_label_2
_ccdc_geom_bond_type
C9    C14   A    
O19   V4    S    
C15   H1    S    
O22   C38   S    
C7    C8    D    
C40   H19   S    
C1    O6    A    
C27   O24   S    
C42   H26   S    
C23   H5    S    
C28   C29   A    
C24   O22   S    
C14   C15   S    
C38   H12   S    
C20   C21   A    
C40   H18   S    
C44   H35   S    
O5    C3    A    
C22   C23   S    
O13   C36   A    
C8    O27   S    
C45   H38   S    
O28   C44   S    
O11   V4    S    
O12   V3    S    
C5    C7    S    
C17   C24   S    
O8    V2    S    
C30   C31   S    
C37   H7    S    
C45   H39   S    
C31   O25   S    
C11   C12   A    
O1    V2    S    
C2    C26   S    
O7    V1    S    
O14   V3    S    
V3    O20   S    
O17   V3    S    
O9    C4    A    
O18   C35   A    
C42   H27   S    
O13   V3    S    
O12   C33   A    
C19   H3    S    
C5    O21   S    
C38   H11   S    
O21   C37   S    
C6    H22   S    
C4    C8    S    
C28   H20   S    
C12   C13   A    
C44   H36   S    
C23   C24   S    
C39   H15   S    
O23   C39   S    
C6    C35   S    
C13   C14   A    
C38   H13   S    
C41   H25   S    
C39   H14   S    
C20   H4    S    
O2    C1    A    
C26   C27   A    
C21   C22   A    
O16   V4    S    
O24   C40   S    
C23   H10   S    
C45   H40   S    
C11   H33   S    
O26   C42   S    
C29   C33   S    
C41   H24   S    
C5    C6    D    
C43   H31   S    
C40   H17   S    
C1    C18   S    
O3    C4    A    
C16   O29   S    
O11   C34   A    
C15   H37   S    
C31   C32   S    
C9    C16   S    
V4    O20   S    
O6    V2    S    
C31   H21   S    
O9    V2    S    
C24   O23   S    
C25   C26   A    
O2    V1    S    
O25   C41   S    
C42   H28   S    
C27   C28   A    
O4    C2    A    
C33   O16   A    
C29   C30   A    
O1    C2    A    
C17   C18   A    
O5    V1    S    
C39   H16   S    
O8    C3    A    
O29   C45   S    
C17   C22   A    
C3    C13   S    
C18   C19   A    
O14   C34   A    
O7    V2    S    
O4    V1    S    
O3    V1    S    
V1    O10   S    
C44   H34   S    
O17   V4    S    
C7    H29   S    
C37   H9    S    
C16   H2    S    
C41   H23   S    
C19   C20   A    
C43   H32   S    
O15   C35   A    
C25   C30   A    
C32   O26   S    
O27   C43   S    
C25   C32   S    
C10   C36   S    
O19   C36   A    
O18   V4    S    
O15   V3    S    
C37   H8    S    
C32   H6    S    
C43   H30   S    
C10   C11   A    
C9    C10   A    
C21   C34   S    
C12   O28   S    
V2    O10   S    
C15   C16   S    
