data_mof_unit_43013.cif
_audit_creation_date              2012-12-11T14:33:53-0500
_audit_creation_method            fapswitch 2.2
_symmetry_space_group_name_H-M    P1
_symmetry_Int_Tables_number       1
_space_group_crystal_system       triclinic
_cell_length_a                    14.122824
_cell_length_b                    14.159828
_cell_length_c                    27.249957
_cell_angle_alpha                 90.06975
_cell_angle_beta                  89.564244
_cell_angle_gamma                 119.957715
_cell_volume                      4721.13460568

loop_
_atom_site_label
_atom_site_type_symbol
_atom_type_description
_atom_site_fract_x
_atom_site_fract_y
_atom_site_fract_z
_atom_type_partial_charge
C1    C     C_R   0.263125 0.765384 0.573504 0.551383
C2    C     C_R   0.216021 0.455196 0.570708 0.534334
C3    C     C_R   0.539999 0.757999 0.571534 0.538540
C4    C     C_3   0.643988 0.722061 0.796359 -0.267348
C5    C     C_3   0.278388 0.914812 0.795228 -0.250074
C6    C     C_3   0.097210 0.376598 0.797780 -0.259625
C7    C     C_3   0.597600 0.693983 0.743699 -0.199088
C8    C     C_3   0.311526 0.894261 0.743845 -0.208905
C9    C     C_3   0.101435 0.394420 0.741681 -0.197759
C10   C     C_1   0.691735 0.853130 0.863932 0.004936
C11   C     C_1   0.148070 0.833739 0.863767 0.033206
C12   C     C_1   0.170800 0.320157 0.866032 -0.009101
C13   C     C_1   0.579134 0.781247 0.666073 -0.031633
C14   C     C_1   0.240393 0.772965 0.669582 -0.018309
C15   C     C_1   0.204809 0.410851 0.664805 -0.026193
C16   C     C_1   0.564373 0.773828 0.622539 0.020488
C17   C     C_1   0.251562 0.767266 0.625886 0.036906
C18   C     C_1   0.207608 0.426351 0.621318 0.024020
C19   C     C_R   0.066784 0.156042 0.096595 0.574271
C20   C     C_R   0.775501 0.883036 0.086780 0.534920
C21   C     C_R   0.115646 0.893038 0.087308 0.530493
C22   C     C_R   0.107916 0.221652 0.951818 0.572880
C23   C     C_R   0.780215 0.886838 0.951313 0.561666
C24   C     C_R   0.112918 0.894243 0.950553 0.556507
C25   C     C_R   0.629996 0.894460 0.360365 -0.130730
C26   C     C_R   0.103423 0.741465 0.361892 -0.125948
C27   C     C_R   0.254091 0.344660 0.367364 -0.128291
C28   C     C_R   0.652794 0.908108 0.309995 0.019510
C29   C     C_R   0.087773 0.751981 0.311925 0.026649
C30   C     C_R   0.230948 0.298725 0.320275 0.025642
C31   C     C_R   0.686451 0.929069 0.208229 0.008771
C32   C     C_R   0.062082 0.766537 0.210833 0.010646
C33   C     C_R   0.193054 0.228909 0.222154 0.007320
C34   C     C_R   0.235120 0.787625 0.431038 0.560346
C35   C     C_R   0.211065 0.443398 0.432620 0.553972
C36   C     C_R   0.553330 0.765384 0.431134 0.553817
C37   C     C_R   0.690643 0.014482 0.235882 -0.056044
C38   C     C_R   0.973665 0.692265 0.239897 -0.057774
C39   C     C_R   0.283629 0.237675 0.247230 -0.083737
C40   C     C_R   0.672296 0.003708 0.286306 -0.127474
C41   C     C_R   0.986877 0.683745 0.290015 -0.093803
C42   C     C_R   0.303654 0.274398 0.295700 -0.114684
C43   C     C_R   0.711529 0.943204 0.158410 -0.121941
C44   C     C_R   0.047373 0.778123 0.161328 -0.141614
C45   C     C_R   0.175923 0.197567 0.172981 -0.155518
C46   C     C_R   0.709095 0.858462 0.131414 -0.041622
C47   C     C_R   0.135958 0.851857 0.132607 -0.034386
C48   C     C_R   0.086704 0.191342 0.148046 0.003693
C49   C     C_R   0.618745 0.717907 0.356523 -0.117534
C50   C     C_R   0.288379 0.894412 0.354861 -0.117610
C51   C     C_R   0.079193 0.338462 0.368869 -0.114616
C52   C     C_R   0.633936 0.727348 0.306129 -0.033475
C53   C     C_R   0.276149 0.901299 0.304936 -0.033578
C54   C     C_R   0.060493 0.303587 0.320826 -0.030699
C55   C     C_R   0.650715 0.822205 0.282448 0.054680
C56   C     C_R   0.176168 0.829795 0.282994 0.053598
C57   C     C_R   0.136417 0.284045 0.296001 0.053621
C58   C     C_R   0.626747 0.640194 0.279301 -0.154594
C59   C     C_R   0.364539 0.976999 0.276879 -0.155415
C60   C     C_R   0.974683 0.303287 0.295886 -0.130894
C61   C     C_R   0.634607 0.644053 0.228197 0.231566
C62   C     C_R   0.356800 0.982643 0.226138 0.228436
C63   C     C_R   0.967064 0.291004 0.245260 0.241062
C64   C     C_R   0.652546 0.740481 0.203253 0.037993
C65   C     C_R   0.256630 0.908338 0.202797 0.037148
C66   C     C_R   0.032611 0.254395 0.220981 0.036355
C67   C     C_3   0.529482 0.825979 0.746566 -0.267275
C68   C     C_3   0.196164 0.690992 0.753934 -0.273287
C69   C     C_3   0.305031 0.470838 0.743706 -0.279015
C70   C     C_R   0.663496 0.830464 0.231275 -0.026515
C71   C     C_R   0.165130 0.835012 0.232155 -0.022159
C72   C     C_R   0.119766 0.254232 0.246456 -0.012457
C73   C     C_R   0.662502 0.752775 0.151822 0.258352
C74   C     C_R   0.242693 0.904876 0.151622 0.258216
C75   C     C_R   0.013755 0.217654 0.172507 0.230201
C76   C     C_R   0.608648 0.797282 0.383345 0.005693
C77   C     C_R   0.205066 0.810817 0.383095 0.006226
C78   C     C_R   0.180297 0.369960 0.390479 0.005507
C79   C     C_3   0.724588 0.893912 0.723074 0.109216
C80   C     C_3   0.111175 0.796041 0.722037 0.127770
C81   C     C_3   0.183237 0.273961 0.726647 0.118307
C82   C     C_3   0.753082 0.923531 0.778737 0.168163
C83   C     C_3   0.077100 0.800736 0.776962 0.159373
C84   C     C_3   0.168181 0.247324 0.783111 0.140439
C85   C     C_1   0.727119 0.868657 0.904981 0.051014
C86   C     C_1   0.131863 0.857403 0.904314 0.058204
C87   C     C_1   0.147214 0.281015 0.906632 0.021161
C88   C     C_3   0.606753 0.796911 0.718458 0.003500
C89   C     C_3   0.217132 0.788756 0.721031 -0.005996
C90   C     C_3   0.197966 0.388021 0.717809 -0.006340
C91   C     C_3   0.549970 0.830919 0.802712 -0.210211
C92   C     C_3   0.188618 0.715594 0.808847 -0.218813
C93   C     C_3   0.298148 0.448864 0.799992 -0.223074
C94   C     C_3   0.660068 0.834628 0.812023 0.007935
C95   C     C_3   0.170196 0.814430 0.812768 0.004228
C96   C     C_3   0.185742 0.348708 0.813370 0.002682
Cr1   Cr    Cr6+3 0.164410 0.584450 0.499910 1.046908
Cr2   Cr    Cr6+3 0.415550 0.579960 0.499910 1.035570
Cr3   Cr    Cr6+3 0.420040 0.835590 0.499910 1.036837
Cr4   Cr    Cr6+3 0.155170 0.075460 0.019960 1.100438
Cr5   Cr    Cr6+3 0.924540 0.079710 0.019960 1.084853
Cr6   Cr    Cr6+3 0.920290 0.844830 0.019960 1.084003
H1    H     H_    0.547134 0.900658 0.819627 0.190677
H2    H     H_    0.124058 0.642740 0.828163 0.185459
H3    H     H_    0.366455 0.436281 0.811040 0.192044
H4    H     H_    0.443588 0.763734 0.738892 0.105952
H5    H     H_    0.260341 0.669119 0.748671 0.104891
H6    H     H_    0.322225 0.554960 0.736689 0.114536
H7    H     H_    0.482229 0.756826 0.820405 0.104266
H8    H     H_    0.266349 0.734802 0.827250 0.107917
H9    H     H_    0.308908 0.522031 0.820078 0.111963
H10   H     H_    0.723396 0.723589 0.797647 0.197630
H11   H     H_    0.268635 0.987332 0.793583 0.251765
H12   H     H_    0.014568 0.309840 0.808607 0.178369
H13   H     H_    0.738803 0.021595 0.141242 0.211972
H14   H     H_    0.966006 0.734722 0.145871 0.175888
H15   H     H_    0.231353 0.177217 0.154204 0.173415
H16   H     H_    0.623221 0.956474 0.380914 0.121591
H17   H     H_    0.038585 0.677343 0.383598 0.125181
H18   H     H_    0.331132 0.365901 0.384581 0.124379
H19   H     H_    0.707173 0.089272 0.218369 0.232799
H20   H     H_    0.894474 0.640160 0.223771 0.178134
H21   H     H_    0.340702 0.219210 0.228923 0.171831
H22   H     H_    0.673845 0.070187 0.306730 0.123212
H23   H     H_    0.918162 0.624276 0.311638 0.119281
H24   H     H_    0.376371 0.284803 0.313733 0.118065
H25   H     H_    0.612517 0.567443 0.298654 0.138590
H26   H     H_    0.440673 0.031715 0.294931 0.136536
H27   H     H_    0.922174 0.326600 0.315174 0.130815
H28   H     H_    0.544139 0.906371 0.733285 0.165380
H29   H     H_    0.116668 0.621284 0.743195 0.162663
H30   H     H_    0.374206 0.464100 0.727809 0.132310
H31   H     H_    0.604233 0.642923 0.373898 0.139744
H32   H     H_    0.367303 0.949591 0.370701 0.139648
H33   H     H_    0.019687 0.353911 0.387046 0.142682
H34   H     H_    0.727951 0.965156 0.704135 0.167182
H35   H     H_    0.045461 0.720999 0.704525 0.181232
H36   H     H_    0.259240 0.277350 0.713207 0.167723
H37   H     H_    0.829760 0.924356 0.787965 0.183539
H38   H     H_    0.066359 0.872324 0.782329 0.216225
H39   H     H_    0.082354 0.184079 0.790918 0.185042
H40   H     H_    0.510738 0.631080 0.746242 0.108702
H41   H     H_    0.383296 0.884810 0.748009 0.118023
H42   H     H_    0.110879 0.474154 0.733423 0.118658
H43   H     H_    0.637520 0.655913 0.723101 0.218993
H44   H     H_    0.338260 0.967247 0.720400 0.221028
H45   H     H_    0.021812 0.334815 0.725873 0.231610
H46   H     H_    0.587084 0.656952 0.822087 0.129278
H47   H     H_    0.345415 0.933686 0.821598 0.142123
H48   H     H_    0.109922 0.451466 0.816955 0.138987
O1    O     O_R   0.137150 0.468200 0.553200 -0.495518
O2    O     O_R   0.531800 0.668950 0.553200 -0.485282
O3    O     O_R   0.331050 0.862850 0.553200 -0.469020
O4    O     O_R   0.179100 0.982980 0.967000 -0.499509
O5    O     O_R   0.017020 0.196120 0.967000 -0.493412
O6    O     O_R   0.803880 0.820900 0.967000 -0.503702
O7    O     O_R   0.173970 0.688730 0.549930 -0.484768
O8    O     O_R   0.311270 0.485240 0.549930 -0.508118
O9    O     O_R   0.514760 0.826030 0.549930 -0.517352
O10   O     O_R   0.140110 0.470540 0.446010 -0.518494
O11   O     O_R   0.529460 0.669570 0.446010 -0.516428
O12   O     O_R   0.330430 0.859890 0.446010 -0.518268
O13   O     O_R   0.176710 0.690910 0.450560 -0.493255
O14   O     O_R   0.309090 0.485800 0.450560 -0.499061
O15   O     O_R   0.514200 0.823290 0.450560 -0.500087
O16   O     O_3   0.333333 0.666667 0.499990 -0.319465
O17   O     O_R   0.176750 0.985260 0.074180 -0.494059
O18   O     O_R   0.014740 0.191490 0.074180 -0.480314
O19   O     O_R   0.808510 0.823250 0.074180 -0.484160
O20   O     O_R   0.146100 0.172630 0.068980 -0.483425
O21   O     O_R   0.827370 0.973470 0.068980 -0.507568
O22   O     O_R   0.026530 0.853900 0.068980 -0.501288
O23   O     O_3   1.000000 0.000000 0.020040 -0.279292
O24   O     O_R   0.148270 0.170520 0.969620 -0.481258
O25   O     O_R   0.829480 0.977750 0.969620 -0.480758
O26   O     O_R   0.022250 0.851730 0.969620 -0.480733
O27   O     O_3   0.628253 0.663037 0.121887 -0.583024
H49   H     H_    0.613936 0.681160 0.088623 0.331908
O28   O     O_3   0.332315 0.953114 0.120587 -0.586010
H50   H     H_    0.310959 0.920030 0.087543 0.330348
O29   O     O_3   0.917208 0.195010 0.150929 -0.673555
H51   H     H_    0.934797 0.258100 0.129362 0.393896
S1    S     S_3+6 0.627609 0.527964 0.199195 0.080312
O30   O     O_2   0.522625 0.468484 0.171178 -0.165091
O31   O     O_2   0.722347 0.562040 0.164361 -0.219368
O32   O     O_3   0.629920 0.441575 0.240845 -0.522743
H52   H     H_    0.704804 0.480156 0.254340 0.335228
S2    S     S_3+6 0.471649 0.090993 0.195692 0.073468
O33   O     O_2   0.528245 0.045092 0.165234 -0.197490
O34   O     O_2   0.435574 0.152040 0.162753 -0.207389
O35   O     O_3   0.561624 0.178955 0.236358 -0.506475
H53   H     H_    0.524562 0.215679 0.251429 0.350259
S3    S     S_3+6 0.903342 0.355740 0.214570 0.046192
O36   O     O_2   0.980340 0.431944 0.176111 -0.236634
O37   O     O_2   0.798752 0.274879 0.190309 -0.202604
O38   O     O_3   0.875299 0.429375 0.254479 -0.538637
H54   H     H_    0.804591 0.376610 0.269909 0.346210
S4    S     S_3+6 0.820383 0.866683 0.689707 0.080153
O39   O     O_2   0.902035 0.866821 0.724492 -0.162795
O40   O     O_2   0.767379 0.759399 0.663208 -0.266063
O41   O     O_3   0.883354 0.963881 0.646723 -0.389388
H55   H     H_    0.824612 0.954503 0.624173 0.330768
S5    S     S_3+6 0.125350 0.907867 0.684055 0.081855
O42   O     O_2   0.131666 0.995908 0.716474 -0.145095
O43   O     O_2   0.226141 0.957186 0.652111 -0.295111
O44   O     O_3   0.017030 0.860021 0.646727 -0.394584
H56   H     H_    0.041230 0.911168 0.618555 0.400022
S6    S     S_3+6 0.075394 0.170406 0.689892 0.090860
O45   O     O_2   0.004104 0.076613 0.722606 -0.134923
O46   O     O_2   0.004996 0.207900 0.665242 -0.270702
O47   O     O_3   0.131322 0.129876 0.645907 -0.418314
H57   H     H_    0.175635 0.195491 0.625469 0.327103
S7    S     S_3+6 0.781757 0.061205 0.791932 -0.018037
O48   O     O_2   0.866652 0.139429 0.756686 -0.255483
O49   O     O_2   0.681851 0.072172 0.786928 -0.296024
O50   O     O_3   0.830330 0.095385 0.849258 -0.538591
H58   H     H_    0.841144 0.169391 0.854353 0.370744
S8    S     S_3+6 0.943751 0.685208 0.791993 -0.008230
O51   O     O_2   0.863513 0.670871 0.752790 -0.227375
O52   O     O_2   0.946498 0.580849 0.795979 -0.304463
O53   O     O_3   0.900429 0.709521 0.845674 -0.534324
H59   H     H_    0.826132 0.646338 0.850752 0.370352
S9    S     S_3+6 0.249091 0.188209 0.804221 0.000538
O54   O     O_2   0.308441 0.170517 0.762413 -0.237433
O55   O     O_2   0.332154 0.258183 0.841766 -0.286196
O56   O     O_3   0.162656 0.067184 0.830166 -0.536931
H60   H     H_    0.135037 0.084829 0.860290 0.346519

loop_
_geom_bond_atom_site_label_1
_geom_bond_atom_site_label_2
_ccdc_geom_bond_type
C15   C18   T    
S5    O42   D    
C10   C85   T    
C82   C94   S    
Cr3   O9    S    
C26   C29   A    
C2    C18   S    
C33   C45   A    
O41   H55   S    
Cr5   O23   S    
S9    O54   D    
C48   C75   A    
C19   O20   A    
C27   C78   A    
C25   H16   S    
Cr2   O11   S    
C6    C9    S    
C53   C59   A    
S9    O56   S    
C5    H47   S    
C54   C60   A    
S7    O48   D    
Cr6   O23   S    
C79   H34   S    
S5    O43   D    
C67   C88   S    
C33   C39   A    
C31   C43   A    
C60   C63   A    
S9    O55   D    
C45   H15   S    
C28   C55   A    
C37   C40   A    
C69   C93   S    
C4    C7    S    
C34   C77   S    
C64   C70   A    
S7    O50   S    
C80   S5    S    
C23   O25   A    
C28   C40   A    
C11   C86   T    
Cr6   O26   S    
Cr1   O16   S    
C4    H46   S    
C30   C57   A    
C39   H21   S    
S2    O34   D    
C84   C96   S    
C80   C89   S    
C35   O10   A    
C6    H12   S    
C36   C76   S    
C33   C72   A    
C43   H13   S    
C51   H33   S    
C69   H6    S    
C31   C70   A    
C66   C72   A    
C74   O28   S    
Cr2   O8    S    
S6    O45   D    
Cr1   O13   S    
C64   C73   A    
C63   S3    S    
S4    O39   D    
C68   H5    S    
C32   C38   A    
C39   C42   A    
C7    H43   S    
S6    O47   S    
C62   C65   A    
C52   C55   A    
Cr3   O16   S    
C93   H3    S    
C49   C52   A    
Cr6   O19   S    
C20   O19   A    
C4    H10   S    
C63   C66   A    
C58   H25   S    
C79   S4    S    
S3    O36   D    
C23   O6    A    
C27   C30   A    
C3    O9    A    
C14   C17   T    
S4    O41   S    
C80   C83   S    
C79   C88   S    
C22   O24   A    
C9    H42   S    
C24   O4    A    
C32   C71   A    
C22   O5    A    
S7    O49   D    
C32   C44   A    
C81   H36   S    
C40   H22   S    
S5    O44   S    
C61   S1    S    
C26   C77   A    
Cr4   O20   S    
O35   H53   S    
C50   C53   A    
Cr1   O10   S    
C41   H23   S    
O50   H58   S    
C38   C41   A    
C34   O13   A    
C50   H32   S    
S1    O32   S    
C83   S8    S    
C42   H24   S    
O44   H56   S    
Cr2   O2    S    
S3    O37   D    
C59   H26   S    
O29   H51   S    
C9    H45   S    
C92   C95   S    
C65   C74   A    
C31   C37   A    
S2    O33   D    
C25   C28   A    
Cr1   O7    S    
C9    C90   S    
Cr5   O18   S    
Cr5   O5    S    
S1    O30   D    
C14   C89   S    
O53   H59   S    
C79   C82   S    
C82   S7    S    
S8    O52   D    
C7    C88   S    
C27   H18   S    
Cr1   O1    S    
C2    O8    A    
S3    O38   S    
C83   C95   S    
C82   H37   S    
C67   C91   S    
C68   C89   S    
C3    O2    A    
C49   C76   A    
Cr2   O16   S    
C22   C87   S    
C26   H17   S    
C1    O3    A    
C38   H20   S    
C52   C58   A    
C93   H9    S    
C81   S6    S    
C37   H19   S    
C81   C90   S    
C29   C56   A    
O56   H60   S    
C93   C96   S    
C6    C96   S    
S2    O35   S    
Cr4   O24   S    
C36   O11   A    
C4    C94   S    
Cr5   O25   S    
C67   H28   S    
C19   O18   A    
C69   C90   S    
C24   O26   A    
C50   C77   A    
Cr6   O6    S    
C81   C84   S    
S8    O53   S    
C62   S2    S    
C45   C48   A    
Cr4   O4    S    
C2    O1    A    
C49   H31   S    
C59   C62   A    
C12   C87   T    
C5    H11   S    
C19   C48   S    
C8    H44   S    
C47   C74   A    
C91   H1    S    
O38   H54   S    
C34   O12   A    
C84   S9    S    
C91   C94   S    
C60   H27   S    
C5    C8    S    
Cr2   O14   S    
C44   C47   A    
C67   H4    S    
C68   H29   S    
O28   H50   S    
C21   O22   A    
C35   C78   S    
C1    C17   S    
C35   O14   A    
C21   O17   A    
C51   C54   A    
C91   H7    S    
C1    O7    A    
C51   C78   A    
C73   O27   S    
C65   C71   A    
C25   C76   A    
C15   C90   S    
C92   H8    S    
S8    O51   D    
C5    C95   S    
C84   H39   S    
C58   C61   A    
C69   H30   S    
C66   C75   A    
Cr3   O3    S    
C13   C88   S    
Cr4   O17   S    
C36   O15   A    
C68   C92   S    
Cr5   O21   S    
C8    H41   S    
C30   C42   A    
C46   C73   A    
C57   C72   A    
C43   C46   A    
C53   C56   A    
C55   C70   A    
C92   H2    S    
C83   H38   S    
O47   H57   S    
C6    H48   S    
C20   O21   A    
C11   C95   S    
C44   H14   S    
S1    O31   D    
S6    O46   D    
O27   H49   S    
C23   C85   S    
C13   C16   T    
Cr4   O23   S    
C61   C64   A    
C10   C94   S    
C29   C41   A    
C12   C96   S    
S4    O40   D    
C8    C89   S    
C21   C47   S    
O32   H52   S    
Cr6   O22   S    
Cr3   O12   S    
C24   C86   S    
C7    H40   S    
C20   C46   S    
C3    C16   S    
C80   H35   S    
C56   C71   A    
Cr3   O15   S    
C54   C57   A    
C75   O29   S    
