data_mof_unit_27533.cif
_audit_creation_date              2013-03-05T15:48:31-0500
_audit_creation_method            fapswitch 2.2
_symmetry_space_group_name_H-M    P1
_symmetry_Int_Tables_number       1
_space_group_crystal_system       triclinic
_cell_length_a                    20.350135
_cell_length_b                    7.101574
_cell_length_c                    13.507024
_cell_angle_alpha                 90.163162
_cell_angle_beta                  103.427501
_cell_angle_gamma                 89.677023
_cell_volume                      1898.61636002

loop_
_atom_site_label
_atom_site_type_symbol
_atom_site_description
_atom_site_fract_x
_atom_site_fract_y
_atom_site_fract_z
_atom_type_partial_charge
O1    O     O_R   0.449830 0.506740 0.599960 -0.575133
O2    O     O_R   0.550170 0.006740 0.400040 -0.602467
O3    O     O_R   0.588980 0.179860 0.596720 -0.597605
O4    O     O_R   0.411020 0.679860 0.403280 -0.568785
C1    C     C_R   0.615671 0.345059 0.621549 0.958809
C2    C     C_R   0.383870 0.844423 0.379792 0.914587
O5    O     O_R   0.452740 0.177340 0.612040 -0.568643
O6    O     O_R   0.547260 0.677340 0.387960 -0.557258
O7    O     O_R   0.412960 0.002070 0.415460 -0.613462
O8    O     O_R   0.587040 0.502070 0.584540 -0.617621
C3    C     C_R   0.432694 0.345690 0.633804 1.033080
C4    C     C_R   0.566344 0.845012 0.364319 0.968297
O9    O     O_3   0.487110 0.337570 0.435490 -0.257643
O10   O     O_3   0.512890 0.837570 0.564510 -0.274460
V1    V     V_3+5 0.502390 0.064650 0.511970 1.227167
V2    V     V_3+5 0.497610 0.564650 0.488030 1.258645
C5    C     C_R   0.614870 0.862776 0.109935 -0.124156
C6    C     C_R   0.382373 0.413860 0.882401 -0.075635
H1    H     H_    0.699484 0.875559 0.986380 0.158117
H2    H     H_    0.300694 0.368845 0.010434 0.175230
C7    C     C_R   0.607281 0.853974 0.286829 -0.232512
C8    C     C_R   0.391426 0.355892 0.709844 -0.262927
C9    C     C_R   0.934770 0.883506 0.322473 0.003502
C10   C     C_R   0.064668 0.351112 0.677083 0.022282
C11   C     C_R   0.899847 0.925647 0.397404 -0.146280
C12   C     C_R   0.099271 0.336883 0.599943 -0.170580
C13   C     C_R   0.829595 0.943889 0.374263 0.011089
C14   C     C_R   0.169958 0.324641 0.621134 0.003031
C15   C     C_R   0.791104 0.902196 0.273817 0.057256
C16   C     C_R   0.208511 0.319201 0.724044 0.084424
C17   C     C_R   0.827743 0.877502 0.195948 0.083975
C18   C     C_R   0.172079 0.330006 0.802949 0.082046
C19   C     C_R   0.718502 0.888669 0.245794 0.081388
C20   C     C_R   0.281444 0.321521 0.753005 0.095230
C21   C     C_R   0.685438 0.880887 0.140709 0.159304
C22   C     C_R   0.313909 0.358991 0.856209 0.124683
C23   C     C_R   0.723333 0.878704 0.066650 -0.136415
C24   C     C_R   0.276944 0.349449 0.931013 -0.167953
C25   C     C_R   0.792719 0.869377 0.093603 -0.270475
C26   C     C_R   0.207740 0.327870 0.905104 -0.255672
C27   C     C_R   0.677714 0.868831 0.317357 -0.310955
C28   C     C_R   0.324328 0.292572 0.685043 -0.284804
C29   C     C_R   0.576161 0.846776 0.183075 0.293675
C30   C     C_R   0.416738 0.439819 0.804817 0.332581
C31   C     C_R   0.899182 0.867560 0.220714 -0.194977
C32   C     C_R   0.100699 0.350695 0.779260 -0.210833
H3    H     H_    0.699027 0.851239 0.397113 0.121484
H4    H     H_    0.307224 0.224232 0.612466 0.144728
H5    H     H_    0.927867 0.953603 0.474583 0.121305
H6    H     H_    0.070820 0.340789 0.521429 0.126545
H7    H     H_    0.818661 0.857318 0.032380 0.121640
H8    H     H_    0.182012 0.324304 0.966738 0.129116
C33   C     C_3   0.225754 0.677383 0.165904 -0.236141
C34   C     C_3   0.764972 0.231652 0.862200 -0.226426
H9    H     H_    0.196167 0.551452 0.177633 0.122593
H10   H     H_    0.785941 0.085823 0.868817 0.115468
C35   C     C_3   0.295437 0.662048 0.244745 0.270776
C36   C     C_3   0.692670 0.219571 0.788575 0.273490
H11   H     H_    0.288851 0.552481 0.300699 0.032612
H12   H     H_    0.689081 0.074321 0.756442 0.026095
H13   H     H_    0.266258 0.755402 0.430692 0.161190
H14   H     H_    0.725005 0.138653 0.603561 0.159043
C37   C     C_3   0.185466 0.864143 0.302912 -0.104443
C38   C     C_3   0.812780 0.278687 0.705954 -0.092111
C39   C     C_3   0.228790 0.035697 0.170607 -0.422104
C40   C     C_3   0.781802 0.560657 0.795819 -0.412125
C41   C     C_3   0.187213 0.858825 0.187497 0.015463
C42   C     C_3   0.812424 0.358157 0.813851 0.011104
H15   H     H_    0.204497 0.164478 0.193478 0.153134
H16   H     H_    0.813259 0.645737 0.755504 0.145939
H17   H     H_    0.227030 0.057706 0.088777 0.149529
H18   H     H_    0.785318 0.635087 0.869219 0.151195
C43   C     C_3   0.313030 0.850140 0.308019 -0.093300
C44   C     C_3   0.686277 0.353494 0.694050 -0.087147
C45   C     C_3   0.258962 0.869114 0.372526 -0.525284
C46   C     C_3   0.739470 0.280940 0.635675 -0.529509
C47   C     C_3   0.302923 0.025696 0.235966 -0.085498
C48   C     C_3   0.708115 0.559554 0.729831 -0.084516
H19   H     H_    0.311586 0.155112 0.284103 0.153847
H20   H     H_    0.707462 0.646686 0.660932 0.102705
H21   H     H_    0.159128 0.996377 0.316644 0.128542
H22   H     H_    0.844663 0.373613 0.671216 0.116414
H23   H     H_    0.266313 0.003976 0.415808 0.166475
H24   H     H_    0.738662 0.373656 0.569084 0.164567
O11   O     O_R   0.912980 0.203550 0.915410 -0.586827
O12   O     O_R   0.087020 0.703550 0.084590 -0.596288
O13   O     O_R   0.047270 0.535570 0.887960 -0.596383
O14   O     O_R   0.952730 0.035570 0.112040 -0.591954
C49   C     C_R   0.063157 0.366698 0.860579 0.922457
C50   C     C_R   0.937440 0.868927 0.140098 0.950982
O15   O     O_R   0.911030 0.532970 0.903270 -0.605911
O16   O     O_R   0.088970 0.032970 0.096730 -0.604254
O17   O     O_R   0.949820 0.708150 0.099970 -0.593788
O18   O     O_R   0.050180 0.208150 0.900030 -0.589388
C51   C     C_R   0.883999 0.365067 0.881759 0.875811
C52   C     C_R   0.115856 0.865040 0.118749 0.892789
O19   O     O_3   0.012900 0.375230 0.064480 -0.281698
O20   O     O_3   0.987100 0.875230 0.935520 -0.281181
V3    V     V_3+5 0.997610 0.648190 0.988040 1.143781
V4    V     V_3+5 0.002390 0.148190 0.011960 1.151031
N1    N     N_R   0.507316 0.791550 0.152600 0.213299
O21   O     O_R   0.464808 0.886853 0.083888 -0.402906
O22   O     O_R   0.491617 0.624278 0.177913 -0.349077
N2    N     N_R   0.471558 0.569909 0.819320 0.221042
O23   O     O_R   0.460745 0.744476 0.840565 -0.386892
O24   O     O_R   0.526909 0.525952 0.792664 -0.388636
N3    N     N_3   0.231610 0.667160 0.059411 -0.185172
H25   H     H_    0.252905 0.788235 0.037081 0.181143
H26   H     H_    0.183966 0.653502 0.010627 0.120279
N4    N     N_3   0.763807 0.288716 0.966579 -0.167295
H27   H     H_    0.756884 0.433631 0.971781 0.165528
H28   H     H_    0.810276 0.255672 0.015421 0.112640
N5    N     N_R   0.349838 0.592709 0.199380 0.239792
O25   O     O_R   0.382313 0.439536 0.234122 -0.419385
O26   O     O_R   0.362693 0.671968 0.119636 -0.347867
N6    N     N_R   0.636388 0.237706 0.839597 0.241329
O27   O     O_R   0.588243 0.113652 0.821173 -0.401998
O28   O     O_R   0.635077 0.367612 0.907195 -0.376921
N7    N     N_3   0.146767 0.706568 0.329676 -0.223352
H29   H     H_    0.140472 0.730268 0.403370 0.103089
H30   H     H_    0.174263 0.581363 0.332316 0.103340
N8    N     N_3   0.843485 0.090000 0.713054 -0.204688
H31   H     H_    0.860862 0.064183 0.647373 0.107336
H32   H     H_    0.807701 0.987018 0.716994 0.102492
N9    N     N_3   0.351318 0.025798 0.171106 -0.127608
H33   H     H_    0.399767 0.045979 0.216825 0.179263
H34   H     H_    0.341815 0.142375 0.123177 0.149806
N10   N     N_3   0.662035 0.647612 0.785416 -0.127967
H35   H     H_    0.619261 0.696067 0.733117 0.202486
H36   H     H_    0.683959 0.770795 0.820095 0.097472
N11   N     N_3   0.583614 0.843413 0.003824 -0.155744
H37   H     H_    0.559542 0.713048 0.992916 0.210131
H38   H     H_    0.548335 0.951857 0.982406 0.234659
N12   N     N_3   0.415995 0.447659 0.986870 -0.106488
H39   H     H_    0.417803 0.319561 0.025402 0.158830
H40   H     H_    0.466501 0.483264 0.993237 0.190562
N13   N     N_3   0.007043 0.867084 0.348201 -0.223687
H41   H     H_    0.026402 0.896820 0.425316 0.099960
H42   H     H_    0.018114 0.725561 0.337815 0.106245
N14   N     N_3   0.992438 0.366223 0.649585 -0.219222
H43   H     H_    0.978250 0.491929 0.679532 0.098028
H44   H     H_    0.972407 0.254188 0.682900 0.092458
N15   N     N_3   0.801887 0.034367 0.450435 -0.224772
H45   H     H_    0.789590 0.933161 0.499014 0.079708
H46   H     H_    0.761248 0.122147 0.417997 0.123474
N16   N     N_3   0.201015 0.332070 0.536562 -0.230544
H47   H     H_    0.181564 0.223091 0.486191 0.092747
H48   H     H_    0.187841 0.459978 0.499277 0.096354

loop_
_geom_bond_atom_site_label_1
_geom_bond_atom_site_label_2
_geom_bond_distance
_ccdc_geom_bond_type
C1    C44   1.540846 S    
C40   C42   1.561124 S    
N1    O21   1.300709 A    
C9    C31   1.401506 A    
C13   C15   1.431337 A    
C43   C45   1.559126 S    
C25   H7    1.082456 S    
O1    C3    1.311548 A    
O2    C4    1.313987 A    
N10   H35   1.042860 S    
C46   H24   1.113200 S    
C2    O7    1.306854 A    
N2    O24   1.295983 A    
C30   N2    1.430209 S    
C47   N9    1.462224 S    
C32   C49   1.480225 S    
C40   H16   1.113337 S    
C12   C14   1.402234 A    
H13   C45   1.113323 S    
O5    C3    1.315439 A    
N13   H42   1.044917 S    
O16   V4    2.033968 S    
C44   C46   1.564202 S    
C37   H21   1.114907 S    
C38   C42   1.562892 S    
C21   C23   1.397727 A    
N14   H44   1.045261 S    
N16   H47   1.045905 S    
C12   H6    1.084182 S    
C39   H15   1.113751 S    
C48   H20   1.116492 S    
C35   H11   1.116312 S    
C34   C42   1.572285 S    
C36   H12   1.114132 S    
N15   H45   1.044363 S    
C15   C19   1.441189 A    
O16   C52   1.314960 A    
C37   N7    1.465470 S    
N6    O27   1.301230 A    
C34   N4    1.471263 S    
C35   C43   1.581011 S    
C49   O18   1.301368 A    
N4    H27   1.042324 S    
H1    C23   1.080347 S    
C7    C29   1.398354 A    
C8    C30   1.399423 A    
C40   H18   1.109915 S    
C39   C41   1.564896 S    
C11   H5    1.084130 S    
C20   C28   1.419681 A    
C13   N15   1.432104 S    
N3    H25   1.041362 S    
C16   C18   1.434328 A    
O17   V3    2.021713 S    
O13   V3    2.026681 S    
C33   H9    1.112917 S    
C48   N10   1.466898 S    
O6    V2    2.034161 S    
C36   N6    1.472344 S    
N3    H26   1.042884 S    
H14   C46   1.112379 S    
N2    O23   1.300712 A    
O19   V3    2.185359 S    
N16   H48   1.042952 S    
N7    H30   1.044157 S    
C27   H3    1.071163 S    
C40   C48   1.556421 S    
C37   C41   1.567890 S    
C42   C51   1.531462 S    
C39   C47   1.562350 S    
C16   C20   1.444540 A    
N14   H43   1.045553 S    
O4    C2    1.298110 A    
C33   C35   1.566635 S    
N12   H40   1.043785 S    
O5    V1    2.026636 S    
N11   H38   1.044401 S    
C26   H8    1.081900 S    
C4    C7    1.483076 S    
C10   N14   1.433505 S    
O4    V2    2.033990 S    
C29   N1    1.422507 S    
O12   V3    2.017171 S    
C6    C30   1.401477 A    
C5    N11   1.433222 S    
H2    C24   1.078173 S    
C33   N3    1.472211 S    
C2    C43   1.539540 S    
O18   V4    2.025831 S    
O6    C4    1.317425 A    
C38   C46   1.571355 S    
C47   H19   1.115201 S    
O1    V2    2.022618 S    
C28   H4    1.076288 S    
O2    V1    2.018634 S    
C38   H22   1.115212 S    
C41   C52   1.531705 S    
O14   V4    2.034202 S    
O12   C52   1.323368 A    
N6    O28   1.300646 A    
C7    C27   1.400912 A    
O14   C50   1.304767 A    
O20   V4    2.183253 S    
O13   C49   1.314593 A    
C17   C31   1.415449 A    
N9    H33   1.045131 S    
N8    H32   1.045080 S    
N11   H37   1.043834 S    
O19   V4    1.753719 S    
O3    V1    2.039352 S    
C36   C44   1.574770 S    
C50   O17   1.310552 A    
N5    O25   1.300365 A    
C34   C36   1.575608 S    
N15   H46   1.044984 S    
C18   C32   1.419849 A    
C9    N13   1.434722 S    
C10   C12   1.389617 A    
O3    C1    1.305444 A    
N10   H36   1.043417 S    
C35   N5    1.466543 S    
N7    H29   1.045723 S    
C34   H10   1.113739 S    
N12   H39   1.045556 S    
C11   C13   1.396036 A    
N13   H41   1.045856 S    
C3    C8    1.471344 S    
C14   N16   1.429382 S    
N1    O22   1.298988 A    
C19   C27   1.420500 A    
C22   C24   1.394726 A    
O7    V1    2.028024 S    
C10   C32   1.404401 A    
C1    O8    1.301244 A    
C15   C17   1.433393 A    
O11   V4    2.014620 S    
C39   H17   1.108999 S    
C24   C26   1.379325 A    
O11   C51   1.319442 A    
C45   H23   1.113200 S    
C8    C28   1.404466 A    
C37   C45   1.571504 S    
C38   N8    1.469226 S    
C14   C16   1.429213 A    
C19   C21   1.423692 A    
C17   C25   1.401689 A    
C6    N12   1.438191 S    
C20   C22   1.422184 A    
C18   C26   1.402040 A    
C33   C41   1.566267 S    
N4    H28   1.045558 S    
O15   C51   1.319078 A    
C9    C11   1.396038 A    
C23   C25   1.375143 A    
O20   V3    1.755217 S    
C44   C48   1.573530 S    
O9    V2    1.754074 S    
C5    C29   1.404436 A    
N9    H34   1.041629 S    
C43   C47   1.566794 S    
O10   V1    1.755574 S    
O8    V2    2.025155 S    
C5    C21   1.405766 A    
O15   V3    2.039327 S    
N8    H31   1.043934 S    
C6    C22   1.412287 A    
C31   C50   1.478435 S    
N5    O26   1.296689 A    
