data_mof_unit_22493.cif
_audit_creation_date              2012-10-26T19:45:33-0400
_audit_creation_method            fapswitch 2.2
_symmetry_space_group_name_H-M    P1
_symmetry_Int_Tables_number       1
_space_group_crystal_system       triclinic
_cell_length_a                    10.82697
_cell_length_b                    9.512542
_cell_length_c                    10.739452
_cell_angle_alpha                 89.951683
_cell_angle_beta                  90.165129
_cell_angle_gamma                 90.001979
_cell_volume                      1106.07272654

loop_
_atom_site_label
_atom_site_type_symbol
_atom_type_description
_atom_site_fract_x
_atom_site_fract_y
_atom_site_fract_z
_atom_type_partial_charge
Br1   Br    Br    0.271910 0.685400 0.861805 -0.404951
Br2   Br    Br    0.260098 0.335131 0.858115 -0.400780
Br3   Br    Br    0.733543 0.651064 0.872699 -0.461103
Br4   Br    Br    0.721838 0.326234 0.871057 -0.468257
C1    C     C_R   0.262076 0.499998 0.500707 0.575811
C2    C     C_R   0.426778 0.925629 0.419131 0.023874
C3    C     C_R   0.573230 0.925477 0.580964 0.030349
C4    C     C_R   0.573260 0.074345 0.580922 0.030046
C5    C     C_R   0.495666 0.500091 0.259918 0.530495
C6    C     C_R   0.737934 0.500000 0.500880 0.578475
C7    C     C_R   0.497102 0.499981 0.740097 0.652404
C8    C     C_3   0.432828 0.636724 0.072273 -0.221681
C9    C     C_3   0.418636 0.373372 0.072454 -0.221982
C10   C     C_3   0.435008 0.638860 0.929165 0.031643
C11   C     C_3   0.424046 0.368314 0.929375 0.031996
C12   C     C_3   0.632083 0.492692 0.929482 0.211376
C13   C     C_3   0.628707 0.491318 0.074088 -0.194379
C14   C     C_3   0.494090 0.500318 0.122154 -0.060633
C15   C     C_3   0.495437 0.500016 0.878036 0.049139
C16   C     C_R   0.063887 0.372238 0.502997 -0.097693
C17   C     C_R   0.063896 0.627754 0.502928 -0.097603
C18   C     C_R   0.936139 0.372238 0.503127 -0.098345
C19   C     C_R   0.936147 0.627756 0.503051 -0.098783
C20   C     C_R   0.871778 0.499998 0.502452 0.041409
C21   C     C_R   0.128246 0.499996 0.502257 0.041157
C22   C     C_R   0.426761 0.074518 0.419147 0.023786
Cu1   Cu    Cu3+1 0.500020 0.640660 0.500000 0.999869
Cu2   Cu    Cu3+1 0.500020 0.359340 0.500000 0.999912
H1    H     H_    0.482879 0.731004 0.107477 0.139010
H2    H     H_    0.672443 0.394009 0.111141 0.165230
H3    H     H_    0.111953 0.272362 0.503051 0.147390
H4    H     H_    0.111967 0.727630 0.502922 0.147558
H5    H     H_    0.888074 0.272359 0.503296 0.143851
H6    H     H_    0.888090 0.727635 0.503156 0.143480
H7    H     H_    0.368013 0.130742 0.354442 0.109987
H8    H     H_    0.368055 0.869520 0.354405 0.110077
H9    H     H_    0.456089 0.272892 0.110095 0.136419
H10   H     H_    0.631986 0.869275 0.645653 0.153962
H11   H     H_    0.632102 0.130391 0.645496 0.158846
H12   H     H_    0.336386 0.643668 0.107253 0.173511
H13   H     H_    0.321393 0.381963 0.104817 0.175140
H14   H     H_    0.491772 0.730434 0.900337 0.176734
H15   H     H_    0.475037 0.271481 0.903308 0.176926
H16   H     H_    0.682951 0.580676 0.112614 0.163995
N1    N     N_R   0.500030 0.852070 0.500030 -0.230872
N2    N     N_R   0.500030 0.147930 0.500030 -0.231480
O1    O     O_R   0.319660 0.618740 0.499990 -0.500244
O2    O     O_R   0.319660 0.381260 0.499990 -0.501136
O3    O     O_R   0.499990 0.618790 0.317690 -0.517139
O4    O     O_R   0.499990 0.381210 0.317690 -0.517052
O5    O     O_R   0.680370 0.618830 0.500010 -0.505397
O6    O     O_R   0.680370 0.381170 0.500010 -0.504387
O7    O     O_R   0.500030 0.618780 0.682310 -0.470710
O8    O     O_R   0.500030 0.381220 0.682310 -0.469245

loop_
_geom_bond_atom_site_label_1
_geom_bond_atom_site_label_2
_ccdc_geom_bond_type
C8    H12   S    
C19   C20   A    
Cu1   O7    S    
Cu1   O5    S    
Br4   C12   S    
Br2   C11   S    
C2    N1    A    
C8    H1    S    
Cu2   O6    S    
C22   H7    S    
C9    H9    S    
C7    O7    A    
C9    C11   S    
C10   H14   S    
C19   H6    S    
C6    O6    A    
Cu1   N1    S    
C9    H13   S    
C13   C14   S    
C8    C10   S    
C13   H16   S    
C11   H15   S    
C3    C4    A    
C17   H4    S    
C11   C15   S    
C13   H2    S    
C1    O1    A    
Cu2   N2    S    
C2    C22   A    
C7    O8    A    
C9    C14   S    
C12   C15   S    
C1    C21   S    
C6    O5    A    
C3    N1    A    
C4    H11   S    
C3    H10   S    
C2    H8    S    
C18   C20   A    
C17   C19   A    
C1    O2    A    
C4    N2    A    
C16   C21   A    
C22   N2    A    
Cu1   O1    S    
C5    C14   S    
C5    O3    A    
C8    C14   S    
Cu1   Cu2   S    
C18   H5    S    
C17   C21   A    
C7    C15   S    
Cu2   O8    S    
Br1   C10   S    
C6    C20   S    
Cu2   O4    S    
C10   C15   S    
Cu2   O2    S    
Br3   C12   S    
Cu1   O3    S    
C16   C18   A    
C12   C13   S    
C5    O4    A    
C16   H3    S    
