data_mof_unit_8898.cif
_audit_creation_date              2013-03-05T16:30:50-0500
_audit_creation_method            fapswitch 2.2
_symmetry_space_group_name_H-M    P1
_symmetry_Int_Tables_number       1
_space_group_crystal_system       triclinic
_cell_length_a                    11.037614
_cell_length_b                    10.914491
_cell_length_c                    9.592065
_cell_angle_alpha                 91.250753
_cell_angle_beta                  102.69818
_cell_angle_gamma                 90.681534
_cell_volume                      1126.85868448

loop_
_atom_site_label
_atom_site_type_symbol
_atom_site_description
_atom_site_fract_x
_atom_site_fract_y
_atom_site_fract_z
_atom_type_partial_charge
O1    O     O_R   0.500000 0.319640 0.618810 -0.552803
O2    O     O_R   0.500010 0.319680 0.381230 -0.517212
C1    C     C_R   0.504754 0.262924 0.499820 0.881805
O3    O     O_R   0.320680 0.500000 0.575130 -0.603369
O4    O     O_R   0.320690 0.500040 0.337550 -0.542436
C2    C     C_R   0.262832 0.497589 0.441958 0.860566
Cu1   Cu    Cu3+1 0.499990 0.499980 0.640670 1.034600
Cu2   Cu    Cu3+1 0.500010 0.500020 0.359330 1.080601
O5    O     O_R   0.499990 0.680320 0.618770 -0.587232
O6    O     O_R   0.500000 0.680360 0.381190 -0.608520
O7    O     O_R   0.679310 0.499960 0.662450 -0.563032
O8    O     O_R   0.679320 0.500000 0.424870 -0.562661
C3    C     C_R   0.504639 0.737553 0.502305 0.849340
C4    C     C_R   0.737072 0.498242 0.558200 0.893045
H1    H     H_    0.882658 0.457051 0.378296 0.228061
C5    C     C_2   0.127664 0.488714 0.409920 -0.227573
C6    C     C_2   0.067592 0.486598 0.516741 -0.129525
C7    C     C_2   0.872221 0.496247 0.591558 -0.258394
C8    C     C_2   0.932864 0.477115 0.487215 -0.032236
C9    C     C_R   0.469126 0.066692 0.605416 -0.064463
C10   C     C_R   0.509369 0.129866 0.498289 -0.163859
C11   C     C_R   0.550664 0.061444 0.390518 0.351061
C12   C     C_R   0.543809 0.932921 0.390721 -0.177641
C13   C     C_R   0.510277 0.871144 0.503929 -0.053125
C14   C     C_R   0.477688 0.940953 0.612770 -0.064682
C15   C     C_3   0.524349 0.945601 0.772793 0.025695
C16   C     C_3   0.501811 0.083863 0.765580 0.492218
C17   C     C_R   0.602556 0.539326 0.100652 0.164585
N1    N     N_R   0.500780 0.500930 0.148120 -0.278945
C18   C     C_R   0.403723 0.448839 0.046914 0.419720
C19   C     C_R   0.403764 0.451091 0.898972 -0.043370
H2    H     H_    0.325446 0.412493 0.821948 0.197934
N2    N     N_R   0.500790 0.500890 0.852210 -0.226718
C20   C     C_R   0.602358 0.538504 0.952925 0.225787
C21   C     C_3   0.656649 0.663297 0.960978 -0.417371
C22   C     C_3   0.656851 0.666150 0.118958 0.111744
N3    N     N_R   0.612409 0.162067 0.822089 0.167187
O9    O     O_R   0.708432 0.159460 0.763811 -0.287542
O10   O     O_R   0.614913 0.236304 0.930694 -0.262933
N4    N     N_R   0.300013 0.391372 0.087100 0.150322
O11   O     O_R   0.314696 0.287981 0.152918 -0.263745
O12   O     O_R   0.188133 0.424673 0.027537 -0.348016
H3    H     H_    0.749338 0.665050 0.933487 0.262789
H4    H     H_    0.587281 0.724781 0.899881 0.187389
N5    N     N_R   0.781772 0.671692 0.210400 0.171588
O13   O     O_R   0.805292 0.745303 0.321855 -0.307584
O14   O     O_R   0.871513 0.608584 0.177980 -0.358985
H5    H     H_    0.593043 0.734552 0.148941 0.123220
H6    H     H_    0.117810 0.494660 0.627704 0.189304
H7    H     H_    0.922417 0.513134 0.701332 0.178620
H8    H     H_    0.077290 0.482140 0.299083 0.221954
N6    N     N_R   0.612325 0.118760 0.290983 0.170797
O15   O     O_R   0.697862 0.202333 0.336379 -0.309784
O16   O     O_R   0.605781 0.067861 0.165689 -0.245223
H9    H     H_    0.574413 0.881490 0.308003 0.190873
H10   H     H_    0.463646 0.893937 0.830095 0.117315
N7    N     N_R   0.657030 0.918061 0.820953 0.147227
O17   O     O_R   0.721625 0.873301 0.733999 -0.314910
O18   O     O_R   0.711354 0.937604 0.954475 -0.237682
N8    N     N_R   0.394012 0.119775 0.822694 0.113118
O19   O     O_R   0.390126 0.095688 0.953858 -0.260232
O20   O     O_R   0.300666 0.174661 0.742820 -0.336660

loop_
_geom_bond_atom_site_label_1
_geom_bond_atom_site_label_2
_geom_bond_distance
_ccdc_geom_bond_type
O4    Cu2   1.944057 S    
Cu1   O7    1.944059 S    
C12   C13   1.404816 A    
C19   N2    1.360696 A    
C13   C14   1.391678 A    
C12   H9    1.077798 S    
N3    O9    1.302724 A    
C9    C16   1.505876 S    
C21   H3    1.111268 S    
C4    C7    1.455790 S    
C21   C22   1.514508 S    
C5    H8    1.086476 S    
C18   C19   1.419919 A    
Cu2   O8    1.940436 S    
N4    O12   1.301162 A    
N2    C20   1.361697 A    
N7    O17   1.301760 A    
C17   C20   1.416358 A    
Cu1   Cu2   2.698691 S    
N3    O10   1.300959 A    
O1    Cu1   1.974904 S    
C10   C11   1.419715 A    
C9    C10   1.397479 A    
H1    C8    1.085893 S    
C21   H4    1.100972 S    
Cu1   N2    2.026988 S    
C7    H7    1.087325 S    
C15   C16   1.532930 S    
N1    C18   1.384740 A    
C16   N3    1.475358 S    
O3    Cu1   1.940435 S    
Cu2   N1    2.028065 S    
Cu2   O6    1.974905 S    
N4    O11   1.299518 A    
C6    C8    1.453338 S    
N6    O16   1.299980 A    
C22   H5    1.108282 S    
C11   N6    1.437959 S    
O2    C1    1.298375 A    
C16   N8    1.468939 S    
N5    O14   1.301760 A    
O4    C2    1.301326 A    
C15   N7    1.472274 S    
C1    C10   1.453631 S    
O3    C2    1.296026 A    
N7    O18   1.301060 A    
C9    C14   1.379024 A    
C18   N4    1.428218 S    
C17   N1    1.366338 A    
C5    C6    1.337686 D    
C22   N5    1.462252 S    
N6    O15   1.301703 A    
C17   C22   1.493134 S    
N8    O20   1.301955 A    
C20   C21   1.475096 S    
C6    H6    1.087771 S    
O7    C4    1.298658 A    
Cu1   O5    1.984052 S    
O5    C3    1.302215 A    
C11   C12   1.403975 A    
C7    C8    1.334960 D    
C14   C15   1.507427 S    
N5    O13   1.300515 A    
C2    C5    1.457183 S    
O2    Cu2   1.984051 S    
C19   H2    1.080541 S    
C3    C13   1.458263 S    
O8    C4    1.298184 A    
N8    O19   1.300677 A    
O1    C1    1.298039 A    
O6    C3    1.297441 A    
C15   H10   1.111501 S    
