data_mof_unit_35685.cif
_audit_creation_date              2012-12-10T20:47:08-0500
_audit_creation_method            fapswitch 2.2
_symmetry_space_group_name_H-M    P1
_symmetry_Int_Tables_number       1
_space_group_crystal_system       triclinic
_cell_length_a                    10.622944
_cell_length_b                    8.924035
_cell_length_c                    8.122953
_cell_angle_alpha                 89.984767
_cell_angle_beta                  88.352683
_cell_angle_gamma                 89.520238
_cell_volume                      769.706842968

loop_
_atom_site_label
_atom_site_type_symbol
_atom_type_description
_atom_site_fract_x
_atom_site_fract_y
_atom_site_fract_z
_atom_type_partial_charge
C1    C     C_R   0.498713 0.218091 0.500002 0.931527
C2    C     C_R   0.055621 0.505370 0.657830 0.071882
C3    C     C_R   0.125588 0.544139 0.513875 -0.102070
C4    C     C_R   0.875709 0.476043 0.492048 -0.106876
C5    C     C_R   0.064797 0.573526 0.368140 -0.236097
C6    C     C_R   0.938230 0.546236 0.359415 -0.215555
C7    C     C_1   0.499180 0.065231 0.500034 -0.193828
C8    C     C_1   0.499699 0.934779 0.500021 -0.199829
C9    C     C_3   0.171266 0.659770 0.877682 -0.369192
C10   C     C_3   0.154935 0.801105 0.773128 -0.851735
C11   C     C_3   0.816399 0.195561 0.708736 -0.412203
C12   C     C_R   0.500177 0.781926 0.499970 0.930238
C13   C     C_3   0.879214 0.095626 0.577147 -0.888298
C14   C     C_R   0.259729 0.518845 0.503573 0.878502
C15   C     C_R   0.740967 0.486155 0.497599 0.868978
C16   C     C_R   0.096413 0.524669 0.821562 0.195026
C17   C     C_R   0.899968 0.325810 0.752129 0.193427
C18   C     C_R   0.047914 0.428108 0.943414 -0.259406
C19   C     C_R   0.955611 0.324423 0.906767 -0.197459
C20   C     C_R   0.941286 0.433955 0.633920 0.039094
H1    H     H_    0.115998 0.616636 0.262182 0.150523
H2    H     H_    0.819800 0.995955 0.556319 0.256059
H3    H     H_    0.795635 0.125155 0.819015 0.207806
H4    H     H_    0.724902 0.234164 0.665478 0.227526
H5    H     H_    0.083272 0.430981 0.066552 0.164843
H6    H     H_    0.926523 0.244387 0.000349 0.150399
H7    H     H_    0.889758 0.580108 0.249692 0.179890
H8    H     H_    0.053857 0.820713 0.748270 0.258706
H9    H     H_    0.190462 0.899571 0.840722 0.250532
H10   H     H_    0.209868 0.793060 0.655415 0.246416
H11   H     H_    0.136816 0.691513 0.002920 0.183120
H12   H     H_    0.272251 0.631610 0.889358 0.234323
H13   H     H_    0.890551 0.157169 0.458909 0.258549
H14   H     H_    0.973131 0.057193 0.617461 0.268553
N1    N     N_1   0.500000 0.500000 0.073640 -0.043375
N2    N     N_1   0.500000 0.500000 0.926360 -0.052997
O1    O     O_R   0.500000 0.285350 0.636850 -0.628327
O2    O     O_R   0.500000 0.714650 0.636850 -0.614382
O3    O     O_R   0.500000 0.285360 0.363100 -0.608245
O4    O     O_R   0.500000 0.714640 0.363100 -0.616752
O5    O     O_R   0.316770 0.500000 0.636900 -0.622312
O6    O     O_R   0.683230 0.500000 0.636900 -0.620614
O7    O     O_R   0.316780 0.500000 0.363150 -0.623331
O8    O     O_R   0.683220 0.500000 0.363150 -0.620266
Zn1   Zn    Zn3+2 0.500000 0.500000 0.682780 0.964892
Zn2   Zn    Zn3+2 0.500000 0.500000 0.317220 0.972338

loop_
_geom_bond_atom_site_label_1
_geom_bond_atom_site_label_2
_ccdc_geom_bond_type
C13   H2    S    
C13   H13   S    
C3    C14   S    
C2    C16   A    
C9    C10   S    
C10   H10   S    
N1    N2    T    
C1    O1    A    
C8    C12   S    
C4    C15   S    
C2    C3    A    
N2    Zn1   S    
O5    Zn1   S    
O4    Zn2   S    
C11   C13   S    
C10   H9    S    
C18   H5    S    
C14   O5    A    
C16   C18   A    
C17   C19   A    
C9    C16   S    
O8    Zn2   S    
C15   O8    A    
O3    Zn2   S    
C12   O2    A    
C5    C6    A    
O7    Zn2   S    
C9    H11   S    
O1    Zn1   S    
C4    C20   A    
C11   H4    S    
C7    C8    T    
C17   C20   A    
C5    H1    S    
C4    C6    A    
C18   C19   A    
C10   H8    S    
C11   H3    S    
C19   H6    S    
C1    O3    A    
C11   C17   S    
O2    Zn1   S    
C13   H14   S    
C12   O4    A    
C9    H12   S    
C1    C7    S    
N1    Zn2   S    
C2    C20   A    
C6    H7    S    
C15   O6    A    
C14   O7    A    
C3    C5    A    
O6    Zn1   S    
