data_mof_unit_19504.cif
_audit_creation_date              2012-12-10T20:37:29-0500
_audit_creation_method            fapswitch 2.2
_symmetry_space_group_name_H-M    P1
_symmetry_Int_Tables_number       1
_space_group_crystal_system       triclinic
_cell_length_a                    15.724643
_cell_length_b                    10.64954
_cell_length_c                    9.891871
_cell_angle_alpha                 90.414214
_cell_angle_beta                  90.490995
_cell_angle_gamma                 90.008081
_cell_volume                      1656.39069777

loop_
_atom_site_label
_atom_site_type_symbol
_atom_type_description
_atom_site_fract_x
_atom_site_fract_y
_atom_site_fract_z
_atom_type_partial_charge
C1    C     C_R   0.502792 0.260368 0.499677 0.949435
C2    C     C_3   0.083499 0.501454 0.500750 -0.024873
C3    C     C_3   0.971827 0.609465 0.559483 -0.284959
C4    C     C_3   0.916789 0.501341 0.501543 -0.089059
C5    C     C_3   0.026892 0.598531 0.431699 0.367785
C6    C     C_3   0.970762 0.493401 0.372730 0.209687
C7    C     C_1   0.174197 0.501116 0.498971 0.188013
C8    C     C_1   0.826037 0.500960 0.502019 0.098762
C9    C     C_R   0.470664 0.064637 0.603394 -0.045452
C10   C     C_R   0.512068 0.128606 0.501695 -0.236262
C11   C     C_R   0.568216 0.064892 0.414544 0.259177
C12   C     C_R   0.338083 0.500151 0.499496 0.915686
C13   C     C_R   0.570594 0.933966 0.417241 0.420244
C14   C     C_R   0.514571 0.870953 0.505289 -0.307686
C15   C     C_R   0.471993 0.936990 0.605470 -0.029970
C16   C     C_3   0.381048 0.931057 0.651093 0.831728
C17   C     C_3   0.380323 0.073990 0.648886 -0.409521
C18   C     C_R   0.437331 0.558869 0.070727 0.022954
C19   C     C_R   0.565044 0.446470 0.072779 -0.189447
C20   C     C_R   0.565134 0.445188 0.928102 0.515738
C21   C     C_R   0.437155 0.558308 0.928372 -0.117877
C22   C     C_3   0.343215 0.532124 0.920595 0.206019
C23   C     C_R   0.503091 0.739526 0.500702 0.905491
C24   C     C_3   0.343230 0.533865 0.075027 0.571254
C25   C     C_R   0.661978 0.500042 0.500530 0.884470
C26   C     C_3   0.971976 0.401380 0.572854 -0.269786
C27   C     C_3   0.027004 0.396513 0.444689 0.356746
C28   C     C_1   0.249368 0.500665 0.498607 -0.034191
C29   C     C_1   0.750798 0.500500 0.501647 -0.106733
C30   C     C_3   0.028822 0.509338 0.628440 0.269062
H1    H     H_    0.337665 0.115190 0.570636 0.176472
H2    H     H_    0.375536 0.118261 0.750695 0.227086
H3    H     H_    0.616355 0.402691 0.128579 0.191981
H4    H     H_    0.306848 0.610129 0.873661 0.172480
H5    H     H_    0.947978 0.319595 0.630104 0.208159
H6    H     H_    0.947708 0.697630 0.605820 0.206007
N1    N     N_R   0.499430 0.499140 0.142800 -0.123175
N2    N     N_R   0.499430 0.499180 0.857150 -0.108451
O1    O     O_R   0.500010 0.316790 0.614690 -0.583069
O2    O     O_R   0.500000 0.316760 0.385350 -0.599135
O3    O     O_R   0.376780 0.500010 0.614650 -0.596833
O4    O     O_R   0.376770 0.499970 0.385310 -0.567977
O5    O     O_R   0.500000 0.683240 0.614650 -0.620846
O6    O     O_R   0.499990 0.683210 0.385310 -0.588164
O7    O     O_R   0.623230 0.500030 0.614690 -0.552689
O8    O     O_R   0.623220 0.499990 0.385350 -0.614738
Zn1   Zn    Zn3+2 0.500010 0.500020 0.653130 1.035841
Zn2   Zn    Zn3+2 0.499990 0.499980 0.346870 1.026824
O9    O     O_3   0.058503 0.286654 0.385332 -0.673177
H7    H     H_    0.007615 0.235924 0.361549 0.367222
O10   O     O_3   0.372898 0.883334 0.782030 -0.700311
H8    H     H_    0.383062 0.791676 0.774623 0.346021
O11   O     O_3   0.629149 0.386514 0.857479 -0.709052
H9    H     H_    0.671066 0.351838 0.922694 0.339151
O12   O     O_3   0.321499 0.414518 0.863339 -0.668552
H10   H     H_    0.367141 0.352929 0.883642 0.334643
Br1   Br    Br    0.280615 0.674333 0.151037 -0.320883
O13   O     O_3   0.319786 0.418799 0.133872 -0.656623
H11   H     H_    0.365094 0.355820 0.117308 0.327282
Br2   Br    Br    0.928412 0.481953 0.188511 -0.345951
O14   O     O_3   0.058328 0.700186 0.358760 -0.652693
H12   H     H_    0.007407 0.747414 0.328432 0.365294
Br3   Br    Br    0.072817 0.520764 0.811650 -0.302020
Br4   Br    Br    0.643438 0.152030 0.294285 -0.413575
O15   O     O_3   0.626174 0.872126 0.332255 -0.683967
H13   H     H_    0.638244 0.787714 0.368969 0.334491
O16   O     O_3   0.324239 0.873880 0.558305 -0.735836
H14   H     H_    0.334825 0.909288 0.467361 0.332331

loop_
_geom_bond_atom_site_label_1
_geom_bond_atom_site_label_2
_ccdc_geom_bond_type
C14   C23   S    
C3    C30   S    
C4    C26   S    
O12   H10   S    
C12   O3    A    
C6    Br2   S    
C18   C21   A    
C20   N2    A    
C9    C10   A    
C24   Br1   S    
C1    O1    A    
C6    C27   S    
C16   O10   S    
C2    C30   S    
C4    C8    S    
C19   C20   A    
N2    Zn1   S    
O3    Zn1   S    
C22   O12   S    
C5    O14   S    
O6    Zn2   S    
O15   H13   S    
C16   O16   S    
O4    Zn2   S    
O11   H9    S    
N1    Zn2   S    
C5    C6    S    
C11   C13   A    
C26   C27   S    
C2    C27   S    
C3    H6    S    
C12   C28   S    
O16   H14   S    
C18   C24   S    
C8    C29   T    
C13   O15   S    
C24   O13   S    
C18   N1    A    
C26   C30   S    
O8    Zn2   S    
O7    Zn1   S    
C25   C29   S    
O14   H12   S    
C17   H1    S    
C13   C14   A    
C22   C24   S    
C2    C5    S    
C15   C16   S    
C1    C10   S    
C27   O9    S    
O10   H8    S    
C25   O7    A    
C26   H5    S    
C21   N2    A    
C23   O5    A    
C3    C4    S    
C4    C6    S    
C11   Br4   S    
C10   C11   A    
C9    C17   S    
C17   H2    S    
O9    H7    S    
C22   H4    S    
O2    Zn2   S    
C14   C15   A    
C16   C17   S    
C12   O4    A    
C19   N1    A    
C1    O2    A    
C3    C5    S    
O13   H11   S    
C21   C22   S    
O1    Zn1   S    
O5    Zn1   S    
C25   O8    A    
C30   Br3   S    
C7    C28   T    
C2    C7    S    
C9    C15   A    
C19   H3    S    
C20   O11   S    
C23   O6    A    
