data_mof_unit_19177.cif
_audit_creation_date              2012-12-11T15:53:47-0500
_audit_creation_method            fapswitch 2.2
_symmetry_space_group_name_H-M    P1
_symmetry_Int_Tables_number       1
_space_group_crystal_system       triclinic
_cell_length_a                    10.76027
_cell_length_b                    10.718054
_cell_length_c                    17.189349
_cell_angle_alpha                 79.887956
_cell_angle_beta                  100.344021
_cell_angle_gamma                 119.190917
_cell_volume                      1693.57371766

loop_
_atom_site_label
_atom_site_type_symbol
_atom_type_description
_atom_site_fract_x
_atom_site_fract_y
_atom_site_fract_z
_atom_type_partial_charge
C1    C     C_R   0.384153 0.281828 0.631968 0.533781
C2    C     C_R   0.461440 0.805133 0.699503 0.243210
C3    C     C_R   0.454081 0.820331 0.776976 0.225725
C4    C     C_3   0.123660 0.452595 0.786321 -0.230998
C5    C     C_3   0.131078 0.441924 0.700538 -0.237855
C6    C     C_R   0.346839 0.690034 0.657809 -0.021671
C7    C     C_1   0.855001 0.669106 0.702668 -0.065146
C8    C     C_1   0.901461 0.704206 0.769289 -0.065082
C9    C     C_1   0.363845 0.230491 0.714157 -0.020851
C10   C     C_1   0.331246 0.184383 0.780908 -0.009967
C11   C     C_1   0.336280 0.664340 0.277547 -0.023031
C12   C     C_R   0.374583 0.654270 0.587565 0.557824
C13   C     C_1   0.323658 0.674035 0.207074 -0.058880
C14   C     C_R   0.822156 0.664110 0.154790 0.010614
C15   C     C_R   0.786943 0.534359 0.202192 -0.003162
C16   C     C_R   0.764303 0.519504 0.279577 -0.043229
C17   C     C_R   0.803814 0.763827 0.266067 -0.157058
C18   C     C_R   0.819313 0.776106 0.185569 -0.152258
C19   C     C_3   0.849533 0.432685 0.218592 0.168417
C20   C     C_3   0.804554 0.400310 0.302223 0.157346
C21   C     C_R   0.788781 0.638721 0.315329 0.041989
C22   C     C_R   0.330407 0.163092 0.161016 0.056125
C23   C     C_R   0.782895 0.621403 0.626062 0.533085
C24   C     C_R   0.280260 0.250445 0.179630 -0.011550
C25   C     C_R   0.285186 0.267703 0.257443 -0.006903
C26   C     C_R   0.406881 0.125048 0.301152 -0.161611
C27   C     C_R   0.401375 0.106591 0.222131 -0.096051
C28   C     C_3   0.139150 0.249787 0.157176 -0.241304
C29   C     C_3   0.144692 0.269046 0.242923 -0.204933
C30   C     C_R   0.337638 0.196168 0.319294 0.012822
C31   C     C_R   0.948588 0.725731 0.851976 0.547204
C32   C     C_R   0.312952 0.714339 0.894813 0.554152
C33   C     C_R   0.285162 0.117128 0.857913 0.543047
C34   C     C_R   0.352125 0.230437 0.398510 0.548060
C35   C     C_R   0.888036 0.691086 0.083618 0.568738
C36   C     C_R   0.312877 0.700962 0.124118 0.536023
C37   C     C_R   0.285846 0.106179 0.085313 0.558606
C38   C     C_R   0.365736 0.654004 0.360433 0.596529
C39   C     C_R   0.763808 0.618250 0.397187 0.579010
C40   C     C_R   0.332277 0.707939 0.815434 -0.051877
C41   C     C_R   0.214598 0.610890 0.769848 -0.050043
C42   C     C_R   0.221082 0.601767 0.692409 -0.043319
Cr1   Cr    Cr6+3 0.608440 0.389080 0.519680 1.114725
Cr2   Cr    Cr6+3 0.288640 0.400090 0.490760 1.094950
Cr3   Cr    Cr6+3 0.602940 0.710800 0.489510 1.058359
Cr4   Cr    Cr6+3 0.052530 0.947560 0.964210 1.080001
Cr5   Cr    Cr6+3 0.059970 0.626800 0.992920 1.080914
Cr6   Cr    Cr6+3 0.373320 0.938440 0.995370 1.117367
H1    H     H_    0.708897 0.294685 0.312687 0.165870
H2    H     H_    0.458433 0.078232 0.347846 0.155137
H3    H     H_    0.440984 0.037475 0.209827 0.184405
H4    H     H_    0.049486 0.144831 0.140419 0.176280
H5    H     H_    0.147891 0.344663 0.115312 0.178681
H6    H     H_    0.156324 0.375246 0.249540 0.187142
H7    H     H_    0.059771 0.175211 0.274863 0.191082
H8    H     H_    0.014473 0.424409 0.798577 0.186284
H9    H     H_    0.179180 0.401461 0.830138 0.151341
H10   H     H_    0.190480 0.383954 0.695004 0.151585
H11   H     H_    0.026004 0.406893 0.663509 0.175277
H12   H     H_    0.809448 0.853583 0.290108 0.156474
H13   H     H_    0.842067 0.877309 0.149947 0.149761
H14   H     H_    0.967654 0.490469 0.216704 0.142628
O1    O     O_R   0.754020 0.497590 0.609930 -0.481070
O2    O     O_R   0.295080 0.533620 0.397890 -0.426360
O3    O     O_R   0.485280 0.746620 0.388440 -0.514485
O4    O     O_R   0.720550 0.696220 0.420010 -0.515742
O5    O     O_3   0.500010 0.499990 0.499980 -0.311350
O6    O     O_R   0.163320 0.092900 0.874450 -0.519193
O7    O     O_R   0.934650 0.822080 0.882840 -0.464152
O8    O     O_R   0.915520 0.604140 0.893670 -0.484503
O9    O     O_R   0.191760 0.638110 0.923230 -0.523867
O10   O     O_R   0.406180 0.826930 0.920660 -0.427294
O11   O     O_R   0.358620 0.062870 0.901950 -0.441981
O12   O     O_R   0.481420 0.271390 0.600630 -0.453568
O13   O     O_R   0.163910 0.085460 0.050210 -0.532906
O14   O     O_R   0.935200 0.815170 0.045770 -0.494293
O15   O     O_R   0.916120 0.596690 0.069430 -0.461491
O16   O     O_R   0.192310 0.631200 0.086170 -0.504722
O17   O     O_R   0.406770 0.819480 0.096420 -0.509449
O18   O     O_R   0.359170 0.055960 0.064880 -0.470695
O19   O     O_3   0.161940 0.837600 0.984160 -0.309824
O20   O     O_R   0.263810 0.254550 0.589590 -0.513991
O21   O     O_R   0.300820 0.531200 0.560890 -0.521984
O22   O     O_R   0.491480 0.744020 0.564270 -0.465776
O23   O     O_R   0.726290 0.693800 0.583010 -0.527841
O24   O     O_R   0.747830 0.500190 0.434090 -0.440670
O25   O     O_R   0.475680 0.273800 0.437630 -0.496959
O26   O     O_R   0.257620 0.257160 0.413750 -0.481187
O27   O     O_3   0.590176 0.893858 0.668210 -0.485424
C43   C     C_3   0.684860 0.835070 0.696042 0.001189
H15   H     H_    0.630739 0.716869 0.693642 0.087152
H16   H     H_    0.731634 0.852710 0.758278 0.177125
H17   H     H_    0.775841 0.889963 0.659525 0.165354
S1    S     S_3+6 0.761511 0.283904 0.159911 -0.011724
O28   O     O_2   0.631321 0.284316 0.110961 -0.283677
O29   O     O_2   0.863043 0.298544 0.105076 -0.298511
O30   O     O_3   0.715460 0.128728 0.219082 -0.561443
H18   H     H_    0.683449 0.054335 0.182450 0.364051
S2    S     S_3+6 0.950097 0.426189 0.378359 0.005318
O31   O     O_2   0.022395 0.346712 0.360749 -0.297452
O32   O     O_2   0.054184 0.583483 0.379560 -0.324260
O33   O     O_3   0.890304 0.356697 0.467990 -0.489666
H19   H     H_    0.977666 0.377409 0.505709 0.355042
S3    S     S_3+6 0.611804 0.969117 0.824190 0.042150
O34   O     O_2   0.680003 0.905465 0.891961 -0.299520
O35   O     O_2   0.723206 0.067787 0.769366 -0.258617
O36   O     O_3   0.571575 0.078939 0.859509 -0.469646
H20   H     H_    0.658184 0.137848 0.894230 0.364119

loop_
_geom_bond_atom_site_label_1
_geom_bond_atom_site_label_2
_ccdc_geom_bond_type
C3    S3    S    
C5    C42   S    
C16   C21   A    
C11   C38   S    
C11   C13   T    
C41   C42   A    
C14   C18   A    
C19   C20   S    
Cr2   O21   S    
Cr4   O14   S    
O30   H18   S    
Cr1   O1    S    
C7    C8    T    
C32   O10   A    
Cr2   O2    S    
C15   C19   S    
C26   C27   A    
C5    H10   S    
C1    O12   A    
Cr6   O17   S    
C28   C29   S    
Cr2   O20   S    
C26   H2    S    
C6    C12   S    
C4    C41   S    
C19   H14   S    
C15   C16   A    
Cr6   O19   S    
C12   O22   A    
Cr4   O13   S    
Cr4   O7    S    
C31   O8    A    
C4    H9    S    
Cr3   O5    S    
O36   H20   S    
C9    C10   T    
Cr1   O12   S    
C23   O1    A    
C37   O13   A    
C4    H8    S    
C8    C31   S    
C2    C6    A    
Cr6   O10   S    
S3    O35   D    
S3    O34   D    
C27   H3    S    
C32   O9    A    
C38   O2    A    
C25   C29   S    
C37   O18   A    
C35   O14   A    
C5    H11   S    
C1    C9    S    
C24   C25   A    
C13   C36   S    
C14   C35   S    
C30   C34   S    
Cr5   O19   S    
C29   H7    S    
S1    O30   S    
C1    O20   A    
C22   C37   S    
C35   O15   A    
C17   C21   A    
C12   O21   A    
C2    O27   S    
Cr3   O23   S    
Cr5   O8    S    
Cr4   O6    S    
C20   H1    S    
Cr4   O19   S    
C43   H16   S    
S2    O31   D    
C21   C39   S    
C38   O3    A    
C16   C20   S    
C17   C18   A    
S1    O28   D    
C34   O26   A    
S1    O29   D    
Cr5   O9    S    
C19   S1    S    
C33   O11   A    
C40   C41   A    
S2    O32   D    
C3    C40   A    
C26   C30   A    
C22   C27   A    
Cr3   O3    S    
C39   O4    A    
C22   C24   A    
Cr3   O22   S    
Cr5   O15   S    
C43   H17   S    
C25   C30   A    
Cr1   O24   S    
Cr6   O11   S    
C24   C28   S    
C4    C5    S    
C36   O17   A    
C28   H5    S    
C18   H13   S    
C29   H6    S    
Cr5   O16   S    
Cr1   O25   S    
Cr6   O18   S    
C2    C3    A    
C23   O23   A    
C36   O16   A    
C28   H4    S    
C43   H15   S    
C20   S2    S    
C7    C23   S    
C10   C33   S    
C34   O25   A    
C32   C40   S    
O33   H19   S    
C17   H12   S    
C31   O7    A    
S2    O33   S    
Cr1   O5    S    
C6    C42   A    
Cr3   O4    S    
C14   C15   A    
Cr2   O5    S    
C39   O24   A    
O27   C43   S    
Cr2   O26   S    
S3    O36   S    
C33   O6    A    
