data_mof_unit_51006.cif
_audit_creation_date              2012-12-11T15:48:33-0500
_audit_creation_method            fapswitch 2.2
_symmetry_space_group_name_H-M    P1
_symmetry_Int_Tables_number       1
_space_group_crystal_system       triclinic
_cell_length_a                    11.058908
_cell_length_b                    10.891176
_cell_length_c                    18.706418
_cell_angle_alpha                 90.329092
_cell_angle_beta                  89.392901
_cell_angle_gamma                 60.569101
_cell_volume                      1962.05709932

loop_
_atom_site_label
_atom_site_type_symbol
_atom_type_description
_atom_site_fract_x
_atom_site_fract_y
_atom_site_fract_z
_atom_type_partial_charge
C1    C     C_R   0.295272 0.621040 0.615753 0.554400
C2    C     C_3   0.643003 0.572543 0.800406 -0.254855
C3    C     C_3   0.698238 0.675525 0.811467 0.049119
C4    C     C_3   0.669370 0.651843 0.674864 0.064429
C5    C     C_3   0.818550 0.618769 0.688934 -0.256826
C6    C     C_3   0.638561 0.549116 0.719672 -0.207186
C7    C     C_R   0.679244 0.173985 0.827870 -0.001844
C8    C     C_R   0.787601 0.164432 0.784326 0.009468
C9    C     C_R   0.772391 0.182045 0.710412 -0.035326
C10   C     C_R   0.545501 0.206430 0.721428 -0.161246
C11   C     C_R   0.552988 0.209844 0.794840 -0.159247
C12   C     C_R   0.653869 0.624612 0.599739 0.533586
C13   C     C_3   0.932579 0.045669 0.774031 0.103277
C14   C     C_3   0.918450 0.073551 0.694125 -0.256635
C15   C     C_R   0.654760 0.192635 0.677903 0.007978
C16   C     C_R   0.223659 0.646957 0.844944 0.008449
C17   C     C_R   0.254059 0.523126 0.806801 0.002630
C18   C     C_R   0.273781 0.516261 0.732528 0.026182
C19   C     C_R   0.278462 0.733160 0.735939 -0.182416
C20   C     C_R   0.260779 0.738748 0.810689 -0.153022
C21   C     C_3   0.177473 0.443400 0.803403 -0.279160
C22   C     C_3   0.185122 0.449781 0.722478 -0.270669
C23   C     C_R   0.625394 0.231884 0.603582 0.535615
C24   C     C_R   0.274929 0.626375 0.694667 -0.012822
C25   C     C_R   0.648347 0.669736 0.166667 0.016380
C26   C     C_R   0.714136 0.537287 0.198748 0.020123
C27   C     C_R   0.716025 0.527101 0.271921 0.046377
C28   C     C_R   0.568247 0.777288 0.284993 -0.164849
C29   C     C_R   0.566258 0.788992 0.210353 -0.161149
C30   C     C_3   0.859360 0.415370 0.191888 -0.271315
C31   C     C_3   0.862087 0.409234 0.272506 -0.268563
C32   C     C_R   0.650957 0.645976 0.316367 0.023651
C33   C     C_R   0.666028 0.128524 0.181677 0.025807
C34   C     C_R   0.223714 0.648546 0.400805 0.553824
C35   C     C_R   0.562151 0.119614 0.219507 0.023999
C36   C     C_R   0.556437 0.128649 0.292617 0.019501
C37   C     C_R   0.777539 0.121557 0.294112 -0.163638
C38   C     C_R   0.780727 0.116832 0.219739 -0.150949
C39   C     C_3   0.408923 0.202850 0.211347 -0.280886
C40   C     C_3   0.400594 0.213372 0.291996 -0.264197
C41   C     C_R   0.656347 0.146860 0.330072 0.022313
C42   C     C_R   0.161136 0.661293 0.179361 0.018653
C43   C     C_R   0.225573 0.730020 0.211101 0.020654
C44   C     C_R   0.235552 0.730403 0.283650 0.049456
C45   C     C_R   0.642126 0.622065 0.391915 0.545083
C46   C     C_R   0.142638 0.572647 0.295322 -0.179558
C47   C     C_R   0.131683 0.571716 0.221136 -0.168287
C48   C     C_3   0.200100 0.878769 0.206893 -0.269445
C49   C     C_3   0.206990 0.879065 0.287444 -0.264903
C50   C     C_R   0.185929 0.660813 0.327136 0.023007
C51   C     C_R   0.701426 0.104319 0.896993 0.548841
C52   C     C_R   0.724168 0.687974 0.888017 0.542863
C53   C     C_R   0.126057 0.701760 0.907765 0.559973
C54   C     C_R   0.677912 0.100660 0.105896 0.542269
C55   C     C_R   0.695166 0.689590 0.097044 0.549704
C56   C     C_R   0.618274 0.224621 0.396744 0.548886
C57   C     C_R   0.094780 0.708129 0.111746 0.551257
C58   C     C_3   0.591847 0.821265 0.779404 -0.221490
C59   C     C_3   0.572744 0.806400 0.699002 -0.240806
C60   C     C_3   0.837541 0.618403 0.769633 -0.239540
Cr1   Cr    Cr6+3 0.392960 0.397920 0.502240 1.002722
Cr2   Cr    Cr6+3 0.398340 0.708480 0.501250 1.001394
Cr3   Cr    Cr6+3 0.708670 0.393570 0.496460 1.002530
Cr4   Cr    Cr6+3 0.937650 0.938540 0.007610 1.035238
Cr5   Cr    Cr6+3 0.625330 0.937370 0.994520 1.012474
Cr6   Cr    Cr6+3 0.937940 0.625230 0.001190 1.009615
H1    H     H_    0.629344 0.898311 0.786990 0.139181
H2    H     H_    0.719249 0.439567 0.706514 0.147728
H3    H     H_    0.902947 0.506291 0.784626 0.143066
H4    H     H_    0.894989 0.513525 0.666534 0.140843
H5    H     H_    0.453993 0.212751 0.698654 0.140539
H6    H     H_    0.465529 0.218846 0.825141 0.148876
H7    H     H_    0.979294 0.122189 0.672894 0.124631
H8    H     H_    0.925744 0.985563 0.660416 0.130441
H9    H     H_    0.284000 0.818468 0.710235 0.136055
H10   H     H_    0.489437 0.864400 0.807410 0.136387
H11   H     H_    0.256656 0.826679 0.839682 0.166468
H12   H     H_    0.075662 0.501981 0.828985 0.173796
H13   H     H_    0.237583 0.335007 0.824202 0.139466
H14   H     H_    0.236031 0.345351 0.695740 0.136251
H15   H     H_    0.086730 0.525687 0.697663 0.133814
H16   H     H_    0.510746 0.870847 0.318003 0.118382
H17   H     H_    0.511673 0.892793 0.187508 0.137440
H18   H     H_    0.937266 0.441329 0.170237 0.161628
H19   H     H_    0.861652 0.322375 0.165979 0.130008
H20   H     H_    0.871204 0.311029 0.293768 0.145111
H21   H     H_    0.463089 0.839824 0.688291 0.131196
H22   H     H_    0.934344 0.441036 0.296391 0.130829
H23   H     H_    0.862447 0.120257 0.322762 0.111003
H24   H     H_    0.870702 0.108193 0.192219 0.122612
H25   H     H_    0.364004 0.139564 0.189057 0.131928
H26   H     H_    0.375565 0.305446 0.184818 0.145942
H27   H     H_    0.360412 0.322838 0.311534 0.179749
H28   H     H_    0.350849 0.156086 0.316440 0.124476
H29   H     H_    0.115182 0.507491 0.327585 0.117727
H30   H     H_    0.088867 0.511218 0.197546 0.127471
H31   H     H_    0.096363 0.956989 0.187981 0.156254
H32   H     H_    0.597926 0.878442 0.668284 0.114293
H33   H     H_    0.287227 0.884275 0.180032 0.134322
H34   H     H_    0.295335 0.888560 0.307984 0.149009
H35   H     H_    0.105662 0.950628 0.313915 0.128289
H36   H     H_    0.889001 0.681008 0.782743 0.119127
H37   H     H_    0.839831 0.698457 0.663355 0.110329
H38   H     H_    0.711213 0.470057 0.826507 0.128977
H39   H     H_    0.538004 0.615835 0.824955 0.128648
H40   H     H_    0.538314 0.557607 0.705429 0.121695
O1    O     O_R   0.507380 0.255700 0.581440 -0.536260
O2    O     O_R   0.524480 0.695810 0.424040 -0.505646
O3    O     O_R   0.736390 0.504290 0.414790 -0.516790
O4    O     O_R   0.691300 0.277290 0.422170 -0.502904
O5    O     O_3   0.499990 0.499990 0.499980 -0.266751
O6    O     O_R   0.089400 0.825690 0.930570 -0.487198
O7    O     O_R   0.818460 0.054440 0.929850 -0.468718
O8    O     O_R   0.606060 0.077150 0.915510 -0.534602
O9    O     O_R   0.646550 0.806680 0.917570 -0.506851
O10   O     O_R   0.837170 0.593410 0.915250 -0.525358
O11   O     O_R   0.065200 0.635530 0.931570 -0.512390
O12   O     O_R   0.280320 0.527350 0.578930 -0.496687
O13   O     O_R   0.068260 0.828890 0.091840 -0.531891
O14   O     O_R   0.798870 0.057410 0.079340 -0.517412
O15   O     O_R   0.584930 0.080350 0.076780 -0.517756
O16   O     O_R   0.626960 0.809650 0.067060 -0.506508
O17   O     O_R   0.816040 0.596610 0.076510 -0.524892
O18   O     O_R   0.045610 0.638500 0.081060 -0.513948
O19   O     O_3   0.833640 0.833710 0.001100 -0.250553
O20   O     O_R   0.260510 0.739590 0.584590 -0.524509
O21   O     O_R   0.532300 0.695080 0.573820 -0.524744
O22   O     O_R   0.744840 0.503500 0.576370 -0.527694
O23   O     O_R   0.699120 0.276560 0.571960 -0.500648
O24   O     O_R   0.498940 0.256500 0.419860 -0.527018
O25   O     O_R   0.272500 0.528080 0.429150 -0.506630
O26   O     O_R   0.252060 0.740380 0.423010 -0.516779
N1    N     N_3   0.946578 0.908366 0.792480 -0.587161
H41   H     H_    0.011860 0.833171 0.755004 0.221543
H42   H     H_    0.851965 0.910079 0.786207 0.208199
C61   C     C_1   0.033524 0.076214 0.808967 0.250999
N2    N     N_1   0.111776 0.102245 0.836320 -0.357330

loop_
_geom_bond_atom_site_label_1
_geom_bond_atom_site_label_2
_ccdc_geom_bond_type
C44   C49   S    
C5    H37   S    
C8    C13   S    
C54   O14   A    
C32   C45   S    
C35   C36   A    
C40   H27   S    
C9    C14   S    
C58   H10   S    
C7    C8    A    
C12   O21   A    
C7    C11   A    
C48   H31   S    
C26   C27   A    
C51   O7    A    
Cr4   O13   S    
Cr6   O10   S    
C20   H11   S    
C18   C24   A    
C14   H8    S    
C28   C29   A    
C29   H17   S    
C10   C15   A    
C49   H35   S    
Cr2   O21   S    
C53   O11   A    
Cr4   O6    S    
Cr2   O2    S    
C30   H18   S    
C23   O23   A    
Cr5   O8    S    
C39   H25   S    
C16   C53   S    
C46   H29   S    
C19   C20   A    
C8    C9    A    
Cr6   O11   S    
C21   H12   S    
C47   H30   S    
C31   H22   S    
Cr5   O15   S    
C4    C12   S    
C43   C48   S    
Cr3   O22   S    
C45   O2    A    
C57   O13   A    
C3    C60   S    
C15   C23   S    
Cr1   O12   S    
C55   O16   A    
C34   O26   A    
C31   H20   S    
C21   C22   S    
Cr3   O5    S    
Cr5   O9    S    
C36   C41   A    
C2    C6    S    
C60   H36   S    
C42   C57   S    
C56   O4    A    
C42   C47   A    
C52   O10   A    
C25   C29   A    
C55   O17   A    
C34   C50   S    
C51   O8    A    
Cr2   O5    S    
C28   H16   S    
C22   H15   S    
Cr2   O26   S    
C28   C32   A    
C1    O20   A    
C4    C6    S    
C39   C40   S    
Cr2   O20   S    
C11   H6    S    
C16   C17   A    
C25   C26   A    
C27   C31   S    
C17   C21   S    
Cr5   O19   S    
Cr3   O3    S    
C35   C39   S    
C43   C44   A    
C14   H7    S    
C41   C56   S    
C37   C38   A    
C36   C40   S    
C16   C20   A    
C23   O1    A    
C21   H13   S    
C17   C18   A    
C6    H40   S    
Cr5   O16   S    
C30   H19   S    
Cr1   O24   S    
C53   O6    A    
C48   C49   S    
C54   O15   A    
C2    H38   S    
C26   C30   S    
N1    H41   S    
C13   C61   S    
Cr6   O18   S    
C42   C43   A    
Cr1   O5    S    
C39   H26   S    
C52   O9    A    
C44   C50   A    
C33   C54   S    
C48   H33   S    
C46   C50   A    
C46   C47   A    
Cr4   O7    S    
C5    C60   S    
C27   C32   A    
C18   C22   S    
C13   N1    S    
C25   C55   S    
C40   H28   S    
C61   N2    T    
C5    H4    S    
C34   O25   A    
C3    C52   S    
C12   O22   A    
C38   H24   S    
C2    H39   S    
C33   C38   A    
Cr4   O14   S    
Cr6   O19   S    
C37   H23   S    
Cr3   O4    S    
C19   H9    S    
C19   C24   A    
C58   C59   S    
C7    C51   S    
C10   H5    S    
C57   O18   A    
C30   C31   S    
C60   H3    S    
C4    C59   S    
C6    H2    S    
C33   C35   A    
C2    C3    S    
C45   O3    A    
C1    O12   A    
Cr3   O23   S    
C37   C41   A    
Cr1   O1    S    
C59   H21   S    
C10   C11   A    
Cr1   O25   S    
C22   H14   S    
C3    C58   S    
C58   H1    S    
C4    C5    S    
C1    C24   S    
Cr4   O19   S    
N1    H42   S    
C59   H32   S    
Cr6   O17   S    
C13   C14   S    
C56   O24   A    
C9    C15   A    
C49   H34   S    
