data_mof_unit_30740.cif
_audit_creation_date              2013-03-05T16:33:12-0500
_audit_creation_method            fapswitch 2.2
_symmetry_space_group_name_H-M    P1
_symmetry_Int_Tables_number       1
_space_group_crystal_system       triclinic
_cell_length_a                    27.764007
_cell_length_b                    10.817119
_cell_length_c                    9.531976
_cell_angle_alpha                 89.941172
_cell_angle_beta                  89.901034
_cell_angle_gamma                 90.093319
_cell_volume                      2862.6960502

loop_
_atom_site_label
_atom_site_type_symbol
_atom_site_description
_atom_site_fract_x
_atom_site_fract_y
_atom_site_fract_z
_atom_type_partial_charge
O1    O     O_R   0.500000 0.319640 0.618810 -0.582211
O2    O     O_R   0.500010 0.319680 0.381230 -0.589917
C1    C     C_R   0.500871 0.262260 0.500009 0.805852
O3    O     O_R   0.430260 0.500000 0.618780 -0.584227
O4    O     O_R   0.430270 0.500040 0.381190 -0.580073
C2    C     C_R   0.407392 0.500013 0.500174 0.801435
Cu1   Cu    Cu3+1 0.500000 0.499980 0.640670 0.945505
Cu2   Cu    Cu3+1 0.500000 0.500020 0.359330 0.946670
O5    O     O_R   0.499990 0.680320 0.618770 -0.579191
O6    O     O_R   0.500000 0.680360 0.381190 -0.583768
O7    O     O_R   0.569730 0.499960 0.618810 -0.583241
O8    O     O_R   0.569740 0.500000 0.381220 -0.581763
C3    C     C_R   0.500904 0.737712 0.499875 0.807290
C4    C     C_R   0.592631 0.499365 0.500043 0.802081
C5    C     C_R   0.177630 0.402795 0.568769 0.569097
O9    O     O_2   0.202739 0.305461 0.618513 -0.525775
N1    N     N_R   0.201449 0.500253 0.508417 -0.469011
C6    C     C_R   0.176944 0.599346 0.454961 0.549767
C7    C     C_R   0.279034 0.505787 0.631249 -0.097753
C8    C     C_R   0.329207 0.505592 0.629401 -0.216153
C9    C     C_R   0.328211 0.494887 0.375204 -0.213788
C10   C     C_R   0.277930 0.494826 0.377368 -0.093379
C11   C     C_R   0.253158 0.500207 0.505434 0.344554
C12   C     C_R   0.101363 0.504906 0.526043 -0.048369
C13   C     C_R   0.127161 0.403344 0.578800 -0.083007
C14   C     C_R   0.102359 0.307011 0.645310 -0.175788
C15   C     C_R   0.126468 0.603532 0.462647 -0.013057
C16   C     C_R   0.354312 0.500163 0.501352 -0.043820
H1    H     H_    0.346578 0.490483 0.275017 0.160137
H2    H     H_    0.258186 0.490173 0.279642 0.148972
H3    H     H_    0.122220 0.232929 0.695175 0.223628
C17   C     C_R   0.645749 0.497961 0.500997 -0.041388
C18   C     C_R   0.974691 0.397899 0.567541 0.065260
C19   C     C_R   0.974391 0.620266 0.511496 -0.064374
C20   C     C_R   0.949246 0.507960 0.535380 0.042924
C21   C     C_R   0.949057 0.285137 0.569066 -0.084758
C22   C     C_R   0.899201 0.282456 0.555630 -0.111583
C23   C     C_R   0.873355 0.392151 0.537012 -0.026479
C24   C     C_R   0.898377 0.505149 0.525459 -0.047451
C25   C     C_R   0.872507 0.615059 0.503216 -0.084589
C26   C     C_R   0.822031 0.610284 0.494876 0.570801
N2    N     N_R   0.798418 0.499761 0.507787 -0.471569
C27   C     C_R   0.822914 0.391593 0.527727 0.551418
C28   C     C_R   0.722288 0.509109 0.377390 -0.093199
C29   C     C_R   0.672025 0.508646 0.375291 -0.208348
C30   C     C_R   0.670767 0.485916 0.628468 -0.209284
C31   C     C_R   0.720955 0.485752 0.630213 -0.099313
C32   C     C_R   0.746833 0.497840 0.504881 0.350229
O10   O     O_2   0.798493 0.284029 0.538698 -0.518133
C33   C     C_R   0.025295 0.403229 0.588416 -0.060415
C34   C     C_R   0.050476 0.507626 0.535824 0.043854
C35   C     C_R   0.025054 0.614322 0.491250 0.079938
C36   C     C_R   0.052066 0.307639 0.655479 0.295049
H4    H     H_    0.653884 0.517078 0.275525 0.148289
H5    H     H_    0.742194 0.518143 0.280103 0.142950
H6    H     H_    0.881031 0.193806 0.559417 0.210560
H7    H     H_    0.967263 0.197202 0.575702 0.217445
O11   O     O_2   0.201379 0.694315 0.396503 -0.526938
C37   C     C_R   0.100677 0.703314 0.407411 -0.126212
H8    H     H_    0.348270 0.509970 0.728302 0.161000
H9    H     H_    0.260162 0.510575 0.730614 0.147717
H10   H     H_    0.118919 0.778209 0.353536 0.198701
C38   C     C_R   0.947528 0.732387 0.504840 0.300104
C39   C     C_R   0.897236 0.727667 0.495921 -0.174614
O12   O     O_2   0.796681 0.715252 0.475446 -0.519633
C40   C     C_R   0.050795 0.707972 0.420082 -0.107600
H11   H     H_    0.651656 0.476232 0.726920 0.151840
H12   H     H_    0.877314 0.813496 0.489103 0.224351
H13   H     H_    0.739820 0.476913 0.729064 0.142199
H14   H     H_    0.032673 0.783792 0.368819 0.186705
C41   C     C_R   0.507109 0.063391 0.625621 0.140685
C42   C     C_R   0.505737 0.129189 0.499657 -0.096793
C43   C     C_R   0.511323 0.064586 0.372718 -0.207045
H15   H     H_    0.513265 0.112828 0.273226 0.163093
C44   C     C_R   0.511316 0.935757 0.372624 -0.207572
H16   H     H_    0.513182 0.887834 0.273088 0.158707
C45   C     C_R   0.505762 0.870770 0.499467 -0.096546
C46   C     C_R   0.507097 0.936179 0.625500 0.121745
C47   C     C_3   0.474517 0.929182 0.750155 -0.456463
C48   C     C_3   0.474592 0.069541 0.750453 -0.478219
H17   H     H_    0.438776 0.888372 0.724913 0.206000
H18   H     H_    0.492732 0.888607 0.843139 0.192555
H19   H     H_    0.438879 0.110481 0.725671 0.200790
H20   H     H_    0.492984 0.109528 0.843479 0.194856
C49   C     C_R   0.517154 0.599745 0.073390 0.254989
N3    N     N_R   0.500300 0.500930 0.147930 -0.183504
C50   C     C_R   0.478176 0.408077 0.074671 -0.079832
H21   H     H_    0.461225 0.332565 0.130524 0.140855
C51   C     C_R   0.478114 0.408183 0.925721 -0.080187
H22   H     H_    0.460980 0.333038 0.870173 0.139813
N4    N     N_R   0.500310 0.500890 0.852020 -0.183491
C52   C     C_R   0.517168 0.599684 0.926002 0.253135
C53   C     C_3   0.566771 0.652138 0.919388 -0.491850
C54   C     C_3   0.566823 0.652033 0.078676 -0.499161
H23   H     H_    0.593310 0.586866 0.873670 0.214356
H24   H     H_    0.567307 0.746564 0.873344 0.196348
H25   H     H_    0.593281 0.586422 0.123732 0.213068
H26   H     H_    0.567548 0.746407 0.124556 0.192908
N5    N     N_R   0.969680 0.851184 0.525767 0.111294
O13   O     O_R   0.001874 0.865435 0.623545 -0.291265
O14   O     O_R   0.952688 0.948598 0.462846 -0.365839
N6    N     N_R   0.029789 0.220400 0.749324 0.117298
O15   O     O_R   0.046889 0.108913 0.760945 -0.287358
O16   O     O_R   0.997374 0.257547 0.838567 -0.323521

loop_
_geom_bond_atom_site_label_1
_geom_bond_atom_site_label_2
_geom_bond_distance
_ccdc_geom_bond_type
C50   H21   1.081260 S    
C53   C54   1.518335 S    
C26   N2    1.367885 A    
C20   C24   1.415954 A    
C7    C8    1.393076 A    
C12   C15   1.408531 A    
C48   H20   1.111639 S    
Cu1   Cu2   2.681725 S    
C40   H14   1.079797 S    
C45   C46   1.395360 A    
Cu1   O7    1.946808 S    
N1    C11   1.435885 S    
C39   H12   1.083428 S    
C52   C53   1.489832 S    
C21   C22   1.390596 A    
O3    Cu1   1.947833 S    
C37   C40   1.390977 A    
O4    C2    1.298954 A    
O7    C4    1.297482 A    
C5    C13   1.404338 A    
C54   H26   1.111164 S    
C5    O9    1.349758 S    
C18   C21   1.411245 A    
Cu1   O5    1.961683 S    
C19   C20   1.418138 A    
C43   H15   1.083200 S    
O5    C3    1.291834 A    
C31   H13   1.083042 S    
C38   N5    1.437971 S    
C22   H6    1.083359 S    
C6    O11   1.349568 S    
C2    C16   1.473721 S    
N5    O13   1.301566 A    
C8    H8    1.082982 S    
C12   C34   1.416103 A    
C14   H3    1.083381 S    
C53   H23   1.110217 S    
C9    C10   1.396123 A    
C43   C44   1.393553 A    
C48   H19   1.112257 S    
C41   C48   1.493981 S    
C49   C52   1.404907 A    
C33   C34   1.417886 A    
C3    C45   1.445387 S    
C33   C36   1.425844 A    
C34   C35   1.418954 A    
C12   C13   1.405529 A    
O3    C2    1.297588 A    
C21   H7    1.079732 S    
C24   C25   1.406098 A    
C47   H17   1.112234 S    
N3    C50   1.369185 A    
C27   O10   1.349588 S    
C26   O12   1.349644 S    
C8    C16   1.405850 A    
C54   H25   1.109035 S    
C18   C33   1.420442 A    
C49   N3    1.364539 A    
C9    H1    1.082947 S    
C38   C39   1.399889 A    
O1    C1    1.292117 A    
C7    C11   1.400355 A    
C44   H16   1.082830 S    
C22   C23   1.399001 A    
C47   H18   1.111491 S    
C49   C54   1.490593 S    
C31   C32   1.398904 A    
C36   N6    1.437949 S    
Cu2   O8    1.947828 S    
Cu1   N4    2.014651 S    
N1    C6    1.368928 A    
C17   C29   1.406316 A    
N2    C32   1.432642 S    
N6    O16   1.301659 A    
C44   C45   1.406078 A    
C25   C26   1.404700 A    
N5    O14   1.301521 A    
C9    C16   1.406168 A    
O8    C4    1.299717 A    
C29   H4    1.080722 S    
C53   H24   1.111380 S    
C50   C51   1.419793 A    
C51   N4    1.368931 A    
N2    C27   1.367590 A    
C14   C36   1.399549 A    
N4    C52   1.363622 A    
C35   C40   1.411276 A    
C28   C29   1.395681 A    
C5    N1    1.369225 A    
C30   C31   1.393549 A    
C37   H10   1.083268 S    
C10   H2    1.082832 S    
O1    Cu1   1.962069 S    
C17   C30   1.406647 A    
O2    Cu2   1.961685 S    
C6    C15   1.403999 A    
C4    C17   1.474935 S    
C42   C43   1.406379 A    
O6    C3    1.291065 A    
O4    Cu2   1.946810 S    
C19   C35   1.421042 A    
C25   C39   1.398887 A    
O2    C1    1.291098 A    
C13   C14   1.398842 A    
C23   C27   1.403405 A    
C15   C37   1.399139 A    
C46   C47   1.493871 S    
C28   H5    1.082967 S    
C23   C24   1.409066 A    
C7    H9    1.082953 S    
C19   C38   1.426239 A    
C18   C20   1.418862 A    
C1    C42   1.445996 S    
Cu2   N3    2.015077 S    
N6    O15   1.301453 A    
C47   C48   1.518284 S    
C30   H11   1.082166 S    
C41   C42   1.395776 A    
Cu2   O6    1.962068 S    
C10   C11   1.401410 A    
C51   H22   1.080683 S    
C41   C46   1.376066 A    
C28   C32   1.399604 A    
