data_mof_unit_12727.cif
_audit_creation_date              2012-12-11T15:17:42-0500
_audit_creation_method            fapswitch 2.2
_symmetry_space_group_name_H-M    P1
_symmetry_Int_Tables_number       1
_space_group_crystal_system       triclinic
_cell_length_a                    6.943124
_cell_length_b                    20.993556
_cell_length_c                    21.821457
_cell_angle_alpha                 89.966283
_cell_angle_beta                  90.490328
_cell_angle_gamma                 89.715039
_cell_volume                      3180.55795137

loop_
_atom_site_label
_atom_site_type_symbol
_atom_type_description
_atom_site_fract_x
_atom_site_fract_y
_atom_site_fract_z
_atom_type_partial_charge
O1    O     O_R   0.620180 0.810610 0.187990 -0.535668
O2    O     O_R   0.379820 0.189390 0.812010 -0.538889
O3    O     O_R   0.379820 0.189390 0.687990 -0.532308
O4    O     O_R   0.620180 0.810610 0.312010 -0.541458
O5    O     O_R   0.120180 0.689390 0.312010 -0.530149
O6    O     O_R   0.879820 0.310610 0.687990 -0.540930
O7    O     O_R   0.879820 0.310610 0.812010 -0.535030
O8    O     O_R   0.120180 0.689390 0.187990 -0.538342
O9    O     O_R   0.290420 0.818570 0.311590 -0.516861
O10   O     O_R   0.709580 0.181430 0.688410 -0.497485
O11   O     O_R   0.709580 0.181430 0.811590 -0.505696
O12   O     O_R   0.290420 0.818570 0.188410 -0.504387
O13   O     O_R   0.790420 0.681430 0.188410 -0.503658
O14   O     O_R   0.209580 0.318570 0.811590 -0.516757
O15   O     O_R   0.209580 0.318570 0.688410 -0.514001
O16   O     O_R   0.790420 0.681430 0.311590 -0.514754
C1    C     C_R   0.458236 0.832237 0.334347 0.786137
C2    C     C_R   0.542123 0.167144 0.666040 0.770989
C3    C     C_R   0.542135 0.167193 0.833858 0.794036
C4    C     C_R   0.457879 0.833540 0.166575 0.796840
C5    C     C_R   0.958278 0.666956 0.166233 0.793233
C6    C     C_R   0.042118 0.332068 0.834509 0.815521
C7    C     C_R   0.040899 0.332011 0.665598 0.827953
C8    C     C_R   0.959704 0.667085 0.333842 0.821722
H1    H     H_    0.790800 0.425043 0.653944 0.209516
H2    H     H_    0.215511 0.574717 0.345746 0.209199
H3    H     H_    0.209816 0.573729 0.156464 0.217016
H4    H     H_    0.787275 0.423393 0.846070 0.208398
H5    H     H_    0.294897 0.074005 0.843844 0.219348
H6    H     H_    0.705405 0.927600 0.158156 0.218003
H7    H     H_    0.657338 0.937399 0.334653 0.202130
H8    H     H_    0.304253 0.071163 0.659061 0.214980
H9    H     H_    0.569240 0.588967 0.519210 0.222980
H10   H     H_    0.432082 0.407705 0.478524 0.215239
H11   H     H_    0.442429 0.413293 0.020522 0.248634
H12   H     H_    0.567053 0.588076 0.977687 0.219869
H13   H     H_    0.060646 0.916049 0.980759 0.242640
H14   H     H_    0.923253 0.094083 0.026998 0.239151
H15   H     H_    0.772803 0.130330 0.445156 0.232308
H16   H     H_    0.156599 0.883034 0.548190 0.253706
O17   O     O_3   0.453640 0.707610 0.250000 -0.364509
O18   O     O_3   0.546360 0.292390 0.750000 -0.373129
O19   O     O_3   0.953640 0.792390 0.250000 -0.372095
O20   O     O_3   0.046360 0.207610 0.750000 -0.356788
V1    V     V_3+5 0.178800 0.757860 0.250000 1.781719
V2    V     V_3+5 0.821200 0.242140 0.750000 1.830374
V3    V     V_3+5 0.678800 0.742140 0.250000 1.776838
V4    V     V_3+5 0.321200 0.257860 0.750000 1.794955
C9    C     C_R   0.163789 0.378510 0.564261 0.475852
C10   C     C_R   0.840144 0.619309 0.435033 0.471131
C11   C     C_R   0.835289 0.618377 0.064724 0.459140
C12   C     C_R   0.170170 0.380979 0.935425 0.467761
C13   C     C_R   0.661739 0.121312 0.936982 0.465508
C14   C     C_R   0.332887 0.883594 0.065862 0.461889
C15   C     C_R   0.354597 0.874533 0.440212 0.421743
C16   C     C_R   0.662976 0.118422 0.564382 0.390735
C17   C     C_R   0.031712 0.378777 0.613934 -0.177169
C18   C     C_R   0.971026 0.619700 0.385221 -0.174933
C19   C     C_R   0.966549 0.619009 0.115314 -0.234629
C20   C     C_R   0.034854 0.379474 0.885831 -0.169340
C21   C     C_R   0.534234 0.120265 0.885453 -0.233462
C22   C     C_R   0.464829 0.882224 0.116227 -0.237867
C23   C     C_R   0.463743 0.880133 0.385214 -0.242682
C24   C     C_R   0.535777 0.118567 0.615614 -0.216461
C25   C     C_R   0.886769 0.425278 0.615330 -0.106581
C26   C     C_R   0.117149 0.573407 0.383757 -0.108720
C27   C     C_R   0.113587 0.573071 0.117410 -0.122873
C28   C     C_R   0.887373 0.425114 0.884134 -0.099954
C29   C     C_R   0.388317 0.074494 0.883590 -0.128829
C30   C     C_R   0.609945 0.928430 0.118911 -0.118257
C31   C     C_R   0.577606 0.934184 0.376821 -0.135884
C32   C     C_R   0.396218 0.070935 0.619409 -0.083368
C33   C     C_R   0.866189 0.471234 0.568725 0.012674
C34   C     C_R   0.136679 0.526565 0.429886 0.015317
C35   C     C_R   0.136982 0.527567 0.070509 -0.017583
C36   C     C_R   0.867577 0.471616 0.930149 0.022871
C37   C     C_R   0.362979 0.030350 0.931383 -0.011231
C38   C     C_R   0.631331 0.974758 0.072589 -0.006915
C39   C     C_R   0.586355 0.983469 0.420662 0.001209
C40   C     C_R   0.382623 0.022007 0.575425 0.012601
C41   C     C_R   0.007203 0.474572 0.522171 -0.009960
C42   C     C_R   0.996764 0.523254 0.476699 -0.036653
C43   C     C_R   0.995872 0.523550 0.023271 -0.029127
C44   C     C_R   0.008476 0.475446 0.977436 -0.031482
C45   C     C_R   0.502401 0.026995 0.979258 -0.000331
C46   C     C_R   0.490604 0.978917 0.025176 -0.001490
C47   C     C_R   0.480672 0.977767 0.475620 -0.011812
C48   C     C_R   0.495190 0.025588 0.521783 0.003253
C49   C     C_R   0.159690 0.429704 0.521257 -0.004177
C50   C     C_R   0.844125 0.567904 0.477603 -0.039199
C51   C     C_R   0.840983 0.567251 0.021944 -0.000173
C52   C     C_R   0.164337 0.432100 0.978323 -0.063237
C53   C     C_R   0.654893 0.071173 0.980949 -0.019607
C54   C     C_R   0.336973 0.935234 0.023619 -0.023909
C55   C     C_R   0.361387 0.924337 0.484821 -0.040457
C56   C     C_R   0.623754 0.076791 0.514310 -0.060026
C57   C     C_R   0.708915 0.514318 0.567422 0.369568
C58   C     C_R   0.291274 0.482418 0.430289 0.362503
C59   C     C_R   0.297419 0.485808 0.069282 0.404177
C60   C     C_R   0.711038 0.514840 0.929987 0.356446
C61   C     C_R   0.202791 0.989050 0.932702 0.413199
C62   C     C_R   0.788282 0.017571 0.072353 0.411520
C63   C     C_R   0.693095 0.039608 0.410276 0.421145
C64   C     C_R   0.258616 0.969702 0.583437 0.405620
C65   C     C_R   0.697264 0.559903 0.521037 -0.180845
C66   C     C_R   0.304667 0.437078 0.477056 -0.147190
C67   C     C_R   0.311843 0.441033 0.022268 -0.158888
C68   C     C_R   0.695771 0.559385 0.977021 -0.144669
C69   C     C_R   0.189783 0.944132 0.979494 -0.122758
C70   C     C_R   0.798320 0.063972 0.026608 -0.134013
C71   C     C_R   0.706078 0.085678 0.456331 -0.134374
C72   C     C_R   0.251202 0.922062 0.538966 -0.133740
S1    S     S_3+6 0.527401 0.516259 0.624396 0.062800
O21   O     O_2   0.454367 0.450557 0.637594 -0.319100
O22   O     O_2   0.613134 0.543105 0.682221 -0.241119
O23   O     O_3   0.339577 0.562036 0.602187 -0.484769
H17   H     H_    0.375419 0.606081 0.613680 0.385053
S2    S     S_3+6 0.463935 0.478469 0.370819 0.079069
O24   O     O_2   0.361657 0.460223 0.312586 -0.223953
O25   O     O_2   0.557515 0.542046 0.361660 -0.348037
O26   O     O_3   0.635150 0.423512 0.385873 -0.435849
H18   H     H_    0.716373 0.442513 0.418502 0.328669
S3    S     S_3+6 0.479605 0.484176 0.127049 0.054356
O27   O     O_2   0.546106 0.550227 0.142503 -0.344101
O28   O     O_2   0.397196 0.454015 0.183367 -0.232232
O29   O     O_3   0.670253 0.440834 0.104013 -0.486298
H19   H     H_    0.772631 0.449299 0.134797 0.390194
S4    S     S_3+6 0.539378 0.519341 0.869217 0.089283
O30   O     O_2   0.642776 0.538220 0.811914 -0.218380
O31   O     O_2   0.445788 0.455920 0.858727 -0.346239
O32   O     O_3   0.367779 0.574133 0.883432 -0.426027
H20   H     H_    0.283871 0.554351 0.914491 0.333361
S5    S     S_3+6 0.017633 0.988351 0.875825 0.044938
O33   O     O_2   0.958338 0.054710 0.857889 -0.338959
O34   O     O_2   0.092501 0.954203 0.820477 -0.242959
O35   O     O_3   0.823210 0.949364 0.901579 -0.496649
H21   H     H_    0.723600 0.955288 0.869279 0.386030
S6    S     S_3+6 0.973970 0.017827 0.129072 0.038026
O36   O     O_2   0.897246 0.048891 0.185808 -0.246435
O37   O     O_2   0.039306 0.951384 0.144396 -0.341174
O38   O     O_3   0.164630 0.059615 0.104510 -0.500502
H22   H     H_    0.266994 0.051936 0.135582 0.387879
S7    S     S_3+6 0.805704 0.055717 0.339396 0.088155
O39   O     O_2   0.958393 0.006240 0.327782 -0.308361
O40   O     O_2   0.656015 0.053100 0.289299 -0.281170
O41   O     O_3   0.907832 0.128222 0.339740 -0.453445
H23   H     H_    0.967672 0.132431 0.298900 0.419772
S8    S     S_3+6 0.119981 0.959141 0.650603 0.081434
O42   O     O_2   0.253719 0.959588 0.705085 -0.277635
O43   O     O_2   0.976960 0.012748 0.656160 -0.303981
O44   O     O_3   0.000655 0.889596 0.648924 -0.461005
H24   H     H_    0.928745 0.888331 0.687916 0.414416
S9    S     S_3+6 0.323515 0.312769 0.552492 0.025055
O45   O     O_2   0.341750 0.298916 0.485133 -0.311315
O46   O     O_2   0.518069 0.329027 0.578467 -0.335612
O47   O     O_3   0.243778 0.246524 0.586077 -0.463815
H25   H     H_    0.306139 0.211396 0.563310 0.384617
S10   S     S_3+6 0.679472 0.684024 0.447726 0.063764
O48   O     O_2   0.484104 0.664569 0.424876 -0.306124
O49   O     O_2   0.669576 0.698470 0.515168 -0.299704
O50   O     O_3   0.748304 0.750473 0.412102 -0.475123
H26   H     H_    0.681675 0.785015 0.434423 0.384523
S11   S     S_3+6 0.671279 0.682049 0.050828 0.057161
O51   O     O_2   0.665892 0.697562 0.983486 -0.277407
O52   O     O_2   0.476079 0.660184 0.070399 -0.326827
O53   O     O_3   0.729362 0.748611 0.088062 -0.478150
H27   H     H_    0.659742 0.782496 0.065259 0.387442
S12   S     S_3+6 0.338521 0.318061 0.947848 0.059151
O54   O     O_2   0.530747 0.339196 0.924704 -0.301341
O55   O     O_2   0.354807 0.303529 0.015255 -0.298862
O56   O     O_3   0.273890 0.251014 0.912578 -0.479711
H28   H     H_    0.338875 0.217122 0.936672 0.381360
S13   S     S_3+6 0.824355 0.185259 0.949774 0.046717
O57   O     O_2   0.021599 0.161271 0.934188 -0.337233
O58   O     O_2   0.777832 0.242962 0.912172 -0.308481
O59   O     O_3   0.820296 0.206850 0.024013 -0.459771
H29   H     H_    0.930161 0.236374 0.029077 0.407612
S14   S     S_3+6 0.169167 0.820372 0.051684 0.059992
O60   O     O_2   0.974269 0.842300 0.072097 -0.323459
O61   O     O_2   0.161969 0.805909 0.984161 -0.279499
O62   O     O_3   0.228597 0.753087 0.087943 -0.477161
H30   H     H_    0.157773 0.719739 0.065133 0.385560
S15   S     S_3+6 0.214921 0.805725 0.456847 0.040492
O63   O     O_2   0.009247 0.826818 0.463109 -0.335214
O64   O     O_2   0.226049 0.754982 0.409143 -0.309905
O65   O     O_3   0.291049 0.774491 0.523865 -0.452012
H31   H     H_    0.201322 0.739036 0.532193 0.402847
S16   S     S_3+6 0.882161 0.162909 0.566346 0.039593
O66   O     O_2   0.990846 0.147929 0.624373 -0.290603
O67   O     O_2   0.015839 0.147474 0.514564 -0.330454
O68   O     O_3   0.829024 0.240991 0.564643 -0.473350
H32   H     H_    0.786814 0.249434 0.521920 0.378643

loop_
_geom_bond_atom_site_label_1
_geom_bond_atom_site_label_2
_ccdc_geom_bond_type
S7    O41   S    
C47   C48   A    
C48   C56   A    
O9    V1    S    
O29   H19   S    
C30   C38   A    
C64   S8    S    
C29   C37   A    
S11   O51   D    
S8    O44   S    
O56   H28   S    
C2    C24   S    
S4    O30   D    
C36   C44   A    
C31   C39   A    
O50   H26   S    
C13   S13   S    
S3    O27   D    
C34   C58   A    
C45   C46   A    
C10   S10   S    
C33   C57   A    
O11   C3    A    
C40   C64   A    
S16   O68   S    
C9    S9    S    
O47   H25   S    
S11   O52   D    
S8    O43   D    
S1    O21   D    
C55   C72   A    
S15   O64   D    
C6    C20   S    
S3    O28   D    
C38   C62   A    
C61   C69   A    
S7    O39   D    
C26   C34   A    
O3    V4    S    
C32   C40   A    
C9    C17   A    
O23   H17   S    
C22   C30   A    
O3    C2    A    
S16   O67   D    
C62   S6    S    
C33   C41   A    
S2    O24   D    
C46   C54   A    
S10   O50   S    
C11   C51   A    
O8    V1    S    
C13   C21   A    
C18   C26   A    
S12   O56   S    
C16   S16   S    
O20   V2    S    
C15   C23   A    
C49   C66   A    
O10   V2    S    
S5    O35   S    
O44   H24   S    
C16   C24   A    
C11   S11   S    
C58   C66   A    
S9    O46   D    
C12   C20   A    
H13   C69   S    
C53   C70   A    
S1    O23   S    
C41   C49   A    
C38   C46   A    
S12   O55   D    
C37   C45   A    
O16   C8    A    
S13   O57   D    
S10   O49   D    
C39   C63   A    
C45   C53   A    
O15   V4    S    
C34   C42   A    
O16   V3    S    
C39   C47   A    
H6    C30   S    
C10   C50   A    
C41   C42   A    
C11   C19   A    
H5    C29   S    
S13   O58   D    
O10   C2    A    
C56   C71   A    
C60   C68   A    
C13   C53   A    
O68   H32   S    
H2    C26   S    
O7    V2    S    
S14   O60   D    
C36   C60   A    
S11   O53   S    
H1    C25   S    
S8    O42   D    
C15   C55   A    
C25   C33   A    
C17   C25   A    
O13   V3    S    
O1    V3    S    
S3    O29   S    
O14   V4    S    
C14   C22   A    
O2    V4    S    
O62   H30   S    
O5    V1    S    
C14   S14   S    
C47   C55   A    
S16   O66   D    
S2    O26   S    
C10   C18   A    
S15   O63   D    
C4    C22   S    
S5    O33   D    
C19   C27   A    
C43   C44   A    
C52   C67   A    
O12   C4    A    
C35   C59   A    
O8    C5    A    
O17   V3    S    
O13   C5    A    
H3    C27   S    
O18   V4    S    
S9    O47   S    
O19   V1    S    
O26   H18   S    
S6    O37   D    
C7    C17   S    
O4    C1    A    
O9    C1    A    
S12   O54   D    
C23   C31   A    
C61   S5    S    
O18   V2    S    
O53   H27   S    
S15   O65   S    
H14   C70   S    
C57   S1    S    
O32   H20   S    
S4    O32   S    
C59   C67   A    
C64   C72   A    
O41   H23   S    
C59   S3    S    
C21   C29   A    
S7    O40   D    
O59   H29   S    
O1    C4    A    
C15   S15   S    
O6    V2    S    
H4    C28   S    
O2    C3    A    
C60   S4    S    
C51   C68   A    
C50   C65   A    
C9    C49   A    
O35   H21   S    
S6    O38   S    
C63   S7    S    
S14   O61   D    
C5    C19   S    
O12   V1    S    
C63   C71   A    
S4    O31   D    
C28   C36   A    
O7    C6    A    
C43   C51   A    
C54   C69   A    
C42   C50   A    
H9    C65   S    
O14   C6    A    
S9    O45   D    
C57   C65   A    
C40   C48   A    
O38   H22   S    
C12   S12   S    
H15   C71   S    
H16   C72   S    
C35   C43   A    
S10   O48   D    
O5    C8    A    
C3    C21   S    
C62   C70   A    
O6    C7    A    
C58   S2    S    
O15   C7    A    
S13   O59   S    
C37   C61   A    
H10   C66   S    
C24   C32   A    
C16   C56   A    
S2    O25   D    
C14   C54   A    
S14   O62   S    
H11   C67   S    
S6    O36   D    
C27   C35   A    
H12   C68   S    
C20   C28   A    
C8    C18   S    
S5    O34   D    
O17   V1    S    
O11   V2    S    
C44   C52   A    
S1    O22   D    
O65   H31   S    
O19   V3    S    
C12   C52   A    
C1    C23   S    
O20   V4    S    
H7    C31   S    
H8    C32   S    
O4    V3    S    
