data_mof_unit_56812.cif
_audit_creation_date              2012-12-10T21:07:00-0500
_audit_creation_method            fapswitch 2.2
_symmetry_space_group_name_H-M    P1
_symmetry_Int_Tables_number       1
_space_group_crystal_system       triclinic
_cell_length_a                    10.795393
_cell_length_b                    15.691772
_cell_length_c                    15.030344
_cell_angle_alpha                 89.846698
_cell_angle_beta                  91.529871
_cell_angle_gamma                 89.883652
_cell_volume                      2545.20059842

loop_
_atom_site_label
_atom_site_type_symbol
_atom_type_description
_atom_site_fract_x
_atom_site_fract_y
_atom_site_fract_z
_atom_type_partial_charge
C1    C     C_R   0.500448 0.338325 0.500176 0.943961
C2    C     C_R   0.500795 0.661652 0.499989 0.965487
C3    C     C_R   0.872832 0.502666 0.503287 -0.056643
C4    C     C_R   0.127076 0.500710 0.496716 -0.047813
C5    C     C_R   0.943148 0.500328 0.583559 0.184043
C6    C     C_R   0.056745 0.504493 0.416461 0.172262
C7    C     C_R   0.540636 0.953961 0.589846 0.362433
C8    C     C_R   0.615888 0.045625 0.439188 0.369262
C9    C     C_R   0.569626 0.912043 0.510519 -0.271209
C10   C     C_R   0.567985 0.087565 0.513336 -0.257261
C11   C     C_R   0.612927 0.956480 0.436213 0.252292
C12   C     C_R   0.535512 0.043068 0.590639 0.345628
C13   C     C_1   0.543579 0.823802 0.504339 0.192044
C14   C     C_1   0.542497 0.175954 0.506273 0.222104
C15   C     C_1   0.520534 0.250034 0.501815 -0.048422
C16   C     C_1   0.521166 0.749835 0.500959 -0.063060
C17   C     C_R   0.544129 0.429213 0.954094 -0.077659
C18   C     C_R   0.454975 0.570469 0.045890 -0.062400
C19   C     C_R   0.498183 0.499429 0.905026 0.082738
C20   C     C_R   0.501042 0.500299 0.094961 0.075519
C21   C     C_R   0.452881 0.569845 0.951998 -0.182715
C22   C     C_R   0.546089 0.429797 0.047994 -0.188786
C23   C     C_R   0.259273 0.499664 0.498661 0.985113
C24   C     C_R   0.740687 0.501128 0.501332 0.983488
C25   C     C_1   0.499164 0.499719 0.807235 0.046949
C26   C     C_1   0.500505 0.500167 0.192758 0.056353
C27   C     C_R   0.161068 0.585492 0.193409 -0.430727
C28   C     C_R   0.837436 0.423337 0.807831 -0.432478
C29   C     C_R   0.132538 0.584090 0.283614 0.420275
C30   C     C_R   0.867268 0.423023 0.717856 0.429931
C31   C     C_R   0.108150 0.505400 0.325663 -0.232269
C32   C     C_R   0.891637 0.500970 0.674295 -0.233126
C33   C     C_R   0.116449 0.428372 0.276891 0.285636
C34   C     C_R   0.881783 0.578977 0.721194 0.283585
C35   C     C_R   0.144451 0.431381 0.185566 0.352218
C36   C     C_R   0.851713 0.577673 0.812182 0.355189
C37   C     C_R   0.160448 0.510236 0.142507 0.346382
C38   C     C_R   0.836111 0.499676 0.856897 0.346522
C39   C     C_R   0.930095 0.506025 0.421151 -0.131909
C40   C     C_R   0.069791 0.498662 0.578898 -0.114957
H1    H     H_    0.579626 0.374083 0.919758 0.150128
H2    H     H_    0.419553 0.625624 0.080221 0.148888
H3    H     H_    0.180484 0.645900 0.162164 0.223690
H4    H     H_    0.817803 0.363547 0.840275 0.224002
H5    H     H_    0.876377 0.508888 0.359144 0.185477
H6    H     H_    0.123449 0.496190 0.640948 0.175981
H7    H     H_    0.582155 0.374822 0.083965 0.146881
H8    H     H_    0.416775 0.624814 0.916031 0.140266
N1    N     N_1   0.499960 0.500020 0.270550 -0.082321
N2    N     N_1   0.500040 0.499980 0.729450 -0.085728
O1    O     O_R   0.500000 0.378020 0.573650 -0.580503
O2    O     O_R   0.500000 0.621980 0.426350 -0.568586
O3    O     O_R   0.500060 0.378020 0.426320 -0.614820
O4    O     O_R   0.499940 0.621980 0.573680 -0.618291
O5    O     O_R   0.316730 0.500010 0.573660 -0.632188
O6    O     O_R   0.683270 0.499990 0.426340 -0.629099
O7    O     O_R   0.316790 0.500010 0.426330 -0.607836
O8    O     O_R   0.683210 0.499990 0.573670 -0.605974
Zn1   Zn    Zn3+2 0.499960 0.500000 0.598370 1.041692
Zn2   Zn    Zn3+2 0.500040 0.500000 0.401630 1.052731
O9    O     O_3   0.180994 0.509632 0.051393 -0.604858
C41   C     C_3   0.122990 0.578827 0.006575 -0.197043
H9    H     H_    0.182352 0.636447 0.010763 0.167591
H10   H     H_    0.028769 0.592427 0.031558 0.203721
H11   H     H_    0.111933 0.562308 0.935083 0.196831
O10   O     O_3   0.813271 0.502079 0.947624 -0.597468
C42   C     C_3   0.873033 0.434969 0.994767 -0.189220
H12   H     H_    0.968169 0.422341 0.970981 0.201216
H13   H     H_    0.815986 0.376221 0.991551 0.166217
H14   H     H_    0.882168 0.453325 0.065866 0.197840
S1    S     S_3+6 0.119228 0.682490 0.340653 0.061611
O11   O     O_2   0.156131 0.755519 0.282155 -0.243521
O12   O     O_2   0.987062 0.694583 0.367064 -0.270126
O13   O     O_3   0.211007 0.681686 0.432714 -0.575501
H15   H     H_    0.188930 0.734061 0.465382 0.398379
S2    S     S_3+6 0.879939 0.323637 0.662551 0.035392
O14   O     O_2   0.848949 0.251281 0.723758 -0.232590
O15   O     O_2   0.792673 0.322068 0.583041 -0.361691
O16   O     O_3   0.025869 0.311107 0.628293 -0.545331
H16   H     H_    0.022035 0.262469 0.586445 0.398011
S3    S     S_3+6 0.086486 0.328772 0.329725 0.049514
O17   O     O_2   0.116576 0.254056 0.271812 -0.204724
O18   O     O_2   0.163538 0.322445 0.414318 -0.338928
O19   O     O_3   0.935396 0.324298 0.354131 -0.568642
H17   H     H_    0.932746 0.297666 0.413865 0.380425
S4    S     S_3+6 0.910338 0.677713 0.666107 0.042586
O20   O     O_2   0.885739 0.753261 0.724290 -0.258596
O21   O     O_2   0.043266 0.680297 0.638969 -0.281396
O22   O     O_3   0.818159 0.684511 0.574412 -0.590012
H18   H     H_    0.843990 0.737422 0.544064 0.392075
O23   O     O_3   0.141488 0.357458 0.135679 -0.550935
C43   C     C_3   0.263990 0.332203 0.118400 -0.101194
H19   H     H_    0.325574 0.334161 0.179121 0.136475
H20   H     H_    0.302768 0.371638 0.064568 0.181267
H21   H     H_    0.262301 0.265340 0.094674 0.203017
O24   O     O_3   0.851100 0.652622 0.860296 -0.540756
C44   C     C_3   0.727252 0.677997 0.872290 -0.127672
H22   H     H_    0.670601 0.675724 0.809196 0.123692
H23   H     H_    0.727013 0.744985 0.895644 0.192115
H24   H     H_    0.684226 0.638730 0.924477 0.187261
S5    S     S_3+6 0.482394 0.099444 0.685139 0.084721
O25   O     O_2   0.460563 0.041661 0.763025 -0.210847
O26   O     O_2   0.577474 0.165137 0.711729 -0.267829
O27   O     O_3   0.348921 0.149147 0.656583 -0.524361
H25   H     H_    0.334697 0.190122 0.705299 0.392064
S6    S     S_3+6 0.655560 0.900194 0.338870 0.106156
O28   O     O_2   0.540316 0.864574 0.294903 -0.207068
O29   O     O_2   0.720000 0.956107 0.273345 -0.205473
O30   O     O_3   0.749775 0.818686 0.367813 -0.500444
H26   H     H_    0.820328 0.845417 0.400600 0.359548
O31   O     O_3   0.502446 0.907609 0.662592 -0.545973
C45   C     C_3   0.608525 0.877702 0.710003 -0.125565
H27   H     H_    0.661756 0.831453 0.670056 0.167326
H28   H     H_    0.669459 0.931255 0.732014 0.185534
H29   H     H_    0.578231 0.843886 0.770539 0.182851
O32   O     O_3   0.651420 0.091950 0.365705 -0.550070
C46   C     C_3   0.773401 0.121543 0.381570 -0.111062
H30   H     H_    0.839026 0.067814 0.394633 0.167230
H31   H     H_    0.804182 0.155363 0.321171 0.229758
H32   H     H_    0.778126 0.167635 0.437644 0.146094

loop_
_geom_bond_atom_site_label_1
_geom_bond_atom_site_label_2
_ccdc_geom_bond_type
S5    O25   D    
O5    Zn1   S    
C27   C29   A    
C18   C21   A    
O31   C45   S    
S2    O16   S    
S3    O19   S    
C45   H28   S    
S3    O17   D    
C40   H6    S    
N1    Zn2   S    
C20   C26   S    
N2    Zn1   S    
C35   C37   A    
S2    O15   D    
C18   H2    S    
C33   C35   A    
S4    O21   D    
S6    O28   D    
C30   S2    S    
O32   C46   S    
C7    C9    A    
C34   S4    S    
C9    C13   S    
C25   N2    T    
O27   H25   S    
C41   H10   S    
O2    Zn2   S    
C44   H23   S    
C4    C40   A    
C28   C30   A    
C31   C33   A    
C1    C15   S    
C2    C16   S    
C18   C20   A    
C39   H5    S    
C21   H8    S    
C6    C31   S    
C3    C39   A    
S5    O26   D    
C1    O3    A    
C3    C24   S    
C45   H27   S    
S3    O18   D    
O3    Zn2   S    
C44   H22   S    
O4    Zn1   S    
C7    C12   A    
O13   H15   S    
C42   H12   S    
C38   O10   S    
O10   C42   S    
S2    O14   D    
C4    C6    A    
C2    O4    A    
C46   H32   S    
O23   C43   S    
S1    O12   D    
C4    C23   S    
S4    O20   D    
O7    Zn2   S    
O8    Zn1   S    
C28   H4    S    
C43   H21   S    
O6    Zn2   S    
C42   H13   S    
C32   C34   A    
C41   H9    S    
C2    O2    A    
C9    C11   A    
C36   O24   S    
C28   C38   A    
O24   C44   S    
C11   S6    S    
C43   H20   S    
O19   H17   S    
C1    O1    A    
C10   C12   A    
C8    C10   A    
C20   C22   A    
S5    O27   S    
C10   C14   S    
C26   N1    T    
O1    Zn1   S    
C44   H24   S    
C23   O7    A    
C41   H11   S    
C19   C21   A    
C14   C15   T    
C3    C5    A    
S4    O22   S    
S1    O13   S    
C37   O9    S    
C23   O5    A    
C24   O6    A    
C17   C22   A    
C42   H14   S    
C5    C32   S    
C46   H31   S    
S1    O11   D    
C29   C31   A    
C46   H30   S    
C30   C32   A    
S6    O29   D    
C27   C37   A    
C8    C11   A    
C36   C38   A    
C43   H19   S    
C17   C19   A    
C7    O31   S    
C22   H7    S    
C34   C36   A    
O9    C41   S    
C19   C25   S    
C17   H1    S    
C8    O32   S    
O16   H16   S    
C27   H3    S    
C12   S5    S    
C24   O8    A    
C13   C16   T    
O30   H26   S    
C6    C39   A    
O22   H18   S    
C5    C40   A    
C33   S3    S    
C45   H29   S    
C29   S1    S    
S6    O30   S    
C35   O23   S    
