data_mof_unit_40775.cif
_audit_creation_date              2012-12-10T16:50:13-0500
_audit_creation_method            fapswitch 2.2
_symmetry_space_group_name_H-M    P1
_symmetry_Int_Tables_number       1
_space_group_crystal_system       triclinic
_cell_length_a                    23.449458
_cell_length_b                    8.682272
_cell_length_c                    7.425525
_cell_angle_alpha                 103.082429
_cell_angle_beta                  93.702107
_cell_angle_gamma                 92.325009
_cell_volume                      1467.11564058

loop_
_atom_site_label
_atom_site_type_symbol
_atom_type_description
_atom_site_fract_x
_atom_site_fract_y
_atom_site_fract_z
_atom_type_partial_charge
C1    C     C_R   0.498248 0.199590 0.453133 0.893400
C2    C     C_R   0.501752 0.800410 0.546867 0.893401
C3    C     C_R   0.243661 0.624626 0.643965 0.195964
C4    C     C_R   0.756338 0.375374 0.356031 0.195964
C5    C     C_R   0.303844 0.625219 0.643939 0.089033
C6    C     C_R   0.696156 0.374782 0.356057 0.089033
C7    C     C_R   0.329036 0.508876 0.512012 -0.115484
C8    C     C_R   0.670964 0.491123 0.487988 -0.115485
C9    C     C_R   0.294392 0.395984 0.381840 -0.217740
C10   C     C_R   0.705608 0.604012 0.618164 -0.217739
C11   C     C_R   0.235256 0.395155 0.383400 -0.099264
C12   C     C_R   0.764744 0.604841 0.616604 -0.099264
C13   C     C_R   0.209718 0.508137 0.513695 0.254360
C14   C     C_R   0.790282 0.491861 0.486305 0.254359
C15   C     C_2   0.497458 0.031674 0.426723 -0.333414
C16   C     C_2   0.502542 0.968326 0.573277 -0.333413
C17   C     C_R   0.391206 0.503997 0.503998 0.836310
C18   C     C_R   0.608794 0.496003 0.496002 0.836310
C19   C     C_R   0.878748 0.556125 0.362470 0.584391
C20   C     C_R   0.121252 0.443873 0.637530 0.584391
C21   C     C_R   0.881244 0.437376 0.623545 0.567451
C22   C     C_R   0.118756 0.562622 0.376455 0.567452
C23   C     C_R   0.941140 0.438604 0.630471 -0.026713
C24   C     C_R   0.058860 0.561393 0.369529 -0.026713
C25   C     C_R   0.969889 0.499244 0.498286 -0.012617
C26   C     C_R   0.030111 0.500754 0.501714 -0.012616
C27   C     C_R   0.938566 0.558521 0.362799 -0.022122
C28   C     C_R   0.061434 0.441476 0.637201 -0.022122
C29   C     C_R   0.972794 0.380372 0.765375 -0.167639
C30   C     C_R   0.027206 0.619626 0.234625 -0.167640
C31   C     C_R   0.032351 0.381735 0.768664 -0.159617
C32   C     C_R   0.967649 0.618263 0.231337 -0.159616
Cu1   Cu    Cu3+1 0.506340 0.517380 0.684380 1.000584
Cu2   Cu    Cu3+1 0.493660 0.482620 0.315620 1.000584
H1    H     H_    0.951689 0.333663 0.868843 0.198667
H2    H     H_    0.048311 0.666335 0.131157 0.198667
H3    H     H_    0.055482 0.336268 0.874744 0.195154
H4    H     H_    0.944518 0.663730 0.125256 0.195154
H5    H     H_    0.313278 0.306958 0.279699 0.181269
H6    H     H_    0.686722 0.693037 0.720308 0.181270
H7    H     H_    0.208983 0.306505 0.282634 0.178289
H8    H     H_    0.791017 0.693489 0.717373 0.178289
H9    H     H_    0.492713 0.959869 0.285551 0.191350
H10   H     H_    0.507287 0.040131 0.714449 0.191350
H11   H     H_    0.454976 0.379462 0.948889 0.234794
H12   H     H_    0.545024 0.620538 0.051111 0.234794
N1    N     N_R   0.851475 0.494599 0.490273 -0.462861
N2    N     N_R   0.148525 0.505399 0.509727 -0.462861
N3    N     N_2   0.484110 0.456420 0.038520 -0.200465
N4    N     N_2   0.515890 0.543580 0.961480 -0.200465
O1    O     O_R   0.504120 0.286130 0.619770 -0.586120
O2    O     O_R   0.495880 0.713870 0.380230 -0.586120
O3    O     O_R   0.493410 0.256770 0.308360 -0.572882
O4    O     O_R   0.506590 0.743230 0.691640 -0.572882
O5    O     O_R   0.423230 0.514630 0.655730 -0.570105
O6    O     O_R   0.576770 0.485370 0.344270 -0.570104
O7    O     O_R   0.412530 0.485280 0.344320 -0.572767
O8    O     O_R   0.587470 0.514720 0.655680 -0.572767
O9    O     O_2   0.847980 0.614354 0.235569 -0.499408
O10   O     O_2   0.152019 0.385644 0.764432 -0.499407
O11   O     O_2   0.852866 0.378871 0.748138 -0.490257
O12   O     O_2   0.147134 0.621127 0.251862 -0.490257
I1    I     I_    0.202357 0.800774 0.832767 -0.201087
I2    I     I_    0.797643 0.199229 0.167225 -0.201086
I3    I     I_    0.355902 0.808479 0.832071 -0.290459
I4    I     I_    0.644098 0.191526 0.167918 -0.290458

loop_
_geom_bond_atom_site_label_1
_geom_bond_atom_site_label_2
_ccdc_geom_bond_type
Cu1   O5    S    
Cu2   O7    S    
C22   N2    A    
C30   H2    S    
C28   C31   A    
Cu2   O6    S    
Cu1   O8    S    
C1    C15   S    
C32   H4    S    
C22   O12   S    
C2    C16   S    
C4    I2    S    
C21   O11   S    
C3    C13   A    
H11   N3    S    
C7    C9    A    
Cu2   N3    S    
C21   C23   A    
Cu1   Cu2   S    
C25   C26   A    
C15   H9    S    
C29   C31   A    
C21   N1    A    
C30   C32   A    
C18   O6    A    
C9    C11   A    
C24   C26   A    
C20   N2    A    
C12   H8    S    
C2    O2    A    
Cu1   N4    S    
C17   O5    A    
C10   C12   A    
C8    C10   A    
C26   C28   A    
C12   C14   A    
H12   N4    S    
C11   H7    S    
C3    I1    S    
C23   C25   A    
C4    C14   A    
N3    N4    D    
C22   C24   A    
C20   O10   S    
C11   C13   A    
C25   C27   A    
C24   C30   A    
C1    O3    A    
C15   C16   D    
C23   C29   A    
C6    I4    S    
C19   C27   A    
Cu2   O3    S    
C5    I3    S    
C4    C6    A    
C2    O4    A    
C19   N1    A    
Cu1   O4    S    
C5    C7    A    
C29   H1    S    
C10   H6    S    
C6    C8    A    
C1    O1    A    
C20   C28   A    
C19   O9    S    
C27   C32   A    
C14   N1    S    
Cu2   O2    S    
C16   H10   S    
C9    H5    S    
C8    C18   S    
Cu1   O1    S    
C31   H3    S    
C17   O7    A    
C18   O8    A    
C3    C5    A    
C13   N2    S    
C7    C17   S    
