data_mof_unit_28918.cif
_audit_creation_date              2013-03-05T16:00:29-0500
_audit_creation_method            fapswitch 2.2
_symmetry_space_group_name_H-M    P1
_symmetry_Int_Tables_number       1
_space_group_crystal_system       triclinic
_cell_length_a                    6.936758
_cell_length_b                    28.844425
_cell_length_c                    31.967051
_cell_angle_alpha                 101.137744
_cell_angle_beta                  89.412938
_cell_angle_gamma                 90.755148
_cell_volume                      6274.97832715

loop_
_atom_site_label
_atom_site_type_symbol
_atom_site_description
_atom_site_fract_x
_atom_site_fract_y
_atom_site_fract_z
_atom_type_partial_charge
O1    O     O_R   0.494350 0.453160 0.452490 -0.583612
O2    O     O_R   0.820990 0.455850 0.538220 -0.572959
O3    O     O_R   0.994300 0.546840 0.547510 -0.599850
C1    C     C_R   0.651035 0.445848 0.551507 0.976132
O4    O     O_R   0.823860 0.447580 0.452250 -0.563635
O5    O     O_R   0.997190 0.538510 0.460920 -0.603390
C2    C     C_R   0.654799 0.433816 0.437123 0.990941
O6    O     O_R   0.491450 0.461490 0.539080 -0.590009
O7    O     O_3   0.661790 0.529840 0.502950 -0.298200
V1    V     V_3+5 0.935470 0.494460 0.499450 1.194161
O8    O     O_R   0.327090 0.544150 0.461780 -0.604040
C3    C     C_R   0.159962 0.554864 0.448444 0.925438
O9    O     O_R   0.324210 0.552420 0.547750 -0.603313
C4    C     C_R   0.155442 0.565642 0.563307 0.915586
V2    V     V_3+5 0.435840 0.505540 0.500550 1.156172
O10   O     O_3   0.159650 0.470160 0.497050 -0.229886
C5    C     C_R   0.983313 0.632817 0.610448 -0.192585
H1    H     H_    0.859108 0.626629 0.589762 0.138434
C6    C     C_R   0.976829 0.669222 0.646438 -0.160583
H2    H     H_    0.847913 0.690341 0.652035 0.134773
C7    C     C_R   0.133963 0.678940 0.674524 0.082567
C8    C     C_R   0.302079 0.650499 0.665271 0.170321
C9    C     C_R   0.306048 0.614270 0.628625 -0.219041
H3    H     H_    0.432886 0.592464 0.621855 0.126777
C10   C     C_R   0.147684 0.604813 0.601211 -0.123775
N1    N     N_R   0.274306 0.742085 0.730660 -0.056739
N2    N     N_R   0.258972 0.777099 0.764368 -0.034334
C11   C     C_R   0.083972 0.791172 0.781138 0.196472
N3    N     N_R   0.924678 0.767937 0.762914 -0.062920
N4    N     N_R   0.940496 0.732616 0.729231 -0.078306
C12   C     C_R   0.116266 0.718678 0.712373 0.097221
C13   C     C_R   0.908897 0.831241 0.847133 -0.076408
H4    H     H_    0.793767 0.805279 0.839925 0.141070
C14   C     C_R   0.896566 0.865214 0.884899 -0.080448
H5    H     H_    0.771398 0.865018 0.905400 0.149946
C15   C     C_R   0.046030 0.898342 0.896518 -0.186280
C16   C     C_R   0.205011 0.897690 0.868877 -0.244453
H6    H     H_    0.317940 0.924197 0.876567 0.168440
C17   C     C_R   0.215643 0.865123 0.830033 0.369531
C18   C     C_R   0.068621 0.830146 0.819375 -0.068165
C19   C     C_R   0.067827 0.658183 0.284194 0.469794
N5    N     N_R   0.050074 0.677229 0.326743 -0.177734
C20   C     C_R   0.002398 0.723834 0.340176 0.488429
C21   C     C_R   0.993763 0.754882 0.310728 -0.235449
C22   C     C_R   0.020697 0.735676 0.266867 -0.047982
C23   C     C_R   0.051838 0.686811 0.253471 -0.023071
C24   C     C_R   0.966484 0.804434 0.323344 0.370973
C25   C     C_R   0.971631 0.833357 0.292741 -0.190065
C26   C     C_R   0.997832 0.814363 0.249268 -0.102700
C27   C     C_R   0.019794 0.765349 0.236233 -0.002782
C28   C     C_R   0.043628 0.745995 0.192549 -0.049576
C29   C     C_R   0.067894 0.697030 0.179678 -0.109884
C30   C     C_R   0.073282 0.667876 0.209765 -0.120656
C31   C     C_R   0.004310 0.843449 0.218460 0.499754
N6    N     N_R   0.026494 0.824163 0.175905 -0.179576
C32   C     C_R   0.043461 0.776141 0.162694 0.481545
O11   O     O_2   0.105540 0.611775 0.271657 -0.556356
O12   O     O_2   0.966822 0.739874 0.381958 -0.506725
H7    H     H_    0.953099 0.871057 0.303327 0.207972
O13   O     O_2   0.991040 0.890711 0.231130 -0.543871
O14   O     O_2   0.058512 0.757407 0.120737 -0.525134
H8    H     H_    0.086048 0.681111 0.146328 0.180815
H9    H     H_    0.096249 0.630440 0.198628 0.178898
C33   C     C_R   0.187291 0.853590 0.116154 -0.174390
H10   H     H_    0.305557 0.829947 0.118007 0.175718
C34   C     C_R   0.188854 0.881166 0.084210 0.329518
C35   C     C_R   0.034689 0.912605 0.082227 -0.303515
C36   C     C_R   0.879947 0.913674 0.111243 -0.132050
H11   H     H_    0.760065 0.937197 0.110525 0.150276
C37   C     C_R   0.877044 0.884743 0.141637 -0.022061
H12   H     H_    0.753935 0.885752 0.162884 0.134416
C38   C     C_R   0.031052 0.854620 0.144665 0.145619
C39   C     C_R   0.258851 0.652961 0.382156 0.122619
C40   C     C_R   0.296762 0.620672 0.410098 0.085274
C41   C     C_R   0.150111 0.587036 0.416617 -0.190488
C42   C     C_R   0.983316 0.583267 0.391568 -0.204338
H13   H     H_    0.873428 0.556892 0.394078 0.140250
C43   C     C_R   0.955561 0.611867 0.361937 -0.130409
H14   H     H_    0.829059 0.605910 0.342069 0.123189
C44   C     C_R   0.086915 0.647772 0.357791 0.177068
C45   C     C_R   0.721012 0.208486 0.825671 0.540043
N7    N     N_R   0.580000 0.174221 0.823127 -0.185291
C46   C     C_R   0.448061 0.167746 0.790831 0.501708
C47   C     C_R   0.452449 0.196556 0.759936 -0.003636
C48   C     C_R   0.592743 0.232553 0.762424 -0.007788
C49   C     C_R   0.730289 0.238936 0.795646 -0.214663
C50   C     C_R   0.322678 0.188828 0.725926 -0.164902
C51   C     C_R   0.327712 0.216364 0.694179 0.131544
C52   C     C_R   0.458792 0.255544 0.698073 -0.079578
C53   C     C_R   0.595747 0.262018 0.731525 -0.014014
C54   C     C_R   0.738856 0.297435 0.733712 -0.103193
C55   C     C_R   0.877575 0.302892 0.765902 -0.231118
C56   C     C_R   0.873594 0.274867 0.797023 0.393425
C57   C     C_R   0.460266 0.288704 0.670254 0.458710
N8    N     N_R   0.601533 0.322828 0.673143 -0.175063
C58   C     C_R   0.742164 0.326657 0.703329 0.478549
O15   O     O_2   0.851160 0.212964 0.857247 -0.494014
O16   O     O_2   0.314242 0.132923 0.788148 -0.558881
H15   H     H_    0.218959 0.159966 0.723124 0.172207
O17   O     O_2   0.319888 0.288133 0.641386 -0.564122
O18   O     O_2   0.883936 0.359254 0.704256 -0.584488
H16   H     H_    0.988560 0.330007 0.767764 0.200965
C59   C     C_R   0.570552 0.404029 0.656928 0.161692
C60   C     C_R   0.598969 0.434981 0.627442 0.079383
C61   C     C_R   0.637653 0.415651 0.583940 -0.192353
C62   C     C_R   0.662685 0.366938 0.571050 -0.168382
H17   H     H_    0.694294 0.351949 0.537989 0.175246
C63   C     C_R   0.650959 0.337159 0.600551 -0.082719
H18   H     H_    0.677001 0.299767 0.590013 0.138860
C64   C     C_R   0.605104 0.354933 0.643387 0.162658
C65   C     C_R   0.729279 0.116863 0.861504 -0.054829
H19   H     H_    0.859747 0.117480 0.842713 0.146467
C66   C     C_R   0.720356 0.088223 0.892248 -0.152761
H20   H     H_    0.844910 0.067409 0.896505 0.135662
C67   C     C_R   0.551351 0.085760 0.916519 -0.137794
C68   C     C_R   0.392442 0.113126 0.909601 -0.145511
H21   H     H_    0.260287 0.112241 0.927782 0.161707
C69   C     C_R   0.402644 0.142332 0.879349 -0.029977
H22   H     H_    0.279201 0.163456 0.874986 0.165880
C70   C     C_R   0.570734 0.144348 0.854800 0.181097
C71   C     C_R   0.490695 0.392726 0.370729 -0.110270
H23   H     H_    0.380129 0.419442 0.376381 0.143791
C72   C     C_R   0.478786 0.357492 0.333973 -0.079952
H24   H     H_    0.358296 0.357820 0.312771 0.128355
C73   C     C_R   0.620497 0.322586 0.324595 0.053296
C74   C     C_R   0.773676 0.323640 0.353261 -0.235002
H25   H     H_    0.882435 0.296521 0.347137 0.171458
C75   C     C_R   0.785620 0.358349 0.390816 0.358369
C76   C     C_R   0.643950 0.394151 0.399482 -0.304500
N9    N     N_R   0.745254 0.251231 0.276246 -0.068080
N10   N     N_R   0.733366 0.217400 0.241402 -0.071226
C77   C     C_R   0.583025 0.215565 0.214150 0.147696
N11   N     N_R   0.445193 0.249181 0.223392 -0.067067
N12   N     N_R   0.457075 0.283014 0.258242 -0.070854
C78   C     C_R   0.607430 0.284845 0.285493 0.146237
C79   C     C_R   0.417627 0.176840 0.146226 -0.228221
H26   H     H_    0.309445 0.204109 0.152160 0.172519
C80   C     C_R   0.405895 0.142045 0.108719 0.356929
C81   C     C_R   0.546769 0.106043 0.100333 -0.298770
C82   C     C_R   0.699348 0.107388 0.129236 -0.113379
H27   H     H_    0.809362 0.080529 0.123765 0.139014
C83   C     C_R   0.711165 0.142710 0.165921 -0.078859
H28   H     H_    0.831069 0.142298 0.187261 0.127835
C84   C     C_R   0.570029 0.177786 0.175075 0.052604
O19   O     O_R   0.699050 0.038480 0.960880 -0.600481
O20   O     O_R   0.366680 0.052470 0.047720 -0.573374
O21   O     O_R   0.193410 0.961530 0.039110 -0.576529
C85   C     C_R   0.535793 0.066278 0.062797 0.989793
O22   O     O_R   0.369510 0.044100 0.961740 -0.592107
O23   O     O_R   0.196260 0.953110 0.952520 -0.585816
C86   C     C_R   0.539426 0.054158 0.948182 0.963918
O24   O     O_R   0.696210 0.046900 0.047470 -0.592706
O25   O     O_3   0.528780 0.970170 0.997070 -0.246859
V3    V     V_3+5 0.255080 0.005530 0.000540 1.240218
O26   O     O_R   0.866350 0.947520 0.952280 -0.600019
C87   C     C_R   0.035196 0.934982 0.936236 0.979761
O27   O     O_R   0.863520 0.955880 0.038260 -0.586021
C88   C     C_R   0.031120 0.945050 0.051154 1.002036
V4    V     V_3+5 0.754720 0.994440 0.999470 1.223825
O28   O     O_3   0.030880 0.029830 0.002930 -0.260065
N13   N     N_R   0.341014 0.874511 0.052806 0.241831
O29   O     O_R   0.300588 0.870455 0.012586 -0.385029
O30   O     O_R   0.512968 0.863543 0.063223 -0.402555
C89   C     C_3   0.399380 0.692766 0.377070 -0.396889
C90   C     C_3   0.513949 0.681066 0.334911 -0.301029
C91   C     C_3   0.527313 0.722875 0.312143 -0.820410
H29   H     H_    0.382930 0.732460 0.302586 0.248445
H30   H     H_    0.591926 0.753979 0.333369 0.298728
H31   H     H_    0.617348 0.713330 0.282929 0.241820
H32   H     H_    0.661476 0.671350 0.342060 0.198268
H33   H     H_    0.450619 0.650373 0.312710 0.227022
H34   H     H_    0.320720 0.726229 0.379420 0.241387
H35   H     H_    0.500360 0.702074 0.404069 0.204648
C92   C     C_3   0.494205 0.621211 0.430696 -0.433936
C93   C     C_3   0.492945 0.649590 0.476534 -0.214433
C94   C     C_3   0.694927 0.653424 0.495534 -0.851959
H36   H     H_    0.753015 0.617798 0.495638 0.269450
H37   H     H_    0.793710 0.672319 0.476760 0.267843
H38   H     H_    0.689069 0.673410 0.528887 0.242293
H39   H     H_    0.439242 0.685792 0.476854 0.205594
H40   H     H_    0.394930 0.632503 0.496868 0.196094
H41   H     H_    0.547654 0.584993 0.429213 0.211177
H42   H     H_    0.606361 0.635651 0.411774 0.189138
C95   C     C_3   0.203661 0.198999 0.655342 -0.354899
C96   C     C_3   0.000572 0.219485 0.661566 -0.223905
C97   C     C_3   0.878632 0.203791 0.621791 -0.867987
H43   H     H_    0.944719 0.216575 0.594252 0.279893
H44   H     H_    0.865726 0.164650 0.614153 0.267828
H45   H     H_    0.731999 0.218733 0.627378 0.233848
H46   H     H_    0.928936 0.207445 0.688918 0.186241
H47   H     H_    0.009037 0.258600 0.668740 0.250438
H48   H     H_    0.273428 0.206152 0.625842 0.230656
H49   H     H_    0.191330 0.159777 0.649761 0.173182
N14   N     N_R   0.014430 0.284597 0.830124 0.263931
O31   O     O_R   0.960974 0.304461 0.868464 -0.295532
O32   O     O_R   0.196698 0.284343 0.820085 -0.400189
C98   C     C_3   0.492873 0.422681 0.701655 -0.437542
C99   C     C_3   0.276040 0.432100 0.700240 -0.281301
C100  C     C_3   0.193825 0.449721 0.744854 -0.790426
H50   H     H_    0.215701 0.423074 0.765184 0.272544
H51   H     H_    0.265006 0.483528 0.759734 0.243013
H52   H     H_    0.036753 0.455764 0.742877 0.253855
H53   H     H_    0.246877 0.458670 0.680259 0.184871
H54   H     H_    0.200531 0.398805 0.685648 0.267898
H55   H     H_    0.512673 0.397175 0.722995 0.207701
H56   H     H_    0.572880 0.454959 0.717011 0.200363
C101  C     C_3   0.619166 0.488052 0.643260 -0.462193
C102  C     C_3   0.827209 0.499812 0.657957 -0.232388
C103  C     C_3   0.850836 0.551611 0.678665 -0.943055
H57   H     H_    0.807839 0.573939 0.655913 0.269813
H58   H     H_    0.759830 0.559843 0.707845 0.269144
H59   H     H_    0.003928 0.559414 0.687515 0.255726
H60   H     H_    0.868928 0.477952 0.681379 0.209825
H61   H     H_    0.926902 0.491705 0.630102 0.200797
H62   H     H_    0.583878 0.508030 0.618006 0.177122
H63   H     H_    0.516434 0.501141 0.669488 0.196678
C104  C     C_3   0.478679 0.656484 0.693477 -0.452963
C105  C     C_3   0.440120 0.639683 0.735547 -0.246234
C106  C     C_3   0.606479 0.653489 0.766525 -0.871025
H64   H     H_    0.617326 0.692568 0.775949 0.269912
H65   H     H_    0.580435 0.638547 0.795616 0.252476
H66   H     H_    0.744983 0.639730 0.751699 0.259252
H67   H     H_    0.305532 0.655119 0.751065 0.203638
H68   H     H_    0.422082 0.600587 0.728874 0.192140
H69   H     H_    0.599658 0.635477 0.677089 0.183836
H70   H     H_    0.533038 0.693408 0.698695 0.213013
N15   N     N_R   0.936705 0.355096 0.420500 0.240111
O33   O     O_R   0.896030 0.357861 0.460729 -0.404806
O34   O     O_R   0.107223 0.341077 0.406566 -0.401036
N16   N     N_R   0.256046 0.145406 0.078774 0.240436
O35   O     O_R   0.298059 0.142342 0.038566 -0.381836
O36   O     O_R   0.085406 0.159668 0.092410 -0.395078
N17   N     N_R   0.370308 0.870113 0.800933 0.232266
O37   O     O_R   0.332648 0.870843 0.761268 -0.351781
O38   O     O_R   0.541189 0.883087 0.815451 -0.407769
N18   N     N_R   0.938325 0.826668 0.367032 0.269646
O39   O     O_R   0.773760 0.821776 0.385670 -0.327623
O40   O     O_R   0.057303 0.859796 0.384645 -0.332611

loop_
_geom_bond_atom_site_label_1
_geom_bond_atom_site_label_2
_geom_bond_distance
_ccdc_geom_bond_type
C77   C84   1.493237 S    
N14   O32   1.301018 A    
N6    C32   1.374110 A    
C41   C42   1.404907 A    
C90   H33   1.110788 S    
C102  H60   1.110688 S    
C19   N5    1.369933 A    
C95   H49   1.113046 S    
C98   H55   1.106351 S    
N8    C58   1.367560 A    
C47   C50   1.401136 A    
N7    C70   1.451196 S    
O22   V3    1.973788 S    
C75   C76   1.421128 A    
C92   H41   1.105353 S    
N13   O29   1.301436 A    
C53   C54   1.407505 A    
C72   H24   1.082741 S    
C91   H30   1.107555 S    
C31   O13   1.349140 S    
C22   C23   1.410553 A    
C68   H21   1.083069 S    
N5    C44   1.452265 S    
C7    C12   1.502564 S    
C11   N3    1.361017 A    
N1    N2    1.331334 A    
C90   C91   1.525567 S    
C62   C63   1.394033 A    
C74   H25   1.082946 S    
C59   C64   1.421361 A    
C89   C90   1.539854 S    
C6    C7    1.409793 A    
C42   C43   1.387302 A    
C40   C92   1.524345 S    
C39   C89   1.527872 S    
O22   C86   1.300139 A    
V4    O28   2.152484 S    
O5    C3    1.306095 A    
N4    C12   1.361770 A    
O19   V4    1.978056 S    
C43   C44   1.395016 A    
C104  H69   1.107979 S    
C72   C73   1.404754 A    
C105  H67   1.109988 S    
C62   H17   1.083111 S    
C11   C18   1.496290 S    
C26   C31   1.411758 A    
C103  H59   1.110724 S    
C63   H18   1.083027 S    
C14   H5    1.083078 S    
C59   C98   1.522748 S    
C60   C101  1.521671 S    
C52   C57   1.426173 A    
O21   V3    1.973175 S    
C69   H22   1.083047 S    
C55   C56   1.397656 A    
C20   O12   1.347744 S    
O1    C2    1.300252 A    
C54   C58   1.403465 A    
C92   C93   1.534201 S    
O8    V2    1.979882 S    
C94   H38   1.110428 S    
O25   V3    2.158759 S    
C65   H19   1.082958 S    
C63   C64   1.401160 A    
C77   N11   1.360002 A    
C46   O16   1.349710 S    
C100  H52   1.110058 S    
C102  H61   1.112192 S    
C19   C23   1.405947 A    
C95   H48   1.108713 S    
C96   H47   1.107948 S    
C99   C100  1.525939 S    
O1    V2    1.978483 S    
O9    C4    1.299958 A    
C98   C99   1.534649 S    
N3    N4    1.336456 A    
O7    V1    2.158864 S    
C50   H15   1.084178 S    
C45   C49   1.421192 A    
C21   C24   1.422763 A    
C55   H16   1.083988 S    
C104  H70   1.107459 S    
C93   H40   1.110670 S    
C73   C78   1.493256 S    
C94   H37   1.111260 S    
N14   O31   1.301118 A    
O24   V4    1.978711 S    
N1    C12   1.356670 A    
O27   V4    1.979498 S    
O23   C87   1.297702 A    
C7    C8    1.429998 A    
O27   C88   1.299331 A    
C99   H53   1.110019 S    
C98   H56   1.109589 S    
N16   O35   1.301498 A    
C56   N14   1.432516 S    
C60   C61   1.418961 A    
N13   O30   1.300982 A    
C45   N7    1.373084 A    
O20   C85   1.300836 A    
C101  C102  1.535535 S    
C8    C9    1.411480 A    
C39   C40   1.437715 A    
C82   H27   1.083374 S    
C16   C17   1.406801 A    
C103  H57   1.105969 S    
C81   C85   1.493014 S    
C71   C72   1.399539 A    
C40   C41   1.437842 A    
O26   V4    1.980362 S    
C35   C36   1.408173 A    
C24   C25   1.402882 A    
C85   O24   1.300058 A    
C80   N16   1.437072 S    
C47   C48   1.405190 A    
C51   C95   1.517562 S    
C79   C80   1.409401 A    
N18   O39   1.300897 A    
C54   C55   1.401181 A    
O4    C2    1.300743 A    
C43   H14   1.080841 S    
C102  C103  1.520228 S    
C27   C28   1.409123 A    
C104  C105  1.534943 S    
C48   C49   1.418718 A    
C29   H8    1.083028 S    
C28   C29   1.404545 A    
C34   N13   1.438030 S    
C65   C70   1.406215 A    
C33   C34   1.410299 A    
O25   V4    1.704451 S    
O2    C1    1.296782 A    
C20   C21   1.421279 A    
V3    O28   1.709224 S    
C16   H6    1.083619 S    
C49   C56   1.421402 A    
N17   O37   1.301412 A    
C106  H65   1.110198 S    
N6    C38   1.451775 S    
N15   O33   1.301284 A    
O20   V3    1.978525 S    
C57   O17   1.346183 S    
C48   C53   1.421931 A    
C101  H62   1.109595 S    
C5    H1    1.083264 S    
C89   H35   1.107048 S    
C65   C66   1.401136 A    
O19   C86   1.299477 A    
C42   H13   1.083207 S    
N16   O36   1.301286 A    
N17   O38   1.301151 A    
C100  H51   1.110808 S    
C71   H23   1.083359 S    
C37   H12   1.082856 S    
O3    C4    1.299386 A    
C68   C69   1.400608 A    
C24   N18   1.432331 S    
C25   C26   1.402777 A    
N15   O34   1.301247 A    
C8    C104  1.516719 S    
C26   C27   1.404420 A    
O6    V2    1.976755 S    
O9    V2    1.979942 S    
C99   H54   1.110369 S    
C73   C74   1.406423 A    
C83   C84   1.404830 A    
C46   C47   1.408083 A    
N5    C20   1.373567 A    
C97   H44   1.110670 S    
N10   C77   1.359650 A    
O2    V1    1.974008 S    
O26   C87   1.301091 A    
C13   C18   1.409211 A    
C29   C30   1.395567 A    
C15   C87   1.488763 S    
C25   H7    1.083598 S    
C17   N17   1.436784 S    
C66   H20   1.083092 S    
C61   C62   1.398406 A    
C90   H32   1.102329 S    
C106  H64   1.110872 S    
C31   N6    1.374521 A    
C94   H36   1.109326 S    
C74   C75   1.409239 A    
C83   H28   1.082739 S    
C36   H11   1.083385 S    
C21   C22   1.415978 A    
C28   C32   1.409803 A    
C91   H31   1.109625 S    
C71   C76   1.407478 A    
C79   H26   1.082947 S    
N8    C64   1.449896 S    
C92   H42   1.106241 S    
O5    V1    1.973384 S    
C37   C38   1.401677 A    
C81   C82   1.407306 A    
C1    O6    1.295465 A    
C105  H68   1.112090 S    
C93   H39   1.111477 S    
C82   C83   1.399352 A    
C15   C16   1.404081 A    
C1    C61   1.478872 S    
N12   C78   1.359731 A    
C96   C97   1.525345 S    
C5    C10   1.401773 A    
C33   H10   1.083034 S    
C6    H2    1.082482 S    
N9    N10   1.334015 A    
C97   H43   1.110789 S    
C19   O11   1.349360 S    
O4    V1    1.978038 S    
C79   C84   1.406562 A    
C93   C94   1.526965 S    
V1    O10   1.709085 S    
C13   H4    1.083076 S    
C106  H66   1.110519 S    
C30   H9    1.083040 S    
C105  C106  1.526384 S    
N11   N12   1.334151 A    
C91   H29   1.104124 S    
C45   O15   1.347521 S    
C22   C27   1.419748 A    
C97   H45   1.109206 S    
C75   N15   1.437002 S    
V2    O10   2.152497 S    
C23   C30   1.405538 A    
C101  H63   1.107178 S    
C5    C6    1.400639 A    
C39   C44   1.421562 A    
N18   O40   1.300833 A    
C34   C35   1.420969 A    
C35   C88   1.491094 S    
C14   C15   1.403792 A    
C33   C38   1.405809 A    
C4    C10   1.489630 S    
O7    V2    1.704855 S    
C57   N8    1.370738 A    
C69   C70   1.405660 A    
C2    C76   1.493400 S    
N9    C78   1.359929 A    
C89   H34   1.104548 S    
C80   C81   1.420907 A    
C9    H3    1.083824 S    
C17   C18   1.421703 A    
C96   H46   1.111720 S    
C100  H50   1.110978 S    
C9    C10   1.403071 A    
C51   C52   1.428402 A    
C50   C51   1.404263 A    
C36   C37   1.397570 A    
N7    C46   1.370672 A    
O23   V3    1.977109 S    
C3    C41   1.506249 S    
C67   C86   1.488293 S    
C59   C60   1.428672 A    
O3    V1    1.977229 S    
C103  H58   1.109647 S    
C32   O14   1.349237 S    
C95   C96   1.531074 S    
C66   C67   1.407792 A    
C52   C53   1.421250 A    
C58   O18   1.348150 S    
O21   C88   1.299715 A    
C67   C68   1.407994 A    
O8    C3    1.300674 A    
C13   C14   1.402885 A    
N2    C11   1.356973 A    
