data_mof_unit_22020.cif
_audit_creation_date              2012-12-10T18:03:58-0500
_audit_creation_method            fapswitch 2.2
_symmetry_space_group_name_H-M    P1
_symmetry_Int_Tables_number       1
_space_group_crystal_system       triclinic
_cell_length_a                    10.975781
_cell_length_b                    9.728852
_cell_length_c                    11.123318
_cell_angle_alpha                 89.948716
_cell_angle_beta                  95.95186
_cell_angle_gamma                 89.735884
_cell_volume                      1181.35085755

loop_
_atom_site_label
_atom_site_type_symbol
_atom_type_description
_atom_site_fract_x
_atom_site_fract_y
_atom_site_fract_z
_atom_type_partial_charge
C1    C     C_R   0.262686 0.499547 0.501090 0.796188
C2    C     C_R   0.737310 0.499221 0.500823 0.791099
C3    C     C_R   0.406827 0.075828 0.440973 0.012132
C4    C     C_R   0.592772 0.074545 0.560113 0.009614
C5    C     C_R   0.401795 0.929325 0.446142 0.067750
C6    C     C_R   0.597352 0.927600 0.555951 0.083254
C7    C     C_R   0.494387 0.499923 0.262363 0.801851
C8    C     C_R   0.499333 0.499705 0.736983 0.800891
C9    C     C_R   0.530786 0.609981 0.065128 -0.007208
C10   C     C_R   0.528002 0.611874 0.940483 0.087318
C11   C     C_R   0.488085 0.498249 0.127977 -0.132537
C12   C     C_R   0.493840 0.497350 0.870079 -0.198152
C13   C     C_R   0.437002 0.386824 0.057177 -0.064353
C14   C     C_R   0.441340 0.386091 0.929428 -0.086593
C15   C     C_3   0.495789 0.763327 0.930816 -0.156074
C16   C     C_3   0.507965 0.762244 0.073176 -0.175244
C17   C     C_R   0.064251 0.371108 0.506117 -0.041828
C18   C     C_R   0.937518 0.370954 0.509081 -0.063011
C19   C     C_R   0.871525 0.496089 0.502655 -0.120534
C20   C     C_R   0.128553 0.496441 0.503567 -0.114780
C21   C     C_R   0.935820 0.619635 0.499520 -0.205500
C22   C     C_R   0.062485 0.619710 0.502698 -0.217671
Cu1   Cu    Cu3+1 0.500000 0.640660 0.500000 1.020183
Cu2   Cu    Cu3+1 0.500000 0.359340 0.500000 1.039554
H1    H     H_    0.888507 0.717073 0.494775 0.204990
H2    H     H_    0.108457 0.717009 0.505919 0.212818
H3    H     H_    0.333798 0.132709 0.391080 0.200361
H4    H     H_    0.664887 0.130511 0.611764 0.191435
N1    N     N_R   0.500000 0.852070 0.500000 -0.243622
N2    N     N_R   0.500000 0.147940 0.500000 -0.200979
O1    O     O_R   0.319640 0.618740 0.499990 -0.574754
O2    O     O_R   0.680360 0.618740 0.500010 -0.578084
O3    O     O_R   0.319620 0.381170 0.499990 -0.585060
O4    O     O_R   0.680380 0.381170 0.500010 -0.571496
O5    O     O_R   0.499990 0.618810 0.319660 -0.560305
O6    O     O_R   0.500010 0.618810 0.680340 -0.549667
O7    O     O_R   0.499960 0.381240 0.319650 -0.546380
O8    O     O_R   0.500040 0.381240 0.680350 -0.542955
C23   C     C_2   0.363780 0.281216 0.112421 0.844592
O9    O     O_2   0.414857 0.186381 0.169260 -0.583529
O10   O     O_R   0.236040 0.290633 0.098773 -0.717980
H5    H     H_    0.196037 0.212350 0.140083 0.349528
C24   C     C_2   0.373482 0.280894 0.855475 0.843520
O11   O     O_2   0.262381 0.290996 0.834387 -0.556458
O12   O     O_R   0.437971 0.178065 0.801610 -0.714469
H6    H     H_    0.384852 0.124527 0.738441 0.356051
C25   C     C_2   0.596492 0.845100 0.881187 0.911687
O13   O     O_2   0.571390 0.944693 0.816586 -0.603322
O14   O     O_R   0.719513 0.812721 0.917089 -0.749753
H7    H     H_    0.778216 0.882840 0.888410 0.337931
C26   C     C_2   0.388088 0.796882 0.121121 0.932025
O15   O     O_2   0.374070 0.908956 0.167134 -0.592717
O16   O     O_R   0.287277 0.710238 0.093417 -0.732606
H8    H     H_    0.206105 0.758144 0.100334 0.338090
C27   C     C_R   0.363911 0.801671 0.871504 0.107017
C28   C     C_R   0.278362 0.706533 0.815255 -0.031595
C29   C     C_R   0.156490 0.743848 0.781623 -0.150418
C30   C     C_R   0.115759 0.876199 0.802455 -0.100006
C31   C     C_R   0.196576 0.971101 0.859045 -0.103697
C32   C     C_R   0.318884 0.934749 0.892158 -0.125810
H9    H     H_    0.298891 0.600946 0.801184 0.127606
H10   H     H_    0.092156 0.667915 0.743399 0.163199
H11   H     H_    0.020748 0.903864 0.778275 0.195518
H12   H     H_    0.162946 0.071401 0.881235 0.216794
H13   H     H_    0.376843 0.007646 0.943319 0.175743
C33   C     C_R   0.619064 0.839193 0.137684 0.115389
C34   C     C_R   0.718836 0.768727 0.201501 -0.054333
C35   C     C_R   0.827849 0.837419 0.238433 -0.152002
C36   C     C_R   0.838643 0.977302 0.215061 -0.088345
C37   C     C_R   0.738901 0.050271 0.158666 -0.086773
C38   C     C_R   0.629987 0.982091 0.120801 -0.064331
H14   H     H_    0.715831 0.659403 0.218248 0.123250
H15   H     H_    0.905363 0.781374 0.282386 0.153196
H16   H     H_    0.924029 0.029505 0.241847 0.205722
H17   H     H_    0.746998 0.159171 0.141283 0.166870
H18   H     H_    0.557715 0.038876 0.069475 0.170679
C39   C     C_2   0.124305 0.236528 0.500022 0.909860
O17   O     O_2   0.117270 0.176163 0.403478 -0.591421
O18   O     O_R   0.179412 0.176021 0.605925 -0.713616
H19   H     H_    0.211192 0.080038 0.593591 0.338540
C40   C     C_2   0.878059 0.236518 0.518863 0.891687
O19   O     O_2   0.889992 0.175077 0.615196 -0.555427
O20   O     O_R   0.815613 0.178120 0.415930 -0.751034
H20   H     H_    0.785614 0.082201 0.430611 0.344133
C41   C     C_2   0.282655 0.868819 0.399078 0.893330
O21   O     O_2   0.187880 0.922802 0.423431 -0.634556
O22   O     O_R   0.275229 0.755071 0.323607 -0.699171
H21   H     H_    0.187693 0.723552 0.302016 0.316104
C42   C     C_2   0.711247 0.863233 0.614760 0.860169
O23   O     O_2   0.809983 0.916444 0.603927 -0.637413
O24   O     O_R   0.708058 0.746667 0.686964 -0.703579
H22   H     H_    0.792862 0.711861 0.717928 0.323479

loop_
_geom_bond_atom_site_label_1
_geom_bond_atom_site_label_2
_ccdc_geom_bond_type
C27   C28   A    
O10   H5    S    
C16   C26   S    
C15   C25   S    
O22   H21   S    
C17   C20   A    
C40   O19   D    
C1    O3    A    
C29   H10   S    
C25   O14   S    
O16   H8    S    
C7    C11   S    
C31   H12   S    
Cu1   N1    S    
C21   C22   A    
C19   C21   A    
C9    C16   S    
C18   C19   A    
C10   C15   S    
C41   O21   D    
C38   H18   S    
C15   C16   S    
C1    O1    A    
C18   C40   S    
C28   C29   A    
C2    O2    A    
C34   H14   S    
C8    O6    A    
C4    H4    S    
C33   C38   A    
C35   C36   A    
Cu2   O8    S    
Cu1   Cu2   S    
C37   C38   A    
C42   O24   S    
C9    C10   A    
C39   O17   D    
C5    C41   S    
C2    O4    A    
C39   O18   S    
C33   C34   A    
C31   C32   A    
C13   C14   A    
C8    O8    A    
C40   O20   S    
Cu2   O7    S    
C5    N1    A    
C41   O22   S    
C26   O15   D    
C25   O13   D    
C4    C6    A    
O24   H22   S    
C35   H15   S    
O12   H6    S    
Cu2   O4    S    
C34   C35   A    
C26   O16   S    
C15   C27   S    
C3    N2    A    
C24   O11   D    
C24   O12   S    
O20   H20   S    
C8    C12   S    
C17   C39   S    
C17   C18   A    
C7    O7    A    
C36   H16   S    
C9    C11   A    
C10   C12   A    
C12   C14   A    
C32   H13   S    
Cu1   O6    S    
Cu1   O5    S    
C16   C33   S    
C23   O9    D    
C30   H11   S    
C21   H1    S    
C1    C20   S    
C2    C19   S    
C7    O5    A    
C20   C22   A    
C3    C5    A    
C6    C42   S    
Cu2   O3    S    
Cu1   O2    S    
C3    H3    S    
C30   C31   A    
C11   C13   A    
C29   C30   A    
C36   C37   A    
Cu2   N2    S    
C13   C23   S    
O18   H19   S    
C6    N1    A    
C23   O10   S    
O14   H7    S    
C22   H2    S    
C37   H17   S    
C28   H9    S    
C42   O23   D    
C27   C32   A    
C4    N2    A    
Cu1   O1    S    
C14   C24   S    
