data_mof_unit_18871.cif
_audit_creation_date              2012-12-10T18:56:24-0500
_audit_creation_method            fapswitch 2.2
_symmetry_space_group_name_H-M    P1
_symmetry_Int_Tables_number       1
_space_group_crystal_system       triclinic
_cell_length_a                    10.59974
_cell_length_b                    9.838151
_cell_length_c                    19.292328
_cell_angle_alpha                 90.023179
_cell_angle_beta                  90.180202
_cell_angle_gamma                 90.997708
_cell_volume                      2011.52434243

loop_
_atom_site_label
_atom_site_type_symbol
_atom_type_description
_atom_site_fract_x
_atom_site_fract_y
_atom_site_fract_z
_atom_type_partial_charge
C1    C     C_R   0.872028 0.505452 0.500115 -0.152423
C2    C     C_R   0.127972 0.494547 0.499887 -0.152423
C3    C     C_R   0.615213 0.513437 0.963875 -0.047743
C4    C     C_R   0.384778 0.486548 0.036123 -0.047745
C5    C     C_R   0.615453 0.513410 0.036303 -0.047868
C6    C     C_R   0.384538 0.486578 0.963696 -0.047865
C7    C     C_R   0.500234 0.499961 0.071901 -0.050602
C8    C     C_R   0.499757 0.500029 0.928098 -0.050605
C9    C     C_R   0.260425 0.498624 0.500083 1.000711
C10   C     C_R   0.739574 0.501376 0.499918 1.000714
C11   C     C_R   0.500155 0.499987 0.365720 0.900446
C12   C     C_R   0.499844 0.500013 0.634280 0.900445
C13   C     C_R   0.065304 0.504576 0.436041 0.105467
C14   C     C_R   0.934695 0.495419 0.563961 0.105464
C15   C     C_R   0.934481 0.512946 0.436245 0.103960
C16   C     C_R   0.065518 0.487052 0.563757 0.103958
C17   C     C_R   0.498988 0.376300 0.745689 -0.209822
C18   C     C_R   0.501093 0.623698 0.254310 -0.209841
C19   C     C_R   0.499761 0.376238 0.254265 -0.210417
C20   C     C_R   0.500147 0.623759 0.745736 -0.210405
C21   C     C_R   0.498820 0.376467 0.817460 -0.157471
C22   C     C_R   0.501259 0.623528 0.182539 -0.157462
C23   C     C_R   0.499658 0.376397 0.182491 -0.156857
C24   C     C_R   0.500246 0.623597 0.817509 -0.156862
C25   C     C_R   0.499530 0.500032 0.852949 0.147249
C26   C     C_R   0.500461 0.499961 0.147050 0.147253
C27   C     C_R   0.570944 0.073325 0.546930 -0.068303
C28   C     C_R   0.429057 0.926675 0.453070 -0.068305
C29   C     C_R   0.429050 0.070588 0.453075 -0.077466
C30   C     C_R   0.570950 0.929412 0.546925 -0.077470
C31   C     C_R   0.499584 0.500025 0.709499 -0.024896
C32   C     C_R   0.500412 0.499974 0.290501 -0.024867
H1    H     H_    0.627675 0.128968 0.584438 0.129226
H2    H     H_    0.372326 0.871032 0.415561 0.129233
H3    H     H_    0.372376 0.124010 0.415551 0.119358
H4    H     H_    0.627625 0.875990 0.584449 0.119365
H5    H     H_    0.498480 0.279721 0.718708 0.155512
H6    H     H_    0.501672 0.720279 0.281290 0.155512
H7    H     H_    0.498970 0.279667 0.281211 0.157079
H8    H     H_    0.500868 0.720330 0.718789 0.157089
H9    H     H_    0.498296 0.280952 0.845410 0.135756
H10   H     H_    0.501851 0.719044 0.154589 0.135755
H11   H     H_    0.498964 0.280878 0.154503 0.135975
H12   H     H_    0.500871 0.719114 0.845499 0.135977
N1    N     N_R   0.500000 0.857200 0.500000 -0.082838
N2    N     N_R   0.500000 0.142800 0.500000 -0.082836
O1    O     O_R   0.316770 0.614620 0.500000 -0.615401
O2    O     O_R   0.683230 0.385380 0.500000 -0.615399
O3    O     O_R   0.683230 0.614620 0.500000 -0.636729
O4    O     O_R   0.316770 0.385380 0.500000 -0.636729
O5    O     O_R   0.500030 0.614710 0.398180 -0.628133
O6    O     O_R   0.499970 0.385290 0.601820 -0.628134
O7    O     O_R   0.499970 0.614710 0.601820 -0.629455
O8    O     O_R   0.500030 0.385290 0.398180 -0.629448
Zn1   Zn    Zn3+2 0.500000 0.653120 0.500000 0.946779
Zn2   Zn    Zn3+2 0.500000 0.346880 0.500000 0.946781
N3    N     N_2   0.135157 0.510891 0.372886 -0.314370
H13   H     H_    0.100340 0.576800 0.336342 0.241887
C33   C     C_3   0.165865 0.380059 0.343704 -0.793783
H14   H     H_    0.078598 0.322753 0.329098 0.234534
H15   H     H_    0.220454 0.319087 0.381243 0.255105
H16   H     H_    0.224233 0.395229 0.296569 0.248954
N4    N     N_2   0.864840 0.489090 0.627116 -0.314376
H17   H     H_    0.899661 0.423177 0.663657 0.241886
C34   C     C_3   0.834122 0.619914 0.656303 -0.793771
H18   H     H_    0.921385 0.677223 0.670915 0.234533
H19   H     H_    0.775750 0.604732 0.703435 0.248956
H20   H     H_    0.779533 0.680889 0.618764 0.255105
N5    N     N_2   0.864311 0.521431 0.373098 -0.314576
H21   H     H_    0.898144 0.462940 0.333179 0.243478
C35   C     C_3   0.835383 0.658160 0.351205 -0.773646
H22   H     H_    0.923176 0.715996 0.338564 0.227226
H23   H     H_    0.783999 0.713053 0.392276 0.267320
H24   H     H_    0.774576 0.653697 0.304268 0.245312
N6    N     N_2   0.135688 0.478565 0.626904 -0.314580
H25   H     H_    0.101852 0.537050 0.666825 0.243476
C36   C     C_3   0.164621 0.341834 0.648794 -0.773633
H26   H     H_    0.076829 0.283993 0.661433 0.227221
H27   H     H_    0.225427 0.346295 0.695731 0.245318
H28   H     H_    0.216007 0.286946 0.607722 0.267321
C37   C     C_1   0.733079 0.526371 0.926077 0.179830
N7    N     N_1   0.826928 0.536655 0.895877 -0.185555
C38   C     C_1   0.266912 0.473607 0.073921 0.179824
N8    N     N_1   0.173063 0.463317 0.104121 -0.185554
C39   C     C_1   0.733567 0.526347 0.074281 0.181620
N9    N     N_1   0.827621 0.536637 0.104619 -0.184464
C40   C     C_1   0.266425 0.473635 0.925718 0.181625
N10   N     N_1   0.172372 0.463341 0.895378 -0.184466

loop_
_geom_bond_atom_site_label_1
_geom_bond_atom_site_label_2
_ccdc_geom_bond_type
C40   N10   T    
N4    C34   S    
C16   N6    S    
C30   N1    A    
C37   N7    T    
C39   N9    T    
C27   H1    S    
C7    C26   S    
O1    Zn1   S    
C28   C29   A    
C20   H8    S    
N3    C33   S    
C13   N3    S    
C23   H11   S    
C23   C26   A    
N5    C35   S    
C2    C13   A    
C20   C24   A    
C34   H19   S    
C3    C37   S    
C1    C15   A    
C2    C16   A    
C12   O7    A    
C36   H26   S    
C5    C39   S    
O7    Zn1   S    
C28   H2    S    
C33   H14   S    
C27   C30   A    
C8    C25   S    
C4    C7    A    
C19   C32   A    
C12   O6    A    
C36   H27   S    
C15   N5    S    
O8    Zn2   S    
C28   N1    A    
C33   H15   S    
C1    C10   S    
C24   C25   A    
C4    C6    A    
C3    C8    A    
C5    C7    A    
C6    C8    A    
O3    Zn1   S    
O4    Zn2   S    
C6    C40   S    
C19   C23   A    
N6    H25   S    
C38   N8    T    
C34   H20   S    
C17   H5    S    
N6    C36   S    
C11   O8    A    
C19   H7    S    
C21   H9    S    
C27   N2    A    
C11   C32   S    
C9    O1    A    
C13   C15   A    
C12   C31   S    
C10   O2    A    
C17   C31   A    
C14   C16   A    
C18   C32   A    
C35   H23   S    
C36   H28   S    
O2    Zn2   S    
C21   C25   A    
C33   H16   S    
C18   C22   A    
C9    O4    A    
C3    C5    A    
C35   H24   S    
C29   H3    S    
C30   H4    S    
C29   N2    A    
C18   H6    S    
C35   H22   S    
C10   O3    A    
N3    H13   S    
C22   H10   S    
C4    C38   S    
C24   H12   S    
C14   N4    S    
O5    Zn1   S    
N5    H21   S    
C17   C21   A    
C11   O5    A    
N4    H17   S    
N1    Zn1   S    
C34   H18   S    
C22   C26   A    
N2    Zn2   S    
C1    C14   A    
C2    C9    S    
O6    Zn2   S    
C20   C31   A    
