data_mof_unit_48069.cif
_audit_creation_date              2013-03-05T15:44:02-0500
_audit_creation_method            fapswitch 2.2
_symmetry_space_group_name_H-M    P1
_symmetry_Int_Tables_number       1
_space_group_crystal_system       triclinic
_cell_length_a                    30.430965
_cell_length_b                    22.269515
_cell_length_c                    18.120531
_cell_angle_alpha                 89.978921
_cell_angle_beta                  123.147758
_cell_angle_gamma                 90.04435
_cell_volume                      10281.5665635

loop_
_atom_site_label
_atom_site_type_symbol
_atom_site_description
_atom_site_fract_x
_atom_site_fract_y
_atom_site_fract_z
_atom_type_partial_charge
C1    C     C_R   0.542497 0.584201 0.739846 -0.214707
C2    C     C_R   0.467077 0.391664 0.290229 -0.191016
C3    C     C_R   0.457398 0.584036 0.259952 -0.214647
C4    C     C_R   0.532894 0.391829 0.709998 -0.191944
C5    C     C_R   0.042764 0.083682 0.740350 -0.214323
C6    C     C_R   0.967144 0.891735 0.290240 -0.191944
C7    C     C_R   0.957588 0.084465 0.260338 -0.214815
C8    C     C_R   0.032924 0.891845 0.710061 -0.191843
H1    H     H_    0.515951 0.581782 0.761947 0.120468
H2    H     H_    0.497934 0.380045 0.280278 0.127664
H3    H     H_    0.483910 0.581564 0.237790 0.120534
H4    H     H_    0.502074 0.380310 0.720125 0.127603
H5    H     H_    0.016262 0.081009 0.762521 0.120385
H6    H     H_    0.997988 0.880185 0.280225 0.128171
H7    H     H_    0.984107 0.082156 0.238182 0.120402
H8    H     H_    0.002098 0.880329 0.720173 0.127935
N1    N     N_R   0.532970 0.559900 0.665210 -0.058920
N2    N     N_R   0.467030 0.440100 0.334790 -0.062840
N3    N     N_R   0.467030 0.559900 0.334790 -0.058995
N4    N     N_R   0.532970 0.440100 0.665210 -0.062818
N5    N     N_R   0.032970 0.059900 0.665210 -0.059073
N6    N     N_R   0.967030 0.940100 0.334790 -0.062816
N7    N     N_R   0.967030 0.059900 0.334790 -0.058853
N8    N     N_R   0.032970 0.940100 0.665210 -0.062886
C9    C     C_R   0.623462 0.612363 0.572233 -0.102438
C10   C     C_R   0.353368 0.425755 0.430319 0.021839
C11   C     C_R   0.376442 0.612257 0.427732 -0.102943
C12   C     C_R   0.646491 0.425253 0.570117 0.016367
C13   C     C_R   0.123754 0.112218 0.572136 -0.101797
C14   C     C_R   0.853485 0.925295 0.429903 0.016665
C15   C     C_R   0.876502 0.112307 0.427813 -0.103101
C16   C     C_R   0.146514 0.925383 0.570072 0.018395
H9    H     H_    0.649786 0.625535 0.639305 0.157968
H10   H     H_    0.319471 0.437123 0.366769 0.164804
H11   H     H_    0.350094 0.625362 0.360636 0.158237
H12   H     H_    0.680293 0.436922 0.633616 0.164815
H13   H     H_    0.149986 0.125513 0.639204 0.159237
H14   H     H_    0.819704 0.936968 0.366399 0.164638
H15   H     H_    0.850110 0.125452 0.360759 0.158238
H16   H     H_    0.180309 0.937069 0.633577 0.164836
N9    N     N_R   0.597900 0.559930 0.545530 -0.042668
N10   N     N_R   0.402100 0.440070 0.454470 -0.057200
N11   N     N_R   0.402100 0.559930 0.454470 -0.043046
N12   N     N_R   0.597900 0.440070 0.545530 -0.057330
N13   N     N_R   0.097900 0.059930 0.545530 -0.042828
N14   N     N_R   0.902100 0.940070 0.454470 -0.057443
N15   N     N_R   0.902100 0.059930 0.454470 -0.042752
N16   N     N_R   0.097900 0.940070 0.545530 -0.057227
C17   C     C_R   0.574049 0.612226 0.425551 -0.119659
C18   C     C_R   0.403355 0.421460 0.575411 -0.132831
C19   C     C_R   0.425842 0.612140 0.574433 -0.120013
C20   C     C_R   0.596727 0.420898 0.424951 -0.134496
C21   C     C_R   0.074502 0.111887 0.425416 -0.118328
C22   C     C_R   0.903250 0.920943 0.575061 -0.134266
C23   C     C_R   0.925982 0.112175 0.574512 -0.119608
C24   C     C_R   0.096735 0.920992 0.424925 -0.134575
H17   H     H_    0.554642 0.624770 0.357338 0.096994
H18   H     H_    0.415714 0.424712 0.643633 0.091607
H19   H     H_    0.445183 0.624668 0.642638 0.096757
H20   H     H_    0.584656 0.423748 0.356828 0.093029
H21   H     H_    0.055338 0.124166 0.357154 0.095319
H22   H     H_    0.915333 0.923838 0.643185 0.092978
H23   H     H_    0.945474 0.124700 0.642758 0.097218
H24   H     H_    0.084646 0.923876 0.356796 0.093054
N17   N     N_R   0.567170 0.559950 0.454460 -0.047022
N18   N     N_R   0.432830 0.440050 0.545540 -0.048126
N19   N     N_R   0.432830 0.559950 0.545540 -0.047134
N20   N     N_R   0.567170 0.440050 0.454460 -0.047869
N21   N     N_R   0.067170 0.059950 0.454460 -0.047168
N22   N     N_R   0.932830 0.940050 0.545540 -0.047902
N23   N     N_R   0.932830 0.059950 0.545540 -0.047027
N24   N     N_R   0.067170 0.940050 0.454460 -0.047935
C25   C     C_R   0.383696 0.584091 0.257297 0.314231
C26   C     C_R   0.606648 0.392311 0.711474 0.383748
C27   C     C_R   0.616246 0.584293 0.742646 0.314467
C28   C     C_R   0.393389 0.392131 0.288920 0.382152
C29   C     C_R   0.883822 0.084496 0.257525 0.314634
C30   C     C_R   0.106656 0.892300 0.711479 0.383800
C31   C     C_R   0.116418 0.083791 0.742890 0.314943
C32   C     C_R   0.893382 0.892200 0.288725 0.383677
N25   N     N_R   0.421470 0.559970 0.334770 -0.089388
N26   N     N_R   0.578530 0.440030 0.665230 -0.091932
N27   N     N_R   0.578530 0.559970 0.665230 -0.089322
N28   N     N_R   0.421470 0.440030 0.334770 -0.091863
N29   N     N_R   0.921470 0.059970 0.334770 -0.089224
N30   N     N_R   0.078530 0.940030 0.665230 -0.092096
N31   N     N_R   0.078530 0.059970 0.665230 -0.089471
N32   N     N_R   0.921470 0.940030 0.334770 -0.091922
C33   C     C_R   0.594252 0.601136 0.790167 -0.073760
C34   C     C_R   0.420906 0.359983 0.260447 -0.097554
C35   C     C_R   0.405586 0.600790 0.209542 -0.073592
C36   C     C_R   0.579095 0.360329 0.740067 -0.097839
C37   C     C_R   0.094697 0.100149 0.790997 -0.073076
C38   C     C_R   0.920966 0.860155 0.260311 -0.098032
C39   C     C_R   0.905890 0.101551 0.210168 -0.074204
C40   C     C_R   0.079123 0.860309 0.740116 -0.097852
C41   C     C_R   0.608220 0.647114 0.498507 0.032013
C42   C     C_R   0.352627 0.412514 0.503900 0.015404
C43   C     C_R   0.391601 0.646961 0.501456 0.032554
C44   C     C_R   0.647298 0.411384 0.496860 0.016973
C45   C     C_R   0.108882 0.146727 0.498281 0.031775
C46   C     C_R   0.852656 0.911496 0.503174 0.016961
C47   C     C_R   0.891752 0.147023 0.501577 0.032298
C48   C     C_R   0.147324 0.911575 0.496799 0.016563
Ni1   Ni    Ni4+2 0.483030 0.500000 0.604430 0.197066
Ni2   Ni    Ni4+2 0.516970 0.500000 0.395570 0.197569
Ni3   Ni    Ni4+2 0.983030 1.000000 0.604430 0.197424
Ni4   Ni    Ni4+2 0.016970 1.000000 0.395570 0.197495
Ni5   Ni    Ni4+2 0.587400 0.500000 0.604430 0.300404
Ni6   Ni    Ni4+2 0.412600 0.500000 0.395570 0.300558
Ni7   Ni    Ni4+2 0.087400 1.000000 0.604430 0.300524
Ni8   Ni    Ni4+2 0.912600 1.000000 0.395570 0.300284
C49   C     C_R   0.742029 0.385674 0.578266 -0.227943
C50   C     C_R   0.337137 0.736806 0.421764 -0.252641
C51   C     C_R   0.308822 0.389176 0.583722 -0.244240
C52   C     C_R   0.662521 0.737124 0.578167 -0.252799
C53   C     C_R   0.242090 0.886046 0.578093 -0.227651
C54   C     C_R   0.837395 0.236953 0.422003 -0.252860
C55   C     C_R   0.757830 0.886113 0.421859 -0.227981
C56   C     C_R   0.113825 0.234817 0.418359 -0.245460
C57   C     C_R   0.694736 0.396909 0.497560 0.126995
C58   C     C_R   0.373092 0.707989 0.501570 0.132701
C59   C     C_R   0.305338 0.399090 0.504301 0.124173
C60   C     C_R   0.626598 0.708248 0.498372 0.132718
C61   C     C_R   0.194750 0.897174 0.497420 0.126989
C62   C     C_R   0.873296 0.208062 0.501771 0.132677
C63   C     C_R   0.805194 0.897195 0.502539 0.126936
C64   C     C_R   0.127549 0.207718 0.498004 0.129248
C65   C     C_R   0.692112 0.388367 0.418806 -0.224570
C66   C     C_R   0.386545 0.734683 0.581060 -0.225237
C67   C     C_R   0.257353 0.389810 0.424175 -0.200333
C68   C     C_R   0.613125 0.734967 0.418874 -0.224993
C69   C     C_R   0.192053 0.888520 0.418624 -0.224435
C70   C     C_R   0.886682 0.234655 0.581286 -0.224491
C71   C     C_R   0.807852 0.888639 0.581327 -0.224537
C72   C     C_R   0.163538 0.236349 0.577726 -0.223335
C73   C     C_R   0.733671 0.360965 0.419863 0.102160
C74   C     C_R   0.357091 0.782361 0.581050 0.099651
C75   C     C_R   0.216006 0.361869 0.422423 0.089811
C76   C     C_R   0.642603 0.782674 0.418875 0.099554
C77   C     C_R   0.233571 0.861053 0.419631 0.102144
C78   C     C_R   0.857187 0.282273 0.581303 0.099372
C79   C     C_R   0.766255 0.861293 0.580306 0.102169
C80   C     C_R   0.193254 0.284365 0.579132 0.095051
C81   C     C_R   0.778587 0.342945 0.500849 0.020314
C82   C     C_R   0.314926 0.804939 0.500351 0.020727
C83   C     C_R   0.221968 0.344626 0.502055 0.017461
C84   C     C_R   0.684790 0.805264 0.499574 0.020694
C85   C     C_R   0.278518 0.843079 0.500605 0.020228
C86   C     C_R   0.815052 0.304898 0.500609 0.020695
C87   C     C_R   0.721274 0.843347 0.499327 0.020221
C88   C     C_R   0.185026 0.305713 0.499421 0.018703
C89   C     C_R   0.784360 0.358165 0.581617 0.030408
C90   C     C_R   0.306586 0.784829 0.419435 0.040056
C91   C     C_R   0.267361 0.361620 0.584101 0.038834
C92   C     C_R   0.693095 0.785179 0.580488 0.040097
C93   C     C_R   0.284373 0.858441 0.581393 0.030507
C94   C     C_R   0.806796 0.284914 0.419698 0.040125
C95   C     C_R   0.715466 0.858641 0.418546 0.030546
C96   C     C_R   0.142662 0.283648 0.417454 0.036602
C97   C     C_R   0.728819 0.347167 0.340389 -0.225422
C98   C     C_R   0.366261 0.803196 0.661033 -0.225333
C99   C     C_R   0.170809 0.346336 0.341403 -0.213509
C100  C     C_R   0.633467 0.803487 0.338892 -0.225238
C101  C     C_R   0.228637 0.847125 0.340131 -0.225326
C102  C     C_R   0.866276 0.302979 0.661288 -0.224699
C103  C     C_R   0.771139 0.847437 0.659799 -0.225437
C104  C     C_R   0.234177 0.307231 0.659888 -0.216359
C105  C     C_R   0.265111 0.809387 0.338353 0.172999
C106  C     C_R   0.830289 0.341175 0.663318 0.182815
C107  C     C_R   0.734587 0.809758 0.661566 0.172909
C108  C     C_R   0.271770 0.346389 0.664082 0.189946
C109  C     C_R   0.765347 0.309518 0.338629 0.172876
C110  C     C_R   0.330328 0.841484 0.663075 0.183036
C111  C     C_R   0.133247 0.307227 0.337134 0.192182
C112  C     C_R   0.669475 0.841722 0.336857 0.183043
H25   H     H_    0.744387 0.393720 0.638806 0.136179
H26   H     H_    0.329989 0.718621 0.361077 0.131768
H27   H     H_    0.345270 0.398804 0.645014 0.110823
H28   H     H_    0.669660 0.718931 0.638856 0.131738
H29   H     H_    0.244514 0.894237 0.638658 0.136001
H30   H     H_    0.830317 0.218854 0.361317 0.131790
H31   H     H_    0.755436 0.894224 0.361297 0.135997
H32   H     H_    0.083606 0.214675 0.357223 0.108864
H33   H     H_    0.656502 0.398835 0.356209 0.112512
H34   H     H_    0.416507 0.715200 0.643400 0.109940
H35   H     H_    0.253066 0.398979 0.362006 0.140126
H36   H     H_    0.583166 0.715449 0.356539 0.110046
H37   H     H_    0.156409 0.898921 0.356041 0.112482
H38   H     H_    0.916599 0.215110 0.643607 0.110219
H39   H     H_    0.843514 0.899015 0.643915 0.112489
H40   H     H_    0.172052 0.218521 0.639729 0.138951
H41   H     H_    0.694695 0.363486 0.279812 0.149056
H42   H     H_    0.399984 0.786048 0.721447 0.149201
H43   H     H_    0.167033 0.362199 0.281781 0.159182
H44   H     H_    0.599724 0.786338 0.278473 0.149241
H45   H     H_    0.194492 0.863412 0.279557 0.149041
H46   H     H_    0.899976 0.285797 0.721703 0.149406
H47   H     H_    0.805310 0.863711 0.720378 0.149038
H48   H     H_    0.238082 0.291158 0.719518 0.163077
C113  C     C_R   0.381038 0.628020 0.121885 0.146019
C114  C     C_R   0.596498 0.303852 0.790302 0.148384
C115  C     C_R   0.618608 0.628755 0.877489 0.146708
C116  C     C_R   0.403663 0.303024 0.211065 0.146295
C117  C     C_R   0.881610 0.129441 0.123058 0.146706
C118  C     C_R   0.096446 0.803696 0.790140 0.148595
C119  C     C_R   0.119538 0.126521 0.879320 0.146395
C120  C     C_R   0.903628 0.803543 0.210390 0.148554
C121  C     C_R   0.385942 0.705063 0.032763 -0.215497
C122  C     C_R   0.582435 0.200157 0.813592 -0.202941
C123  C     C_R   0.613544 0.706516 0.965446 -0.215479
C124  C     C_R   0.418531 0.200086 0.185806 -0.203320
C125  C     C_R   0.886696 0.207569 0.035519 -0.214817
C126  C     C_R   0.081978 0.700358 0.814394 -0.202941
C127  C     C_R   0.114870 0.201938 0.970616 -0.211823
C128  C     C_R   0.917798 0.699819 0.187552 -0.203042
C129  C     C_R   0.410747 0.667181 0.105171 -0.171804
C130  C     C_R   0.562065 0.256739 0.776096 -0.151969
C131  C     C_R   0.588830 0.668314 0.893410 -0.172148
C132  C     C_R   0.438429 0.256795 0.223550 -0.151565
C133  C     C_R   0.911403 0.169259 0.107433 -0.172440
C134  C     C_R   0.061841 0.756975 0.776724 -0.152086
C135  C     C_R   0.089953 0.164880 0.897278 -0.170981
C136  C     C_R   0.938111 0.756476 0.224878 -0.151954
C137  C     C_R   0.327522 0.620788 0.058828 -0.185880
C138  C     C_R   0.650219 0.294444 0.844857 -0.195410
C139  C     C_R   0.672021 0.621442 0.940979 -0.186129
C140  C     C_R   0.349995 0.292435 0.158298 -0.190138
C141  C     C_R   0.828218 0.122068 0.059494 -0.185788
C142  C     C_R   0.150144 0.793811 0.843987 -0.195260
C143  C     C_R   0.173135 0.119210 0.942005 -0.185819
C144  C     C_R   0.849920 0.793989 0.155803 -0.195337
C145  C     C_R   0.300879 0.663093 0.991010 0.060207
C146  C     C_R   0.670537 0.236605 0.868010 0.086252
C147  C     C_R   0.698602 0.663936 0.008540 0.060179
C148  C     C_R   0.330404 0.234293 0.134866 0.085509
C149  C     C_R   0.801628 0.164680 0.992157 0.060341
C150  C     C_R   0.170122 0.735841 0.867305 0.085112
C151  C     C_R   0.199876 0.160857 0.010812 0.059358
C152  C     C_R   0.829654 0.736096 0.132792 0.086174
C153  C     C_R   0.331162 0.706715 0.980277 0.188270
C154  C     C_R   0.636848 0.189540 0.858700 0.169808
C155  C     C_R   0.668314 0.708001 0.018382 0.188068
C156  C     C_R   0.364329 0.188335 0.142027 0.169051
C157  C     C_R   0.831915 0.208909 0.982479 0.187708
C158  C     C_R   0.136295 0.689253 0.858926 0.169602
C159  C     C_R   0.169653 0.203708 0.022860 0.183975
C160  C     C_R   0.863383 0.689087 0.142302 0.169812
C161  C     C_R   0.245381 0.668751 0.942491 0.069135
C162  C     C_R   0.723656 0.225058 0.900316 0.055057
C163  C     C_R   0.754119 0.669320 0.057595 0.069642
C164  C     C_R   0.277613 0.221510 0.103617 0.052566
C165  C     C_R   0.746104 0.169968 0.943169 0.069535
C166  C     C_R   0.223083 0.723738 0.899082 0.054933
C167  C     C_R   0.255377 0.166784 0.059160 0.070019
C168  C     C_R   0.776541 0.724436 0.100447 0.055049
C169  C     C_R   0.754400 0.266427 0.888177 -0.156310
C170  C     C_R   0.211616 0.623242 0.938667 -0.141286
C171  C     C_R   0.247000 0.261355 0.118160 -0.154394
C172  C     C_R   0.787803 0.623354 0.062520 -0.142433
C173  C     C_R   0.253798 0.764457 0.885906 -0.156962
C174  C     C_R   0.712444 0.123943 0.938364 -0.141918
C175  C     C_R   0.745782 0.765711 0.112583 -0.156409
C176  C     C_R   0.289199 0.121921 0.061760 -0.141721
C177  C     C_R   0.807387 0.257026 0.925683 -0.239197
C178  C     C_R   0.157474 0.632846 0.894507 -0.210163
C179  C     C_R   0.194179 0.251053 0.081323 -0.228210
C180  C     C_R   0.842020 0.632622 0.107246 -0.210169
C181  C     C_R   0.306681 0.754598 0.922949 -0.239093
C182  C     C_R   0.658240 0.133125 0.893814 -0.210380
C183  C     C_R   0.692820 0.756138 0.075187 -0.238962
C184  C     C_R   0.343309 0.131977 0.105691 -0.210203
H49   H     H_    0.829893 0.290369 0.916306 0.150462
H50   H     H_    0.132354 0.596484 0.889710 0.139332
H51   H     H_    0.171723 0.283262 0.092569 0.140995
H52   H     H_    0.867072 0.595928 0.112957 0.138888
H53   H     H_    0.329188 0.787458 0.912777 0.150335
H54   H     H_    0.633222 0.096397 0.888267 0.138876
H55   H     H_    0.670301 0.789386 0.084623 0.150238
H56   H     H_    0.368492 0.096087 0.109495 0.138996
H57   H     H_    0.676220 0.332648 0.865859 0.148355
H58   H     H_    0.306658 0.586261 0.069030 0.161003
H59   H     H_    0.323383 0.329942 0.137895 0.151325
H60   H     H_    0.692903 0.586727 0.931213 0.160620
H61   H     H_    0.176417 0.831728 0.864675 0.149564
H62   H     H_    0.807369 0.087160 0.069069 0.160282
H63   H     H_    0.823879 0.832125 0.134623 0.148383
H64   H     H_    0.193981 0.085187 0.930983 0.160968
H65   H     H_    0.519993 0.263200 0.734831 0.128981
H66   H     H_    0.452679 0.671939 0.151491 0.120300
H67   H     H_    0.480436 0.264086 0.263338 0.128636
H68   H     H_    0.546949 0.673126 0.846696 0.120380
H69   H     H_    0.019796 0.763777 0.736055 0.128856
H70   H     H_    0.953278 0.174138 0.154247 0.119925
H71   H     H_    0.980177 0.763038 0.266225 0.129190
H72   H     H_    0.047997 0.169682 0.851331 0.120150
H73   H     H_    0.409249 0.737417 0.023698 0.128090
H74   H     H_    0.555740 0.164233 0.803866 0.132010
H75   H     H_    0.590221 0.739206 0.973841 0.128148
H76   H     H_    0.445462 0.164977 0.193939 0.132057
H77   H     H_    0.910022 0.240409 0.027291 0.128407
H78   H     H_    0.055157 0.664785 0.805364 0.132084
H79   H     H_    0.091616 0.233681 0.980677 0.128457
H80   H     H_    0.944534 0.663933 0.197496 0.132032
H81   H     H_    0.738112 0.306234 0.848814 0.215423
H82   H     H_    0.225890 0.579081 0.965898 0.141078
H83   H     H_    0.263328 0.300629 0.158883 0.216685
H84   H     H_    0.773375 0.579110 0.035783 0.140115
H85   H     H_    0.237544 0.804087 0.846068 0.215518
H86   H     H_    0.726863 0.079715 0.965108 0.140259
H87   H     H_    0.762051 0.805556 0.151893 0.215449
H88   H     H_    0.274992 0.077919 0.033657 0.140958
N33   N     N_R   0.328907 0.580444 0.223849 0.203082
O1    O     O_R   0.299272 0.627542 0.188333 -0.450083
O2    O     O_R   0.311330 0.535335 0.246020 -0.396319
N34   N     N_R   0.655650 0.375973 0.724583 0.189579
O3    O     O_R   0.697199 0.407995 0.776662 -0.436181
O4    O     O_R   0.660065 0.325521 0.692955 -0.449269
N35   N     N_R   0.671064 0.580932 0.776218 0.203429
O5    O     O_R   0.700616 0.628091 0.812055 -0.449871
O6    O     O_R   0.688753 0.536113 0.753835 -0.395782
N36   N     N_R   0.344916 0.375216 0.277470 0.189988
O7    O     O_R   0.302721 0.405980 0.224525 -0.432543
O8    O     O_R   0.341605 0.325173 0.311260 -0.446993
N37   N     N_R   0.828989 0.081090 0.223863 0.203331
O9    O     O_R   0.799492 0.128267 0.188201 -0.450144
O10   O     O_R   0.811212 0.036127 0.245922 -0.395937
N38   N     N_R   0.155443 0.875697 0.723947 0.189620
O11   O     O_R   0.197283 0.907185 0.776416 -0.436472
O12   O     O_R   0.159384 0.825374 0.691501 -0.449519
N39   N     N_R   0.171160 0.080267 0.776006 0.202980
O13   O     O_R   0.200837 0.127343 0.811783 -0.442762
O14   O     O_R   0.188600 0.035440 0.753186 -0.396845
N40   N     N_R   0.844382 0.875812 0.275660 0.189606
O15   O     O_R   0.802821 0.907729 0.223469 -0.436137
O16   O     O_R   0.839979 0.825407 0.307470 -0.449256
C185  C     C_3   0.258786 0.792081 0.251426 -0.325493
C186  C     C_3   0.217760 0.827369 0.169888 -0.895190
H89   H     H_    0.177602 0.816916 0.153104 0.254719
H90   H     H_    0.225425 0.876372 0.180912 0.258779
H91   H     H_    0.219888 0.814199 0.112791 0.263267
H92   H     H_    0.297087 0.798975 0.258427 0.196682
H93   H     H_    0.248523 0.743654 0.238430 0.216755
C187  C     C_3   0.838463 0.360961 0.750825 -0.319267
C188  C     C_3   0.891691 0.345848 0.834185 -0.943310
H94   H     H_    0.896179 0.296506 0.844669 0.254069
H95   H     H_    0.924154 0.364331 0.829930 0.268056
H96   H     H_    0.894120 0.366259 0.892226 0.260256
H97   H     H_    0.833926 0.410558 0.749410 0.201655
H98   H     H_    0.807602 0.340135 0.757524 0.206856
C189  C     C_3   0.740860 0.792508 0.748481 -0.325370
C190  C     C_3   0.781863 0.827884 0.829979 -0.895322
H99   H     H_    0.822035 0.817443 0.846877 0.254692
H100  H     H_    0.774228 0.876876 0.818835 0.258765
H101  H     H_    0.779674 0.814781 0.887051 0.263251
H102  H     H_    0.702543 0.799371 0.741408 0.196677
H103  H     H_    0.751108 0.744096 0.761567 0.216793
C191  C     C_3   0.317757 0.369534 0.752301 -0.365730
C192  C     C_3   0.314370 0.358449 0.832439 -0.885094
H104  H     H_    0.277038 0.376571 0.820635 0.262750
H105  H     H_    0.317642 0.309750 0.847838 0.262908
H106  H     H_    0.347445 0.381683 0.890731 0.251932
H107  H     H_    0.354622 0.348742 0.765683 0.189438
H108  H     H_    0.320674 0.418932 0.747035 0.192862
C193  C     C_3   0.759109 0.292345 0.251725 -0.325289
C194  C     C_3   0.718103 0.327675 0.170220 -0.895441
H109  H     H_    0.677932 0.317158 0.153326 0.254753
H110  H     H_    0.725735 0.376677 0.181352 0.258737
H111  H     H_    0.720292 0.314605 0.113151 0.263248
H112  H     H_    0.797432 0.299317 0.258835 0.196658
H113  H     H_    0.748879 0.243916 0.238616 0.216805
C195  C     C_3   0.338575 0.861396 0.750583 -0.320134
C196  C     C_3   0.391801 0.846252 0.833914 -0.942096
H114  H     H_    0.396243 0.796911 0.844425 0.253756
H115  H     H_    0.424265 0.864661 0.829603 0.267569
H116  H     H_    0.394267 0.866715 0.891957 0.260529
H117  H     H_    0.334100 0.911005 0.749102 0.201852
H118  H     H_    0.307711 0.840677 0.757369 0.206529
C197  C     C_3   0.085209 0.287535 0.248656 -0.358353
C198  C     C_3   0.075241 0.321257 0.167232 -0.911047
H119  H     H_    0.072828 0.370372 0.175132 0.266774
H120  H     H_    0.106611 0.311329 0.155268 0.254667
H121  H     H_    0.037324 0.306199 0.108465 0.250980
H122  H     H_    0.088913 0.239020 0.238701 0.186824
H123  H     H_    0.049772 0.293676 0.251112 0.191906
C199  C     C_3   0.661272 0.861599 0.249355 -0.320395
C200  C     C_3   0.607992 0.846560 0.166026 -0.941446
H124  H     H_    0.603417 0.797230 0.155429 0.254034
H125  H     H_    0.575589 0.865027 0.170407 0.267471
H126  H     H_    0.605557 0.867036 0.107998 0.260216
H127  H     H_    0.665895 0.911196 0.250876 0.201606
H128  H     H_    0.692066 0.840786 0.242528 0.206867

loop_
_geom_bond_atom_site_label_1
_geom_bond_atom_site_label_2
_geom_bond_distance
_ccdc_geom_bond_type
N36   O8    1.301454 A    
C127  C159  1.396758 A    
N14   Ni8   1.842186 S    
C49   H25   1.074593 S    
C199  H127  1.111758 S    
C84   C87   1.398530 A    
C200  H126  1.110640 S    
C21   N21   1.338687 A    
C139  H60   1.075474 S    
C146  C162  1.409778 A    
C31   N31   1.347708 A    
C185  C186  1.530573 S    
C69   H37   1.082215 S    
C113  C137  1.395869 A    
C179  H51   1.084500 S    
C72   H40   1.080984 S    
C173  H85   1.074413 S    
C174  H86   1.079457 S    
C41   C60   1.471921 S    
C65   H33   1.082223 S    
N22   Ni3   1.862774 S    
C131  H68   1.082890 S    
C45   C64   1.472902 S    
C195  C196  1.530713 S    
C14   H14   1.074725 S    
C26   C36   1.397331 A    
C2    C34   1.390191 A    
C47   C62   1.471914 S    
C126  C134  1.405081 A    
C172  H84   1.079512 S    
C166  C173  1.412634 A    
C30   C40   1.397535 A    
C24   N24   1.342881 A    
N2    N28   1.386236 A    
C16   C48   1.376289 A    
C142  C150  1.390896 A    
C3    N3    1.333737 A    
N11   Ni6   1.843112 S    
C121  H73   1.084290 S    
C4    H4    1.080247 S    
C83   C91   1.419653 A    
C5    H5    1.081480 S    
C162  C165  1.412523 A    
C183  H55   1.084469 S    
C8    H8    1.080227 S    
C197  H123  1.111878 S    
C68   H36   1.081442 S    
C25   N25   1.347715 A    
C34   C116  1.473552 S    
C54   H30   1.076705 S    
C101  C105  1.407056 A    
C51   C59   1.401454 A    
N13   N21   1.382073 A    
C38   C120  1.471041 S    
C122  C154  1.409312 A    
C196  H116  1.110624 S    
C9    N9    1.337930 A    
C171  H83   1.074790 S    
C189  H102  1.111847 S    
N19   Ni1   1.863904 S    
C103  C107  1.407055 A    
C124  C132  1.405657 A    
C11   H11   1.067840 S    
C53   C93   1.397935 A    
C12   N12   1.331926 A    
C13   N13   1.338475 A    
N34   O3    1.300755 A    
C35   C113  1.466674 S    
C102  H46   1.081259 S    
C163  C172  1.417039 A    
C22   N22   1.342866 A    
C11   C43   1.386017 A    
C190  H99   1.110534 S    
C14   C46   1.376299 A    
C149  C157  1.423214 A    
C74   C98   1.397027 A    
N8    Ni3   1.863761 S    
C137  H58   1.075179 S    
C188  H96   1.110633 S    
C147  C155  1.423203 A    
C120  C144  1.388002 A    
C150  C166  1.409731 A    
C52   H28   1.076689 S    
C151  C167  1.420945 A    
C143  H64   1.075072 S    
C54   C94   1.403044 A    
C144  H63   1.079235 S    
C141  C149  1.401685 A    
C200  H124  1.110765 S    
C66   C74   1.389980 A    
C129  H66   1.082838 S    
C53   C61   1.403902 A    
C73   C81   1.410567 A    
C187  H97   1.111758 S    
C156  C184  1.398801 A    
C157  C177  1.387402 A    
C28   N36   1.423156 S    
N13   Ni7   1.842186 S    
C128  C160  1.409297 A    
C111  C197  1.528460 S    
C121  C129  1.385658 A    
C64   C72   1.400806 A    
C137  C145  1.402079 A    
C32   N32   1.334393 A    
C193  C194  1.530568 S    
C73   C97   1.399235 A    
C182  H54   1.083549 S    
C163  C168  1.412449 A    
N14   N22   1.382072 A    
C3    H3    1.081482 S    
C17   C41   1.388803 A    
C4    N4    1.347446 A    
N3    Ni2   1.863757 S    
C65   C73   1.395300 A    
N25   Ni6   1.842230 S    
C62   C70   1.396814 A    
C55   C95   1.397872 A    
C192  H104  1.110911 S    
C56   C96   1.402540 A    
C138  H57   1.079173 S    
C50   C90   1.403007 A    
C23   N23   1.338722 A    
C198  H119  1.110831 S    
C67   H35   1.080253 S    
N35   O6    1.300129 A    
C119  C135  1.402820 A    
N4    N26   1.386237 A    
C117  C141  1.395216 A    
C189  C190  1.530566 S    
C175  H87   1.074225 S    
C161  C170  1.417099 A    
N29   Ni8   1.842230 S    
C99   C111  1.404588 A    
C197  H122  1.111346 S    
C112  C199  1.529426 S    
C30   N38   1.423334 S    
C151  C159  1.423123 A    
C176  H88   1.079541 S    
N33   O2    1.300186 A    
C78   C102  1.397028 A    
C190  H101  1.110930 S    
C17   H17   1.075330 S    
C60   C68   1.396838 A    
N37   O10   1.300151 A    
C70   H38   1.081437 S    
C20   H20   1.080220 S    
C21   H21   1.075184 S    
N24   Ni4   1.863906 S    
C50   H26   1.076662 S    
C23   H23   1.075521 S    
C89   C106  1.423356 A    
C24   H24   1.080208 S    
C191  H108  1.111833 S    
C172  C180  1.399583 A    
C173  C181  1.381173 A    
C81   C86   1.398574 A    
C93   C110  1.423315 A    
C159  C179  1.387787 A    
C175  C183  1.381089 A    
C29   N29   1.347877 A    
C184  H56   1.083524 S    
N9    Ni5   1.842186 S    
C148  C164  1.409607 A    
N40   O16   1.301517 A    
C152  C168  1.409531 A    
C52   C92   1.402976 A    
C195  H117  1.111759 S    
C97   H41   1.081224 S    
N26   Ni5   1.842230 S    
C126  C158  1.409360 A    
C18   C42   1.383474 A    
C121  C153  1.396787 A    
N40   O15   1.300769 A    
C19   N19   1.338940 A    
C6    C38   1.388788 A    
C20   C44   1.385063 A    
C87   C95   1.416596 A    
N2    Ni2   1.862655 S    
C6    H6    1.080157 S    
C18   N18   1.341300 A    
C32   N40   1.423331 S    
C180  H52   1.083629 S    
C181  H53   1.084318 S    
C55   H31   1.074568 S    
C125  C157  1.396977 A    
C56   H32   1.076918 S    
C194  H111  1.110937 S    
C79   C103  1.399225 A    
C146  C154  1.409733 A    
C198  H121  1.110740 S    
C140  H59   1.078697 S    
C9    C41   1.385976 A    
C141  H62   1.075401 S    
C102  C106  1.403459 A    
C186  H90   1.110860 S    
C95   C112  1.423314 A    
C164  C167  1.412595 A    
C96   C111  1.421189 A    
N18   Ni1   1.862774 S    
C170  C178  1.399737 A    
C36   C114  1.471026 S    
C10   N10   1.334912 A    
C177  H49   1.084303 S    
C108  C191  1.527265 S    
C79   C87   1.410541 A    
C14   N14   1.331998 A    
C199  H128  1.111661 S    
N38   O11   1.300787 A    
C200  H125  1.110841 S    
C125  H77   1.084350 S    
C139  C147  1.401892 A    
C100  H44   1.081261 S    
C76   C100  1.397039 A    
C186  H91   1.110931 S    
C123  C131  1.385473 A    
C1    N1    1.333233 A    
C138  C146  1.390855 A    
C114  C130  1.403054 A    
C75   C99   1.399347 A    
N30   Ni7   1.842230 S    
N10   Ni6   1.842186 S    
C80   C88   1.406820 A    
C118  C134  1.403260 A    
C7    N7    1.333306 A    
C142  H61   1.078972 S    
C7    H7    1.081432 S    
C8    N8    1.347564 A    
C153  C181  1.387547 A    
C192  H106  1.110600 S    
C67   C75   1.387950 A    
C193  H113  1.111426 S    
C49   C57   1.403966 A    
C187  C188  1.530809 S    
N11   N19   1.382072 A    
C103  H47   1.081228 S    
C126  H78   1.083292 S    
C158  C178  1.398303 A    
C169  H81   1.074196 S    
C9    H9    1.067743 S    
C37   C119  1.467898 S    
N23   Ni3   1.863904 S    
C110  C195  1.529414 S    
C28   N28   1.334593 A    
N5    N31   1.386234 A    
C145  C161  1.420408 A    
C197  C198  1.530676 S    
C114  C138  1.388050 A    
C116  C132  1.403607 A    
C149  C165  1.420127 A    
C63   C71   1.398093 A    
C196  H115  1.110825 S    
N31   Ni7   1.843119 S    
C6    N6    1.347399 A    
C3    C35   1.373023 A    
C44   C57   1.472669 S    
C194  H109  1.110536 S    
C125  C133  1.385636 A    
C91   C108  1.421462 A    
C48   C61   1.472663 S    
C21   C45   1.388779 A    
C190  H100  1.110864 S    
N6    N32   1.386236 A    
C188  H95   1.110816 S    
C162  C169  1.412775 A    
N12   Ni5   1.843115 S    
N36   O7    1.300845 A    
C161  C166  1.412635 A    
C176  C184  1.400440 A    
C15   N15   1.337968 A    
C16   N16   1.332097 A    
C26   N26   1.334267 A    
C187  H98   1.111640 S    
C18   H18   1.080047 S    
C123  C155  1.396663 A    
C1    H1    1.081476 S    
C24   C48   1.384856 A    
C22   H22   1.080211 S    
C90   C105  1.422429 A    
C123  H75   1.084342 S    
C5    N5    1.334058 A    
C107  C189  1.528200 S    
N39   O13   1.301408 A    
C122  H74   1.083300 S    
C101  H45   1.081224 S    
C174  C182  1.399454 A    
C82   C85   1.398580 A    
C97   C109  1.407084 A    
C94   C109  1.422419 A    
C5    C37   1.373871 A    
C99   H43   1.081313 S    
C135  H72   1.082769 S    
C150  C158  1.409468 A    
C136  H71   1.082713 S    
C169  C177  1.381184 A    
C71   H39   1.082212 S    
C17   N17   1.338886 A    
C43   C58   1.471966 S    
C98   C110  1.403504 A    
C132  H67   1.082629 S    
N5    Ni3   1.862655 S    
C133  H70   1.083018 S    
C120  C136  1.403195 A    
N16   N24   1.382073 A    
C32   C38   1.397410 A    
C127  H79   1.084289 S    
C198  H120  1.110809 S    
N4    Ni1   1.863761 S    
C86   C94   1.417123 A    
C59   C67   1.401504 A    
C77   C101  1.399209 A    
C22   C46   1.384915 A    
C57   C65   1.398069 A    
C124  H76   1.083280 S    
C128  H80   1.083338 S    
C56   C64   1.400741 A    
C68   C76   1.389946 A    
C69   C77   1.395248 A    
C105  C185  1.528227 S    
C78   C86   1.409284 A    
C199  C200  1.530725 S    
C26   N34   1.423342 S    
C72   C80   1.391074 A    
C27   N27   1.348118 A    
N33   O1    1.301465 A    
C178  H50   1.083538 S    
N6    Ni4   1.862655 S    
N7    Ni4   1.863757 S    
C134  H69   1.082664 S    
C100  C112  1.403491 A    
C31   N39   1.431172 S    
N37   O9    1.301443 A    
C155  C183  1.387426 A    
C171  C179  1.381327 A    
C130  H65   1.082686 S    
N35   O5    1.301435 A    
N32   Ni8   1.843122 S    
C11   N11   1.337755 A    
C104  C108  1.406533 A    
C167  C176  1.417122 A    
C12   H12   1.074715 S    
C30   N30   1.334551 A    
C168  C175  1.412781 A    
C13   H13   1.068085 S    
C152  C160  1.409705 A    
C84   C92   1.417092 A    
C85   C93   1.416622 A    
C164  C171  1.412289 A    
C28   C34   1.397684 A    
C4    C36   1.388944 A    
C165  C174  1.417120 A    
C39   C117  1.465540 S    
C88   C96   1.419510 A    
C118  C142  1.388349 A    
C8    C40   1.389319 A    
C147  C163  1.419943 A    
C76   C84   1.409280 A    
C128  C136  1.404899 A    
C77   C85   1.410537 A    
C75   C83   1.405699 A    
C195  H118  1.111634 S    
C80   C104  1.399348 A    
C154  C182  1.398104 A    
C74   C82   1.409276 A    
C31   C37   1.400108 A    
C53   H29   1.074587 S    
C70   C78   1.389931 A    
N15   Ni8   1.843112 S    
C23   C47   1.388849 A    
C143  C151  1.402519 A    
C115  C139  1.395470 A    
C170  H82   1.079470 S    
C10   H10   1.074869 S    
C52   C60   1.403659 A    
C82   C90   1.417101 A    
N27   Ni5   1.843119 S    
C116  C140  1.388842 A    
C20   N20   1.342965 A    
C81   C89   1.416630 A    
C12   C44   1.376259 A    
N20   Ni2   1.863906 S    
N21   Ni4   1.862772 S    
C19   C43   1.389013 A    
C42   C59   1.473465 S    
C109  C193  1.528232 S    
C13   C45   1.387034 A    
C25   C35   1.400217 A    
N38   O12   1.301450 A    
C46   C63   1.472656 S    
C27   C33   1.400383 A    
N9    N17   1.382073 A    
C29   C39   1.400443 A    
N28   Ni6   1.843122 S    
N1    N27   1.386234 A    
C15   C47   1.386182 A    
C25   N33   1.431261 S    
N1    Ni1   1.862655 S    
C40   C118  1.471947 S    
N15   N23   1.382072 A    
C98   H42   1.081255 S    
C191  H107  1.111277 S    
C192  H105  1.110616 S    
N39   O14   1.300131 A    
C185  H93   1.111426 S    
C193  H112  1.111843 S    
C10   C42   1.377587 A    
C145  C153  1.423111 A    
C33   C115  1.465893 S    
N34   O4    1.301440 A    
N12   N20   1.382073 A    
C19   H19   1.075278 S    
C2    H2    1.080195 S    
N17   Ni2   1.862772 S    
N10   N18   1.382072 A    
C61   C69   1.398079 A    
C1    C33   1.372225 A    
C51   C91   1.405968 A    
C29   N37   1.431379 S    
C185  H92   1.111840 S    
C49   C89   1.397869 A    
C2    N2    1.348098 A    
C127  C135  1.385612 A    
C27   N35   1.431376 S    
C66   H34   1.081439 S    
C160  C180  1.398225 A    
C7    C39   1.372166 A    
C92   C107  1.422394 A    
C122  C130  1.404858 A    
C115  C131  1.402765 A    
C148  C156  1.408952 A    
C83   C88   1.398879 A    
C113  C129  1.402730 A    
C124  C156  1.409583 A    
N3    N25   1.386239 A    
C196  H114  1.110785 S    
C119  C143  1.396845 A    
N8    N30   1.386237 A    
C117  C133  1.402753 A    
C71   C79   1.395239 A    
C15   H15   1.067708 S    
C16   H16   1.074774 S    
C191  C192  1.530901 S    
C104  H48   1.081286 S    
C194  H110  1.110859 S    
C140  C148  1.390905 A    
C106  C187  1.529486 S    
C50   C58   1.403684 A    
N16   Ni7   1.843115 S    
C186  H89   1.110535 S    
N7    N29   1.386239 A    
C144  C152  1.390809 A    
C54   C62   1.403653 A    
C188  H94   1.110786 S    
C58   C66   1.396836 A    
C51   H27   1.078108 S    
C189  H103  1.111428 S    
C55   C63   1.403917 A    
