data_mof_unit_21167.cif
_audit_creation_date              2012-12-10T20:00:01-0500
_audit_creation_method            fapswitch 2.2
_symmetry_space_group_name_H-M    P1
_symmetry_Int_Tables_number       1
_space_group_crystal_system       triclinic
_cell_length_a                    15.059755
_cell_length_b                    14.170641
_cell_length_c                    8.900268
_cell_angle_alpha                 89.985511
_cell_angle_beta                  90.080456
_cell_angle_gamma                 90.019056
_cell_volume                      1899.37195143

loop_
_atom_site_label
_atom_site_type_symbol
_atom_type_description
_atom_site_fract_x
_atom_site_fract_y
_atom_site_fract_z
_atom_type_partial_charge
C1    C     C_R   0.327558 0.500046 0.501208 1.018075
C2    C     C_R   0.479621 0.894867 0.369229 -0.292955
C3    C     C_R   0.499973 0.500010 0.218556 0.934382
C4    C     C_R   0.500038 0.499996 0.781444 0.935295
C5    C     C_R   0.500001 0.053494 0.499967 0.145649
C6    C     C_R   0.499970 0.946754 0.499994 0.139525
C7    C     C_1   0.499998 0.500024 0.065377 -0.187863
C8    C     C_1   0.500023 0.500003 0.934620 -0.186345
C9    C     C_R   0.091653 0.577596 0.454405 0.431112
C10   C     C_R   0.908550 0.427441 0.445517 0.432026
C11   C     C_R   0.904569 0.572748 0.594498 0.438834
C12   C     C_R   0.672341 0.500071 0.501130 1.026318
C13   C     C_R   0.094511 0.426798 0.588835 0.437592
C14   C     C_R   0.184032 0.579564 0.454228 0.317761
C15   C     C_R   0.816168 0.424392 0.445359 0.319471
C16   C     C_R   0.812704 0.576046 0.578770 0.320588
C17   C     C_R   0.186308 0.422972 0.572581 0.325418
C18   C     C_R   0.231326 0.500530 0.508411 -0.432850
C19   C     C_R   0.768410 0.500355 0.507802 -0.430849
C20   C     C_R   0.047685 0.502335 0.524806 -0.152167
C21   C     C_R   0.951959 0.500146 0.523660 -0.152528
C22   C     C_3   0.027903 0.635923 0.241285 -0.309752
C23   C     C_R   0.445255 0.204590 0.404876 0.023645
C24   C     C_3   0.972247 0.378746 0.226674 -0.317790
C25   C     C_3   0.961510 0.621619 0.818816 -0.307358
C26   C     C_3   0.036661 0.370484 0.807746 -0.308377
C27   C     C_3   0.229240 0.731603 0.486146 -0.169571
C28   C     C_3   0.774397 0.270137 0.459839 -0.169279
C29   C     C_3   0.770158 0.729401 0.553920 -0.168755
C30   C     C_3   0.226135 0.270064 0.533242 -0.169831
C31   C     C_R   0.520301 0.795644 0.628161 0.006103
C32   C     C_R   0.554795 0.204588 0.595032 0.022097
C33   C     C_R   0.479616 0.795660 0.371866 0.012676
C34   C     C_R   0.443746 0.105390 0.403717 -0.293521
C35   C     C_R   0.520291 0.894850 0.630782 -0.294738
C36   C     C_R   0.556288 0.105386 0.596184 -0.292259
H1    H     H_    0.402037 0.243468 0.330032 0.118570
H2    H     H_    0.993026 0.313876 0.166586 0.186457
H3    H     H_    0.020668 0.575523 0.830144 0.139987
H4    H     H_    0.902144 0.587948 0.871018 0.156332
H5    H     H_    0.975461 0.687119 0.882825 0.186594
H6    H     H_    0.096068 0.401878 0.863550 0.155910
H7    H     H_    0.022184 0.302912 0.865656 0.188307
H8    H     H_    0.977716 0.416474 0.822429 0.140746
H9    H     H_    0.273210 0.786875 0.438679 0.164492
H10   H     H_    0.162155 0.763067 0.499279 0.192472
H11   H     H_    0.256576 0.711813 0.598184 0.143157
H12   H     H_    0.536510 0.757260 0.729500 0.146530
H13   H     H_    0.727331 0.218113 0.411430 0.167065
H14   H     H_    0.841283 0.237215 0.459503 0.196110
H15   H     H_    0.753022 0.284270 0.577504 0.126567
H16   H     H_    0.724151 0.783401 0.599349 0.161958
H17   H     H_    0.837884 0.760467 0.554371 0.194889
H18   H     H_    0.749044 0.714109 0.436405 0.143891
H19   H     H_    0.272228 0.214097 0.572132 0.166622
H20   H     H_    0.158203 0.239554 0.533237 0.197234
H21   H     H_    0.245678 0.289509 0.416596 0.126261
H22   H     H_    0.397764 0.070027 0.329130 0.133870
H23   H     H_    0.598005 0.243464 0.669896 0.118818
H24   H     H_    0.534963 0.930228 0.735599 0.138511
H25   H     H_    0.602262 0.070017 0.670767 0.133569
H26   H     H_    0.464946 0.930259 0.264406 0.138069
H27   H     H_    0.463408 0.757288 0.270536 0.144371
H28   H     H_    0.971639 0.585997 0.228146 0.136871
H29   H     H_    0.087531 0.609914 0.179889 0.163857
H30   H     H_    0.007718 0.703364 0.188025 0.187701
H31   H     H_    0.027893 0.429829 0.218485 0.138025
H32   H     H_    0.912124 0.406407 0.168262 0.165361
N1    N     N_R   0.500000 0.252470 0.500000 -0.085088
N2    N     N_R   0.500000 0.747530 0.500000 -0.094734
O1    O     O_R   0.369060 0.579480 0.500010 -0.592047
O2    O     O_3   0.956128 0.355328 0.378136 -0.555846
O3    O     O_3   0.948119 0.645900 0.666901 -0.551479
O4    O     O_3   0.050342 0.351504 0.654101 -0.553364
O5    O     O_3   0.227771 0.654212 0.386187 -0.575010
O6    O     O_3   0.772555 0.352358 0.370167 -0.572212
O7    O     O_3   0.765557 0.648455 0.646235 -0.574807
O8    O     O_3   0.232675 0.347429 0.632661 -0.566359
O9    O     O_R   0.630940 0.420520 0.499990 -0.599698
O10   O     O_R   0.630940 0.579480 0.499990 -0.594795
O11   O     O_R   0.369060 0.420520 0.500010 -0.597129
O12   O     O_R   0.500000 0.579460 0.285340 -0.635879
O13   O     O_R   0.500000 0.420540 0.714660 -0.620355
O14   O     O_R   0.500000 0.579460 0.714660 -0.635096
O15   O     O_R   0.500000 0.420540 0.285340 -0.620984
O16   O     O_3   0.044737 0.652920 0.394751 -0.553352
Zn1   Zn    Zn3+2 0.500000 0.606140 0.500000 0.958514
Zn2   Zn    Zn3+2 0.500000 0.393860 0.500000 0.970766

loop_
_geom_bond_atom_site_label_1
_geom_bond_atom_site_label_2
_ccdc_geom_bond_type
C30   H21   S    
C3    O15   A    
C23   N1    A    
O14   Zn1   S    
C4    C8    S    
C26   H8    S    
C7    C8    T    
C15   C19   A    
C24   O2    S    
C1    C18   S    
C1    O1    A    
C32   C36   A    
O10   Zn1   S    
C3    C7    S    
C10   C15   A    
C25   H4    S    
C5    C6    S    
C28   H15   S    
C29   H18   S    
C1    O11   A    
O12   Zn1   S    
C5    C36   A    
C6    C35   A    
C16   O7    S    
C28   H13   S    
C14   C18   A    
C22   H30   S    
C24   H31   S    
C28   H14   S    
C31   N2    A    
C24   H2    S    
C27   H9    S    
O13   Zn2   S    
C2    C6    A    
C27   O5    S    
N2    Zn1   S    
O9    Zn2   S    
C26   H7    S    
C10   C21   A    
C11   O3    S    
C25   H5    S    
C23   H1    S    
C30   H20   S    
C11   C21   A    
C35   H24   S    
C9    C14   A    
C22   H29   S    
C9    O16   S    
C11   C16   A    
C9    C20   A    
C4    O14   A    
C33   H27   S    
C23   C34   A    
C5    C34   A    
C3    O12   A    
C17   C18   A    
C13   O4    S    
N1    Zn2   S    
C33   N2    A    
O1    Zn1   S    
C2    C33   A    
C31   H12   S    
C31   C35   A    
C36   H25   S    
C28   O6    S    
C27   H10   S    
O15   Zn2   S    
C27   H11   S    
C13   C20   A    
C32   N1    A    
C30   H19   S    
C13   C17   A    
C14   O5    S    
C25   H3    S    
C4    O13   A    
C29   H17   S    
C16   C19   A    
C12   O10   A    
C12   C19   S    
C17   O8    S    
C26   O4    S    
C15   O6    S    
C25   O3    S    
C22   O16   S    
C26   H6    S    
O11   Zn2   S    
C24   H32   S    
C22   H28   S    
C30   O8    S    
C29   O7    S    
C20   C21   S    
C34   H22   S    
C32   H23   S    
C2    H26   S    
C12   O9    A    
C29   H16   S    
C10   O2    S    
