data_mof_unit_44390.cif
_audit_creation_date              2012-12-10T18:25:43-0500
_audit_creation_method            fapswitch 2.2
_symmetry_space_group_name_H-M    P1
_symmetry_Int_Tables_number       1
_space_group_crystal_system       triclinic
_cell_length_a                    23.548484
_cell_length_b                    15.861823
_cell_length_c                    14.645491
_cell_angle_alpha                 89.575165
_cell_angle_beta                  90.302518
_cell_angle_gamma                 90.238225
_cell_volume                      5470.13838008

loop_
_atom_site_label
_atom_site_type_symbol
_atom_type_description
_atom_site_fract_x
_atom_site_fract_y
_atom_site_fract_z
_atom_type_partial_charge
C1    C     C_R   0.499846 0.339476 0.500316 0.836121
C2    C     C_R   0.499909 0.660516 0.499684 0.840166
C3    C     C_R   0.240436 0.558422 0.556923 -0.230254
C4    C     C_R   0.761373 0.455594 0.566092 -0.219026
C5    C     C_R   0.300415 0.558345 0.557520 0.354499
C6    C     C_R   0.701601 0.455453 0.568179 0.357870
C7    C     C_R   0.328803 0.501997 0.499581 -0.190462
C8    C     C_R   0.671643 0.500422 0.500045 -0.209469
C9    C     C_R   0.298376 0.447367 0.441893 0.320198
C10   C     C_R   0.700964 0.544997 0.431112 0.347455
C11   C     C_R   0.239055 0.449462 0.441673 -0.193972
C12   C     C_R   0.760541 0.545341 0.431728 -0.210493
C13   C     C_R   0.209773 0.504394 0.499126 0.246561
C14   C     C_R   0.790942 0.500720 0.498674 0.240198
C15   C     C_3   0.547237 0.971495 0.540466 -0.304352
C16   C     C_3   0.450920 0.028308 0.459312 -0.279010
C17   C     C_3   0.545312 0.029377 0.454356 -0.315007
C18   C     C_3   0.452956 0.970512 0.545384 -0.290517
C19   C     C_1   0.499464 0.249858 0.501154 -0.154480
C20   C     C_1   0.499614 0.750118 0.498849 -0.151495
C21   C     C_3   0.501004 0.025627 0.585079 0.553479
C22   C     C_3   0.497122 0.974232 0.414329 0.563488
C23   C     C_R   0.390969 0.499965 0.499844 0.911309
C24   C     C_R   0.609182 0.500188 0.500109 0.896619
C25   C     C_3   0.499050 0.082810 0.500723 0.063477
C26   C     C_3   0.499080 0.917155 0.499039 0.062245
C27   C     C_1   0.499170 0.174360 0.501531 0.002530
C28   C     C_1   0.499347 0.825607 0.498432 0.008140
C29   C     C_3   0.484536 0.575462 0.968248 0.114085
C30   C     C_3   0.514850 0.425973 0.031807 0.080635
C31   C     C_3   0.447819 0.518254 0.029157 0.500075
C32   C     C_3   0.551674 0.483412 0.970982 0.511182
C33   C     C_3   0.536870 0.560900 0.030770 -0.367299
C34   C     C_3   0.462545 0.440700 0.969113 -0.405594
C35   C     C_3   0.499616 0.501958 0.092171 -0.064011
C36   C     C_3   0.499914 0.499703 0.907820 -0.055553
C37   C     C_1   0.499702 0.500861 0.194399 0.192549
C38   C     C_1   0.500085 0.499917 0.805601 0.195602
C39   C     C_R   0.880856 0.576961 0.496176 0.540406
C40   C     C_R   0.119825 0.429437 0.512675 0.539606
C41   C     C_R   0.881121 0.426316 0.500724 0.538806
C42   C     C_R   0.119649 0.578477 0.487506 0.540375
C43   C     C_R   0.940648 0.425563 0.504276 -0.019712
C44   C     C_R   0.060100 0.579761 0.490044 -0.020277
C45   C     C_R   0.970398 0.502540 0.499090 -0.017635
C46   C     C_R   0.030326 0.503133 0.499567 -0.017567
C47   C     C_R   0.940389 0.578915 0.493426 -0.020393
C48   C     C_R   0.060312 0.427082 0.509582 -0.020721
C49   C     C_R   0.971006 0.349801 0.512580 -0.167374
C50   C     C_R   0.029728 0.655601 0.482758 -0.166243
C51   C     C_R   0.030203 0.350653 0.516489 -0.165292
C52   C     C_R   0.970511 0.655279 0.485675 -0.166203
Cu1   Cu    Cu3+1 0.500010 0.500000 0.590220 1.015587
Cu2   Cu    Cu3+1 0.499990 0.500000 0.409780 1.002294
H1    H     H_    0.949149 0.289713 0.517127 0.186909
H2    H     H_    0.051589 0.715492 0.475751 0.187335
H3    H     H_    0.433457 0.390254 0.944961 0.157661
H4    H     H_    0.567007 0.610217 0.054378 0.155032
H5    H     H_    0.052258 0.291185 0.523845 0.187853
H6    H     H_    0.948451 0.714937 0.480828 0.187190
H7    H     H_    0.216927 0.600452 0.600313 0.155157
H8    H     H_    0.785316 0.419981 0.616252 0.162910
H9    H     H_    0.215570 0.406331 0.398564 0.172189
H10   H     H_    0.783362 0.581200 0.380451 0.170239
H11   H     H_    0.583117 0.055772 0.419207 0.152970
H12   H     H_    0.415775 0.944730 0.582685 0.153803
H13   H     H_    0.585929 0.946878 0.574920 0.157446
H14   H     H_    0.411949 0.052784 0.425582 0.157151
N1    N     N_R   0.852211 0.501345 0.498383 -0.439753
N2    N     N_R   0.148510 0.504164 0.499929 -0.441454
N3    N     N_1   0.499980 0.500000 0.274190 -0.163571
N4    N     N_1   0.500020 0.500000 0.725810 -0.160897
O1    O     O_R   0.500010 0.379080 0.576170 -0.562589
O2    O     O_R   0.499990 0.620920 0.423830 -0.560702
O3    O     O_R   0.500000 0.379080 0.423800 -0.585072
O4    O     O_R   0.500000 0.620920 0.576200 -0.580483
O5    O     O_R   0.417890 0.499980 0.576200 -0.555278
O6    O     O_R   0.582110 0.500020 0.423800 -0.562464
O7    O     O_R   0.417870 0.499970 0.423830 -0.580653
O8    O     O_R   0.582130 0.500030 0.576170 -0.553041
O9    O     O_2   0.851923 0.650192 0.497777 -0.547340
O10   O     O_2   0.148731 0.357600 0.529278 -0.541341
O11   O     O_2   0.852438 0.352511 0.498630 -0.550801
O12   O     O_2   0.148378 0.650853 0.471604 -0.547401
O13   O     O_3   0.394562 0.542295 0.064049 -0.615493
C53   C     C_3   0.351517 0.524587 0.999646 0.047901
H15   H     H_    0.347726 0.455345 0.989470 0.146450
H16   H     H_    0.360519 0.556159 0.933017 0.166139
C54   C     C_3   0.294938 0.556633 0.035893 -0.320023
H17   H     H_    0.287704 0.530402 0.105523 0.225574
H18   H     H_    0.296434 0.626525 0.040475 0.227556
C55   C     C_3   0.245577 0.530477 0.974178 -0.927762
H19   H     H_    0.252138 0.554125 0.903465 0.250181
H20   H     H_    0.205433 0.557144 0.000667 0.264591
H21   H     H_    0.241583 0.460684 0.972990 0.259951
O14   O     O_3   0.606309 0.466519 0.936584 -0.631971
C56   C     C_3   0.643061 0.441717 0.008368 0.069377
H22   H     H_    0.638503 0.372698 0.019952 0.179896
H23   H     H_    0.634393 0.475231 0.073546 0.135431
C57   C     C_3   0.704302 0.460836 0.981142 -0.356413
H24   H     H_    0.713380 0.431734 0.914289 0.214250
H25   H     H_    0.710140 0.530085 0.973859 0.226253
C58   C     C_3   0.746284 0.426670 0.051865 -0.919191
H26   H     H_    0.737292 0.453039 0.120256 0.252241
H27   H     H_    0.790172 0.444615 0.032065 0.260925
H28   H     H_    0.743392 0.356812 0.055586 0.260716
N5    N     N_3   0.466306 0.657182 0.933261 -0.602017
H29   H     H_    0.459732 0.696129 0.989422 0.239706
H30   H     H_    0.500219 0.683044 0.896671 0.217324
N6    N     N_3   0.531713 0.343771 0.067293 -0.615023
H31   H     H_    0.535860 0.303613 0.011504 0.226740
H32   H     H_    0.497970 0.320536 0.106234 0.228947
O15   O     O_3   0.333655 0.615784 0.606353 -0.599125
C59   C     C_3   0.307994 0.645401 0.686810 0.058351
H33   H     H_    0.287510 0.593065 0.725996 0.128781
H34   H     H_    0.276257 0.694690 0.668984 0.160586
C60   C     C_3   0.354080 0.684993 0.746996 -0.300021
H35   H     H_    0.383856 0.635092 0.770697 0.229701
H36   H     H_    0.378586 0.732072 0.706441 0.229410
C61   C     C_3   0.328808 0.728849 0.829678 -0.927349
H37   H     H_    0.301467 0.782103 0.807301 0.259898
H38   H     H_    0.363521 0.754003 0.873364 0.273185
H39   H     H_    0.303177 0.683847 0.870701 0.258447
O16   O     O_3   0.670921 0.403801 0.627535 -0.575315
C62   C     C_3   0.691563 0.405274 0.718520 0.104545
H40   H     H_    0.655360 0.419951 0.763991 0.199405
H41   H     H_    0.723764 0.455350 0.732316 0.077744
C63   C     C_3   0.715265 0.318532 0.744848 -0.388762
H42   H     H_    0.747587 0.299004 0.694343 0.231933
H43   H     H_    0.736460 0.322263 0.812600 0.173901
C64   C     C_3   0.668467 0.251665 0.749404 -0.717434
H44   H     H_    0.636367 0.268965 0.801271 0.238673
H45   H     H_    0.687202 0.189972 0.769010 0.222540
H46   H     H_    0.647300 0.245021 0.681859 0.281058
O17   O     O_3   0.326541 0.382779 0.398325 -0.600374
C65   C     C_3   0.325557 0.396247 0.303021 0.082779
H47   H     H_    0.346273 0.457485 0.285258 0.170130
H48   H     H_    0.281245 0.395884 0.276099 0.126458
C66   C     C_3   0.358269 0.324676 0.258076 -0.302382
H49   H     H_    0.401868 0.321472 0.287450 0.233604
H50   H     H_    0.336401 0.263810 0.272494 0.222697
C67   C     C_3   0.362485 0.337247 0.155100 -0.949804
H51   H     H_    0.319622 0.345010 0.124213 0.260514
H52   H     H_    0.383133 0.281679 0.124086 0.248776
H53   H     H_    0.388733 0.393671 0.140079 0.285772
O18   O     O_3   0.670628 0.596900 0.371835 -0.590823
C68   C     C_3   0.683654 0.581498 0.279134 0.081336
H54   H     H_    0.644247 0.558905 0.244905 0.163061
H55   H     H_    0.716459 0.532106 0.268030 0.112203
C69   C     C_3   0.702262 0.664310 0.234073 -0.328446
H56   H     H_    0.668352 0.712135 0.242589 0.234187
H57   H     H_    0.741450 0.687912 0.268087 0.226116
C70   C     C_3   0.713749 0.653359 0.132506 -0.941900
H58   H     H_    0.749399 0.608880 0.122441 0.267162
H59   H     H_    0.725565 0.715136 0.101785 0.264476
H60   H     H_    0.675167 0.629358 0.097187 0.252728
O19   O     O_3   0.491739 0.939154 0.326166 -0.606045
C71   C     C_3   0.512540 0.994647 0.257986 0.064596
H61   H     H_    0.517414 0.957041 0.194832 0.175134
H62   H     H_    0.555643 0.019213 0.274286 0.124854
C72   C     C_3   0.471021 0.066890 0.237579 -0.371294
H63   H     H_    0.427610 0.040814 0.227130 0.235205
H64   H     H_    0.470129 0.111107 0.295925 0.211339
C73   C     C_3   0.488553 0.116394 0.152460 -0.913344
H65   H     H_    0.531598 0.144002 0.161926 0.261145
H66   H     H_    0.458003 0.168361 0.140014 0.252346
H67   H     H_    0.488527 0.074736 0.091816 0.256580
O20   O     O_3   0.503373 0.058060 0.674517 -0.605470
C74   C     C_3   0.503621 0.991743 0.739795 0.044290
H68   H     H_    0.538741 0.004102 0.788913 0.163470
H69   H     H_    0.511555 0.927969 0.710797 0.127474
C75   C     C_3   0.447472 0.990854 0.791895 -0.326882
H70   H     H_    0.441947 0.052175 0.826949 0.229065
H71   H     H_    0.411596 0.982406 0.743263 0.216865
C76   C     C_3   0.445874 0.919707 0.862632 -0.931337
H72   H     H_    0.450156 0.857619 0.828759 0.260150
H73   H     H_    0.404724 0.920872 0.899261 0.263064
H74   H     H_    0.480791 0.927567 0.913195 0.253968

loop_
_geom_bond_atom_site_label_1
_geom_bond_atom_site_label_2
_ccdc_geom_bond_type
C7    C9    A    
O19   C71   S    
C31   O13   S    
C4    H8    S    
C18   C21   S    
C74   H69   S    
C74   H68   S    
C68   H54   S    
C18   C26   S    
C6    O16   S    
C64   H46   S    
C63   H42   S    
C72   C73   S    
C72   H63   S    
O17   C65   S    
C76   H73   S    
Cu1   Cu2   S    
C61   H37   S    
C29   C36   S    
C33   H4    S    
C21   O20   S    
C40   N2    A    
C30   C35   S    
C30   N6    S    
C32   C36   S    
C41   N1    A    
C73   H65   S    
C68   H55   S    
O15   C59   S    
C11   H9    S    
C60   H36   S    
C12   H10   S    
C66   C67   S    
C53   H16   S    
C11   C13   A    
C13   N2    S    
C41   O11   S    
C29   C33   S    
C42   N2    A    
C40   C48   A    
N6    H31   S    
C55   H19   S    
C52   H6    S    
C71   C72   S    
C56   H23   S    
Cu2   O2    S    
C24   O8    A    
C48   C51   A    
Cu2   N3    S    
C61   H38   S    
C75   H71   S    
C49   C51   A    
C69   C70   S    
C62   C63   S    
C50   C52   A    
N5    H29   S    
C16   H14   S    
C70   H59   S    
C19   C27   T    
C3    C13   A    
C61   H39   S    
C5    O15   S    
C45   C47   A    
C71   H62   S    
C41   C43   A    
C67   H53   S    
C42   C44   A    
C65   C66   S    
C57   H25   S    
C72   H64   S    
C44   C46   A    
C56   H22   S    
C76   H74   S    
C46   C48   A    
C3    H7    S    
C38   N4    T    
C1    C19   S    
C30   C34   S    
C2    C20   S    
C1    O3    A    
C40   O10   S    
Cu1   O8    S    
C42   O12   S    
C39   O9    S    
C4    C6    A    
C60   C61   S    
C5    C7    A    
C53   H15   S    
C43   C49   A    
C15   C26   S    
C6    C8    A    
C20   C28   T    
C3    C5    A    
O13   C53   S    
C57   C58   S    
C50   H2    S    
C63   H43   S    
C70   H60   S    
Cu1   O5    S    
N5    H30   S    
C34   H3    S    
C43   C45   A    
C76   H72   S    
C15   H13   S    
O14   C56   S    
C68   C69   S    
C55   H20   S    
C39   N1    A    
C31   C34   S    
C58   H27   S    
C16   C18   S    
C23   O5    A    
C54   C55   S    
C9    C11   A    
O18   C68   S    
C10   C12   A    
C10   O18   S    
C9    O17   S    
C24   O6    A    
O20   C74   S    
C32   O14   S    
C12   C14   A    
C37   N3    T    
C62   H40   S    
C14   N1    S    
C69   H57   S    
Cu1   O4    S    
C54   H18   S    
C64   H44   S    
C63   C64   S    
C56   C57   S    
C2    O4    A    
C75   H70   S    
C65   H48   S    
C39   C47   A    
Cu2   O7    S    
C44   C50   A    
C16   C25   S    
C15   C17   S    
C21   C25   S    
C16   C22   S    
C35   C37   S    
C69   H56   S    
C17   H11   S    
C73   H67   S    
Cu1   O1    S    
C65   H47   S    
C64   H45   S    
C53   C54   S    
C2    O2    A    
C59   H34   S    
C66   H49   S    
C75   C76   S    
C59   H33   S    
C47   C52   A    
C22   O19   S    
C18   H12   S    
C26   C28   S    
C17   C22   S    
C1    O1    A    
C32   C33   S    
C73   H66   S    
C70   H58   S    
C17   C25   S    
C29   C31   S    
C49   H1    S    
C60   H35   S    
C30   C32   S    
C66   H50   S    
C33   C35   S    
C71   H61   S    
C7    C23   S    
C31   C35   S    
C36   C38   S    
C57   H24   S    
C8    C24   S    
C58   H28   S    
C34   C36   S    
C55   H21   S    
C4    C14   A    
N6    H32   S    
C59   C60   S    
Cu2   O3    S    
C45   C46   A    
C15   C21   S    
C51   H5    S    
C8    C10   A    
C22   C26   S    
C58   H26   S    
C62   H41   S    
C67   H51   S    
C29   N5    S    
C74   C75   S    
C23   O7    A    
C54   H17   S    
Cu1   N4    S    
C67   H52   S    
O16   C62   S    
Cu2   O6    S    
C25   C27   S    
