data_mof_unit_60322.cif
_audit_creation_date              2012-12-10T19:38:17-0500
_audit_creation_method            fapswitch 2.2
_symmetry_space_group_name_H-M    P1
_symmetry_Int_Tables_number       1
_space_group_crystal_system       triclinic
_cell_length_a                    21.670562
_cell_length_b                    21.66043
_cell_length_c                    47.134428
_cell_angle_alpha                 90.000094
_cell_angle_beta                  90.000061
_cell_angle_gamma                 90.112939
_cell_volume                      22124.5601623

loop_
_atom_site_label
_atom_site_type_symbol
_atom_type_description
_atom_site_fract_x
_atom_site_fract_y
_atom_site_fract_z
_atom_type_partial_charge
C1    C     C_R   0.000200 0.879934 0.999892 0.896365
C2    C     C_R   0.000726 0.684960 0.998533 -0.134211
C3    C     C_R   0.920661 0.419144 0.764553 0.223157
C4    C     C_R   0.108965 0.530630 0.264319 0.223046
C5    C     C_R   0.579859 0.080343 0.264558 0.222841
C6    C     C_R   0.891035 0.469368 0.264319 0.223045
C7    C     C_R   0.420140 0.919657 0.264558 0.222841
C8    C     C_R   0.537219 0.957143 0.779997 -0.038724
C9    C     C_R   0.040043 0.540423 0.780003 -0.039445
C10   C     C_R   0.462782 0.042856 0.779997 -0.038723
C11   C     C_R   0.959956 0.459577 0.780003 -0.039444
C12   C     C_R   0.054769 0.515259 0.279786 -0.038893
C13   C     C_R   0.315014 0.000359 0.998510 -0.134175
C14   C     C_R   0.540295 0.040174 0.280008 -0.039585
C15   C     C_R   0.945231 0.484740 0.279786 -0.038893
C16   C     C_R   0.459704 0.959827 0.280008 -0.039585
C17   C     C_R   0.500000 1.000000 0.765078 -0.110188
C18   C     C_R   0.999999 0.500000 0.765088 -0.110510
C19   C     C_R   0.000000 0.499999 0.264874 -0.110614
C20   C     C_R   0.500000 0.000000 0.265093 -0.110636
C21   C     C_R   0.538005 0.960117 0.809835 0.503069
C22   C     C_R   0.039627 0.538452 0.809870 0.504006
C23   C     C_R   0.461995 0.039882 0.809835 0.503070
C24   C     C_R   0.999274 0.315039 0.998533 -0.134211
C25   C     C_R   0.960372 0.461548 0.809870 0.504006
C26   C     C_R   0.053102 0.515051 0.309658 0.501414
C27   C     C_R   0.539848 0.038224 0.309874 0.503739
C28   C     C_R   0.946898 0.484947 0.309658 0.501414
C29   C     C_R   0.460151 0.961776 0.309874 0.503740
C30   C     C_R   0.479485 0.947855 0.869097 -0.154403
C31   C     C_R   0.051591 0.478377 0.869116 -0.152531
C32   C     C_R   0.520515 0.052145 0.869097 -0.154404
C33   C     C_R   0.948409 0.521623 0.869116 -0.152531
C34   C     C_R   0.987177 0.445472 0.369036 -0.148008
C35   C     C_R   0.184821 0.499846 0.498460 -0.129915
C36   C     C_R   0.551541 0.978258 0.369122 -0.152484
C37   C     C_R   0.012823 0.554527 0.369036 -0.148008
C38   C     C_R   0.448458 0.021742 0.369122 -0.152484
C39   C     C_R   0.479717 0.947711 0.898614 -0.234832
C40   C     C_R   0.051780 0.478700 0.898634 -0.233963
C41   C     C_R   0.520283 0.052289 0.898614 -0.234833
C42   C     C_R   0.948219 0.521300 0.898634 -0.233963
C43   C     C_R   0.986819 0.445508 0.398542 -0.225346
C44   C     C_R   0.551735 0.978590 0.398639 -0.234118
C45   C     C_R   0.013181 0.554491 0.398542 -0.225347
C46   C     C_R   0.500733 0.184969 0.498526 -0.133944
C47   C     C_R   0.448265 0.021410 0.398639 -0.234120
C48   C     C_R   0.500000 1.000000 0.913541 0.003618
C49   C     C_R   1.000000 0.500000 0.913555 0.004597
C50   C     C_R   0.000000 0.500000 0.413493 0.005402
C51   C     C_R   0.500000 1.000000 0.413559 0.004532
C52   C     C_R   0.956274 0.534914 0.130498 -0.096888
C53   C     C_R   0.484885 0.053875 0.130900 -0.102962
C54   C     C_R   0.043727 0.465085 0.130498 -0.096888
C55   C     C_R   0.515114 0.946126 0.130900 -0.102962
C56   C     C_R   0.554472 0.012917 0.630925 -0.103430
C57   C     C_R   0.815179 0.500154 0.498460 -0.129914
C58   C     C_R   0.984418 0.553741 0.630895 -0.102624
C59   C     C_R   0.445528 0.987083 0.630925 -0.103431
C60   C     C_R   0.015581 0.446259 0.630895 -0.102624
C61   C     C_R   0.000000 0.500000 0.086133 -0.029080
C62   C     C_R   0.500000 0.000000 0.086405 -0.044406
C63   C     C_R   0.500000 1.000000 0.586420 -0.045458
C64   C     C_R   1.000000 0.500000 0.586401 -0.043543
C65   C     C_R   0.000000 0.500000 0.145433 0.298271
C66   C     C_R   0.500000 0.000000 0.145768 0.307429
C67   C     C_R   0.500000 1.000000 0.645785 0.308408
C68   C     C_R   0.499267 0.815031 0.498526 -0.133943
C69   C     C_R   1.000000 0.500000 0.645763 0.307886
C70   C     C_R   0.779913 0.019332 0.022197 0.135745
C71   C     C_R   0.981341 0.779788 0.022302 0.139832
C72   C     C_R   0.220087 0.980669 0.022197 0.135745
C73   C     C_R   0.018658 0.220212 0.022302 0.139831
C74   C     C_R   0.279577 0.510941 0.523447 0.138941
C75   C     C_R   0.481315 0.279807 0.522282 0.136739
C76   C     C_R   0.720423 0.489060 0.523447 0.138941
C77   C     C_R   0.518684 0.720193 0.522282 0.136738
C78   C     C_R   0.814142 0.998900 0.999327 -0.131852
C79   C     C_R   0.718143 0.020537 0.021596 0.097121
C80   C     C_R   0.001254 0.814133 0.999342 -0.134155
C81   C     C_R   0.185858 0.001100 0.999327 -0.131853
C82   C     C_R   0.998746 0.185867 0.999342 -0.134154
C83   C     C_R   0.314008 0.499920 0.499286 -0.136704
C84   C     C_R   0.501284 0.314142 0.499334 -0.131681
C85   C     C_R   0.685991 0.500080 0.499286 -0.136704
C86   C     C_R   0.498716 0.685858 0.499335 -0.131681
C87   C     C_R   0.782323 0.978036 0.975025 -0.253454
C88   C     C_R   0.021808 0.782422 0.974975 -0.253535
C89   C     C_R   0.217677 0.021963 0.975025 -0.253454
C90   C     C_R   0.980264 0.717996 0.021711 0.107495
C91   C     C_R   0.978192 0.217578 0.974975 -0.253534
C92   C     C_R   0.282260 0.488758 0.473663 -0.251170
C93   C     C_R   0.521889 0.282428 0.474977 -0.253329
C94   C     C_R   0.717740 0.511241 0.473663 -0.251170
C95   C     C_R   0.478111 0.717571 0.474977 -0.253329
C96   C     C_R   0.717503 0.977463 0.974545 -0.031305
C97   C     C_R   0.022477 0.717585 0.974489 -0.032214
C98   C     C_R   0.282496 0.022537 0.974545 -0.031305
C99   C     C_R   0.977523 0.282415 0.974489 -0.032214
C100  C     C_R   0.217495 0.488060 0.473049 -0.031158
C101  C     C_R   0.281857 0.979464 0.021596 0.097121
C102  C     C_R   0.522545 0.217589 0.474492 -0.031404
C103  C     C_R   0.782505 0.511939 0.473049 -0.031158
C104  C     C_R   0.477454 0.782411 0.474492 -0.031404
C105  C     C_3   0.573988 0.811528 0.784714 -0.706158
C106  C     C_3   0.089581 0.683543 0.783380 -0.700750
C107  C     C_3   0.426013 0.188472 0.784714 -0.706157
C108  C     C_3   0.910418 0.316457 0.783379 -0.700750
C109  C     C_3   0.204464 0.490399 0.282468 -0.704042
C110  C     C_3   0.590833 0.182983 0.283354 -0.700864
C111  C     C_3   0.795536 0.509600 0.282468 -0.704041
C112  C     C_R   0.120063 0.000200 0.999890 0.895811
C113  C     C_R   0.019736 0.282004 0.021711 0.107494
C114  C     C_3   0.409166 0.817017 0.283354 -0.700865
C115  C     C_R   0.685747 0.954751 0.948837 0.109742
C116  C     C_R   0.658140 0.896078 0.948622 -0.098920
C117  C     C_R   0.630281 0.873739 0.923906 -0.162576
C118  C     C_R   0.630447 0.909506 0.899234 -0.080852
C119  C     C_R   0.657941 0.967929 0.899297 -0.115926
C120  C     C_R   0.685619 0.990550 0.924015 -0.189666
C121  C     C_R   0.044737 0.685944 0.948681 0.108881
C122  C     C_R   0.102964 0.657673 0.948380 -0.099792
C123  C     C_R   0.124884 0.629918 0.923581 -0.160070
C124  C     C_R   0.217774 0.511440 0.522942 0.096120
C125  C     C_R   0.089172 0.630879 0.898903 -0.082406
C126  C     C_R   0.031234 0.659104 0.899034 -0.121745
C127  C     C_R   0.009018 0.686659 0.923838 -0.187200
C128  C     C_R   0.314253 0.045248 0.948837 0.109741
C129  C     C_R   0.341859 0.103921 0.948622 -0.098920
C130  C     C_R   0.369719 0.126259 0.923906 -0.162576
C131  C     C_R   0.369553 0.090492 0.899234 -0.080851
C132  C     C_R   0.342058 0.032069 0.899297 -0.115927
C133  C     C_R   0.314380 0.009449 0.924015 -0.189666
C134  C     C_R   0.955263 0.314055 0.948681 0.108880
C135  C     C_R   0.480226 0.218018 0.521692 0.097755
C136  C     C_R   0.897036 0.342326 0.948380 -0.099792
C137  C     C_R   0.875117 0.370082 0.923581 -0.160069
C138  C     C_R   0.910829 0.369121 0.898903 -0.082406
C139  C     C_R   0.968766 0.340895 0.899034 -0.121747
C140  C     C_R   0.990983 0.313340 0.923838 -0.187200
C141  C     C_R   0.186537 0.474784 0.445788 0.106452
C142  C     C_R   0.156996 0.417847 0.441418 -0.117568
C143  C     C_R   0.133960 0.402620 0.414598 -0.167507
C144  C     C_R   0.140391 0.444021 0.392032 -0.076997
C145  C     C_R   0.168898 0.501151 0.396352 -0.111374
C146  C     C_R   0.782226 0.488561 0.522942 0.096119
C147  C     C_R   0.192204 0.516444 0.423105 -0.187330
C148  C     C_R   0.544834 0.185941 0.448690 0.108865
C149  C     C_R   0.603050 0.157648 0.448406 -0.100105
C150  C     C_R   0.624984 0.129865 0.423615 -0.159268
C151  C     C_R   0.589298 0.130821 0.398929 -0.081712
C152  C     C_R   0.531374 0.159077 0.399043 -0.122400
C153  C     C_R   0.509143 0.186657 0.423838 -0.187458
C154  C     C_R   0.813462 0.525214 0.445788 0.106453
C155  C     C_R   0.843004 0.582151 0.441418 -0.117569
C156  C     C_R   0.866039 0.597378 0.414598 -0.167507
C157  C     C_R   0.519774 0.781982 0.521692 0.097755
C158  C     C_R   0.859608 0.555976 0.392032 -0.076996
C159  C     C_R   0.831101 0.498847 0.396352 -0.111375
C160  C     C_R   0.807796 0.483554 0.423105 -0.187330
C161  C     C_R   0.455166 0.814059 0.448690 0.108866
C162  C     C_R   0.396950 0.842351 0.448406 -0.100106
C163  C     C_R   0.375016 0.870135 0.423615 -0.159268
C164  C     C_R   0.410703 0.869178 0.398929 -0.081711
C165  C     C_R   0.468626 0.840923 0.399043 -0.122401
C166  C     C_R   0.490857 0.813343 0.423838 -0.187457
C167  C     C_3   0.712493 0.046368 0.050734 -0.489895
C168  C     C_3   0.954649 0.712163 0.050884 -0.511289
C169  C     C_3   0.287507 0.953634 0.050734 -0.489895
C170  C     C_3   0.045351 0.287837 0.050884 -0.511290
C171  C     C_3   0.211796 0.525036 0.553762 -0.498272
C172  C     C_R   0.999800 0.120066 0.999892 0.896365
C173  C     C_3   0.454533 0.212226 0.550852 -0.490511
C174  C     C_3   0.788204 0.474966 0.553762 -0.498272
C175  C     C_3   0.545467 0.787775 0.550853 -0.490512
C176  C     C_3   0.783584 0.045509 0.051379 -0.453406
C177  C     C_3   0.955388 0.783293 0.051530 -0.454252
C178  C     C_3   0.216416 0.954492 0.051379 -0.453405
C179  C     C_3   0.044611 0.216707 0.051530 -0.454252
C180  C     C_3   0.282893 0.524738 0.554383 -0.447208
C181  C     C_3   0.455285 0.283353 0.551491 -0.454673
C182  C     C_3   0.717107 0.475264 0.554383 -0.447208
C183  C     C_R   0.879937 0.999800 0.999890 0.895812
C184  C     C_3   0.544715 0.716647 0.551492 -0.454674
C185  C     C_R   0.955743 0.534257 0.100973 -0.226619
C186  C     C_R   0.485215 0.054020 0.101374 -0.223793
C187  C     C_R   0.044257 0.465743 0.100973 -0.226619
C188  C     C_R   0.514785 0.945980 0.101374 -0.223793
C189  C     C_R   0.554594 0.012636 0.601398 -0.223572
C190  C     C_R   0.984743 0.553888 0.601368 -0.224495
C191  C     C_R   0.445406 0.987364 0.601398 -0.223572
C192  C     C_R   0.015256 0.446112 0.601368 -0.224496
C193  C     C_R   0.500000 1.000000 0.944550 0.891390
C194  C     C_R   0.500214 0.379937 0.499890 0.897156
C195  C     C_R   1.000000 0.500000 0.944558 0.890363
C196  C     C_R   0.000000 0.500000 0.444533 0.890914
C197  C     C_R   0.500000 0.000000 0.444559 0.891074
C198  C     C_R   0.619755 0.000085 0.999615 0.902506
C199  C     C_R   0.000026 0.619737 0.999594 0.901111
C200  C     C_R   0.380245 0.999915 0.999615 0.902507
C201  C     C_R   0.999973 0.380263 0.999594 0.901111
C202  C     C_R   0.119697 0.500102 0.499517 0.902709
C203  C     C_R   0.500027 0.119740 0.499591 0.902732
C204  C     C_R   0.880303 0.499897 0.499517 0.902709
C205  C     C_R   0.620108 0.499937 0.499893 0.896782
C206  C     C_R   0.499973 0.880260 0.499591 0.902732
C207  C     C_R   0.500000 0.000000 0.055324 0.871793
C208  C     C_R   0.000000 0.500000 0.055226 0.868509
C209  C     C_R   1.000000 0.500000 0.555322 0.872481
C210  C     C_R   0.500000 1.000000 0.555326 0.872292
C211  C     C_R   0.947915 0.482053 0.190150 0.511279
C212  C     C_R   0.459813 0.962267 0.190370 0.511372
C213  C     C_R   0.052085 0.517945 0.190150 0.511280
C214  C     C_R   0.540186 0.037734 0.190370 0.511372
C215  C     C_R   0.464646 0.042166 0.690370 0.511923
C216  C     C_R   0.499786 0.620063 0.499890 0.897155
C217  C     C_R   0.960072 0.461993 0.690363 0.511682
C218  C     C_R   0.535354 0.957833 0.690370 0.511922
C219  C     C_R   0.039927 0.538008 0.690363 0.511682
C220  C     C_R   0.053458 0.517078 0.219879 -0.033072
C221  C     C_R   0.540511 0.038929 0.220101 -0.033884
C222  C     C_R   0.946542 0.482920 0.219879 -0.033072
C223  C     C_R   0.459488 0.961072 0.220101 -0.033885
C224  C     C_R   0.536397 0.957320 0.720102 -0.033504
C225  C     C_R   0.040252 0.539198 0.720095 -0.033571
C226  C     C_R   0.463603 0.042679 0.720102 -0.033504
C227  C     C_R   0.379892 0.500063 0.499893 0.896782
C228  C     C_R   0.959747 0.460803 0.720095 -0.033571
C229  C     C_R   0.500000 1.000000 0.854262 0.318935
C230  C     C_R   1.000000 0.500000 0.854282 0.313853
C231  C     C_R   0.000000 0.499999 0.354153 0.296618
C232  C     C_R   0.500000 0.000000 0.354288 0.313684
C233  C     C_R   0.000000 0.499999 0.234899 -0.024122
C234  C     C_R   0.499999 0.000000 0.235121 -0.023769
C235  C     C_R   0.500000 1.000000 0.735115 -0.024067
C236  C     C_R   0.999999 0.500000 0.735115 -0.023676
C237  C     C_R   0.107176 0.532634 0.234702 -0.239883
C238  C     C_R   0.684986 0.999641 0.998510 -0.134175
C239  C     C_R   0.580188 0.078388 0.234928 -0.240052
C240  C     C_R   0.892825 0.467364 0.234701 -0.239883
C241  C     C_R   0.419811 0.921613 0.234927 -0.240052
C242  C     C_R   0.572462 0.914673 0.734942 -0.240687
C243  C     C_R   0.079670 0.578915 0.734923 -0.240162
C244  C     C_R   0.427538 0.085326 0.734942 -0.240687
C245  C     C_R   0.920329 0.421086 0.734922 -0.240162
C246  C     C_R   0.572845 0.913549 0.764586 0.224992
C247  C     C_R   0.079338 0.580856 0.764553 0.223158
C248  C     C_R   0.427155 0.086450 0.764586 0.224992
H1    H     H_    0.922706 0.562540 0.141796 0.149652
H2    H     H_    0.091474 0.461363 0.857725 0.144935
H3    H     H_    0.245776 0.503768 0.294991 0.233612
H4    H     H_    0.661985 0.127851 0.268989 0.217212
H5    H     H_    0.580805 0.206197 0.262836 0.213218
H6    H     H_    0.622748 0.212547 0.295836 0.235217
H7    H     H_    0.547276 0.177571 0.295557 0.253873
H8    H     H_    0.810061 0.420049 0.268970 0.216474
H9    H     H_    0.820971 0.545897 0.294374 0.254601
H10   H     H_    0.780187 0.528556 0.261723 0.213316
H11   H     H_    0.754224 0.496231 0.294991 0.233611
H12   H     H_    0.338013 0.872150 0.268989 0.217211
H13   H     H_    0.536647 0.092478 0.857708 0.140000
H14   H     H_    0.452723 0.822429 0.295557 0.253873
H15   H     H_    0.377251 0.787454 0.295835 0.235217
H16   H     H_    0.419194 0.793804 0.262835 0.213219
H17   H     H_    0.658713 0.867514 0.967478 0.135944
H18   H     H_    0.608918 0.828537 0.923823 0.130679
H19   H     H_    0.609092 0.891998 0.880107 0.183533
H20   H     H_    0.657796 0.995649 0.880191 0.155438
H21   H     H_    0.707110 0.035734 0.923810 0.139481
H22   H     H_    0.131536 0.657674 0.967230 0.138076
H23   H     H_    0.169729 0.608024 0.923438 0.131935
H24   H     H_    0.908525 0.538637 0.857725 0.144935
H25   H     H_    0.106359 0.609600 0.879715 0.186299
H26   H     H_    0.003574 0.659613 0.879915 0.150407
H27   H     H_    0.964201 0.708702 0.923687 0.138915
H28   H     H_    0.341288 0.132485 0.967478 0.135944
H29   H     H_    0.391082 0.171461 0.923822 0.130679
H30   H     H_    0.390907 0.107999 0.880107 0.183534
H31   H     H_    0.342203 0.004348 0.880191 0.155437
H32   H     H_    0.292889 0.964265 0.923810 0.139481
H33   H     H_    0.868464 0.342326 0.967230 0.138076
H34   H     H_    0.830272 0.391976 0.923437 0.131935
H35   H     H_    0.977669 0.403033 0.357699 0.149924
H36   H     H_    0.893642 0.390399 0.879715 0.186299
H37   H     H_    0.996427 0.340386 0.879915 0.150407
H38   H     H_    0.035799 0.291297 0.923687 0.138915
H39   H     H_    0.153370 0.384650 0.458516 0.142060
H40   H     H_    0.111628 0.358491 0.411231 0.131783
H41   H     H_    0.123050 0.431946 0.371227 0.155404
H42   H     H_    0.173548 0.533286 0.378898 0.176670
H43   H     H_    0.215520 0.560252 0.426059 0.140811
H44   H     H_    0.631601 0.157648 0.467263 0.137263
H45   H     H_    0.669819 0.107951 0.423485 0.131965
H46   H     H_    0.591384 0.961147 0.357733 0.144837
H47   H     H_    0.606492 0.109518 0.379749 0.186344
H48   H     H_    0.503735 0.159585 0.379917 0.149868
H49   H     H_    0.464335 0.208716 0.423674 0.138506
H50   H     H_    0.846630 0.615349 0.458516 0.142060
H51   H     H_    0.888372 0.641506 0.411230 0.131783
H52   H     H_    0.876950 0.568051 0.371227 0.155406
H53   H     H_    0.826451 0.466711 0.378898 0.176669
H54   H     H_    0.784480 0.439747 0.426059 0.140811
H55   H     H_    0.368399 0.842352 0.467263 0.137263
H56   H     H_    0.330181 0.892049 0.423485 0.131965
H57   H     H_    0.022331 0.596966 0.357699 0.149925
H58   H     H_    0.393509 0.890482 0.379749 0.186344
H59   H     H_    0.496266 0.840414 0.379917 0.149867
H60   H     H_    0.535665 0.791283 0.423674 0.138506
H61   H     H_    0.408615 0.038853 0.357733 0.144837
H62   H     H_    0.463596 0.907020 0.909742 0.158082
H63   H     H_    0.092046 0.461760 0.909769 0.157960
H64   H     H_    0.536404 0.092979 0.909742 0.158082
H65   H     H_    0.472790 0.095580 0.142266 0.145115
H66   H     H_    0.907953 0.538240 0.909769 0.157960
H67   H     H_    0.976454 0.402938 0.409619 0.158417
H68   H     H_    0.591962 0.961561 0.409776 0.157803
H69   H     H_    0.023546 0.597062 0.409619 0.158417
H70   H     H_    0.408037 0.038438 0.409776 0.157803
H71   H     H_    0.807519 0.961426 0.956684 0.176981
H72   H     H_    0.038059 0.807719 0.956575 0.177305
H73   H     H_    0.192481 0.038573 0.956684 0.176982
H74   H     H_    0.961940 0.192281 0.956575 0.177305
H75   H     H_    0.307446 0.479582 0.454244 0.180163
H76   H     H_    0.077295 0.437459 0.141796 0.149652
H77   H     H_    0.538180 0.307725 0.456584 0.176647
H78   H     H_    0.692554 0.520417 0.454244 0.180163
H79   H     H_    0.461820 0.692275 0.456584 0.176648
H80   H     H_    0.692569 0.093613 0.050734 0.215010
H81   H     H_    0.907462 0.691956 0.050948 0.209549
H82   H     H_    0.307431 0.906388 0.050734 0.215010
H83   H     H_    0.092538 0.308044 0.050948 0.209550
H84   H     H_    0.191312 0.571233 0.557753 0.214833
H85   H     H_    0.407337 0.192041 0.550892 0.213976
H86   H     H_    0.808688 0.428769 0.557754 0.214833
H87   H     H_    0.527209 0.904421 0.142266 0.145115
H88   H     H_    0.592663 0.807960 0.550892 0.213976
H89   H     H_    0.690802 0.013170 0.065724 0.205830
H90   H     H_    0.987957 0.690626 0.065825 0.206173
H91   H     H_    0.309198 0.986832 0.065724 0.205830
H92   H     H_    0.012042 0.309374 0.065825 0.206174
H93   H     H_    0.190487 0.486137 0.565654 0.206316
H94   H     H_    0.487805 0.190702 0.565814 0.206761
H95   H     H_    0.809513 0.513866 0.565654 0.206316
H96   H     H_    0.512195 0.809299 0.565814 0.206762
H97   H     H_    0.804769 0.092288 0.051629 0.202545
H98   H     H_    0.596657 0.023278 0.642299 0.144874
H99   H     H_    0.908591 0.804209 0.051858 0.200198
H100  H     H_    0.195231 0.907713 0.051630 0.202545
H101  H     H_    0.091409 0.195791 0.051858 0.200198
H102  H     H_    0.303534 0.570810 0.558704 0.203687
H103  H     H_    0.408492 0.304283 0.551787 0.200827
H104  H     H_    0.696466 0.429192 0.558705 0.203687
H105  H     H_    0.591508 0.695717 0.551787 0.200828
H106  H     H_    0.802968 0.012087 0.066880 0.208781
H107  H     H_    0.988872 0.802879 0.066979 0.209484
H108  H     H_    0.197032 0.987915 0.066880 0.208781
H109  H     H_    0.971962 0.595338 0.642262 0.145133
H110  H     H_    0.011128 0.197121 0.066979 0.209484
H111  H     H_    0.302645 0.485783 0.566736 0.206350
H112  H     H_    0.488732 0.302943 0.566956 0.209633
H113  H     H_    0.697355 0.514219 0.566736 0.206350
H114  H     H_    0.511268 0.697057 0.566956 0.209633
H115  H     H_    0.921619 0.561337 0.089720 0.151424
H116  H     H_    0.473331 0.096148 0.090288 0.162022
H117  H     H_    0.078382 0.438662 0.089720 0.151424
H118  H     H_    0.526668 0.903853 0.090288 0.162022
H119  H     H_    0.597207 0.022810 0.590327 0.162763
H120  H     H_    0.403343 0.976722 0.642299 0.144874
H121  H     H_    0.972480 0.595902 0.590279 0.161688
H122  H     H_    0.402793 0.977190 0.590327 0.162763
H123  H     H_    0.027519 0.404098 0.590279 0.161688
H124  H     H_    0.148855 0.545062 0.223328 0.190643
H125  H     H_    0.610999 0.109123 0.223554 0.190764
H126  H     H_    0.851146 0.454936 0.223328 0.190643
H127  H     H_    0.389000 0.890878 0.223553 0.190764
H128  H     H_    0.600009 0.881076 0.723577 0.189950
H129  H     H_    0.110272 0.609858 0.723549 0.190184
H130  H     H_    0.399992 0.118923 0.723577 0.189950
H131  H     H_    0.028037 0.404662 0.642262 0.145133
H132  H     H_    0.889727 0.390143 0.723548 0.190184
H133  H     H_    0.649684 0.857933 0.768608 0.216921
H134  H     H_    0.532268 0.822230 0.797498 0.251352
H135  H     H_    0.559872 0.788336 0.764693 0.215545
H136  H     H_    0.603465 0.779486 0.797107 0.234352
H137  H     H_    0.161121 0.628962 0.768975 0.216425
H138  H     H_    0.079351 0.706713 0.762871 0.213377
H139  H     H_    0.121293 0.713322 0.795862 0.234587
H140  H     H_    0.046081 0.677790 0.795593 0.254339
H141  H     H_    0.350316 0.142067 0.768608 0.216921
H142  H     H_    0.463353 0.907522 0.857708 0.139999
H143  H     H_    0.467732 0.177769 0.797498 0.251352
H144  H     H_    0.440129 0.211664 0.764694 0.215544
H145  H     H_    0.396536 0.220514 0.797108 0.234352
H146  H     H_    0.838878 0.371039 0.768975 0.216425
H147  H     H_    0.953918 0.322210 0.795593 0.254339
H148  H     H_    0.878705 0.286679 0.795861 0.234587
H149  H     H_    0.920647 0.293288 0.762871 0.213377
H150  H     H_    0.189939 0.579950 0.268970 0.216474
H151  H     H_    0.179029 0.454101 0.294374 0.254601
H152  H     H_    0.219814 0.471442 0.261724 0.213317
N1    N     N_R   0.000000 0.499999 0.175887 -0.354356
N2    N     N_2   0.118390 0.624317 0.778406 -0.251639
N3    N     N_2   0.391731 0.132698 0.778501 -0.250692
N4    N     N_2   0.881609 0.375684 0.778405 -0.251639
N5    N     N_2   0.165833 0.543987 0.278139 -0.251513
N6    N     N_2   0.619209 0.123536 0.278409 -0.251128
N7    N     N_2   0.834167 0.456011 0.278139 -0.251513
N8    N     N_2   0.380790 0.876465 0.278409 -0.251127
N9    N     N_R   0.500000 0.000000 0.176163 -0.355572
N10   N     N_R   0.500000 1.000000 0.676172 -0.355623
N11   N     N_R   0.999999 0.500000 0.676157 -0.355523
N12   N     N_R   0.500000 1.000000 0.823879 -0.358077
N13   N     N_R   1.000000 0.500000 0.823897 -0.358107
N14   N     N_R   0.000000 0.499999 0.323723 -0.357168
N15   N     N_R   0.500000 0.000000 0.323902 -0.358170
N16   N     N_2   0.608269 0.867301 0.778501 -0.250692
O1    O     O_R   0.000030 0.908460 0.023630 -0.624217
O2    O     O_R   0.091470 0.000060 0.976290 -0.627539
O3    O     O_R   0.999940 0.091470 0.976290 -0.627724
O4    O     O_R   0.908530 0.999940 0.976290 -0.627539
O5    O     O_R   0.500060 0.408530 0.476290 -0.627678
O6    O     O_R   0.591470 0.500060 0.476290 -0.629235
O7    O     O_R   0.499940 0.591470 0.476290 -0.627678
O8    O     O_R   0.408530 0.499940 0.476290 -0.629235
O9    O     O_R   0.500070 0.051830 0.958000 -0.625718
O10   O     O_R   0.948170 0.500070 0.958000 -0.626104
O11   O     O_R   0.499930 0.948170 0.958000 -0.625718
O12   O     O_R   0.091540 0.000030 0.023630 -0.624319
O13   O     O_R   0.051830 0.499930 0.958000 -0.626104
O14   O     O_R   0.000070 0.551830 0.458000 -0.629662
O15   O     O_R   0.448170 0.000070 0.458000 -0.625856
O16   O     O_R   0.999930 0.448170 0.458000 -0.629662
O17   O     O_R   0.551830 0.999930 0.458000 -0.625856
O18   O     O_R   0.591650 0.051830 0.999920 -0.620081
O19   O     O_R   0.948170 0.591650 0.999920 -0.623225
O20   O     O_R   0.408350 0.948170 0.999920 -0.620081
O21   O     O_R   0.051830 0.408350 0.999920 -0.623225
O22   O     O_R   0.091650 0.551830 0.499920 -0.618015
O23   O     O_R   0.999970 0.091540 0.023630 -0.624217
O24   O     O_R   0.448170 0.091650 0.499920 -0.620388
O25   O     O_R   0.908350 0.448170 0.499920 -0.618015
O26   O     O_R   0.551830 0.908350 0.499920 -0.620388
O27   O     O_R   0.591650 0.948400 0.999950 -0.630869
O28   O     O_R   0.051600 0.591650 0.999950 -0.628442
O29   O     O_R   0.408350 0.051600 0.999950 -0.630869
O30   O     O_R   0.948400 0.408350 0.999950 -0.628442
O31   O     O_R   0.091650 0.448400 0.499950 -0.632943
O32   O     O_R   0.551600 0.091650 0.499950 -0.630934
O33   O     O_R   0.908350 0.551600 0.499950 -0.632943
O34   O     O_R   0.908460 0.999970 0.023630 -0.624320
O35   O     O_R   0.448400 0.908350 0.499950 -0.630934
O36   O     O_R   0.500010 0.051830 0.041840 -0.624236
O37   O     O_R   0.948170 0.500010 0.041840 -0.619324
O38   O     O_R   0.499990 0.948170 0.041840 -0.624236
O39   O     O_R   0.051830 0.499990 0.041840 -0.619324
O40   O     O_R   0.000010 0.551830 0.541840 -0.623735
O41   O     O_R   0.448170 0.000010 0.541840 -0.624486
O42   O     O_R   0.999990 0.448170 0.541840 -0.623735
O43   O     O_R   0.551830 0.999990 0.541840 -0.624486
O44   O     O_2   0.897749 0.462905 0.175602 -0.568781
O45   O     O_R   0.500030 0.408460 0.523630 -0.624107
O46   O     O_2   0.419973 0.926378 0.175743 -0.567335
O47   O     O_2   0.102252 0.537094 0.175602 -0.568781
O48   O     O_2   0.580026 0.073623 0.175743 -0.567335
O49   O     O_2   0.431078 0.083832 0.675733 -0.568143
O50   O     O_2   0.920488 0.425824 0.675736 -0.568146
O51   O     O_2   0.568922 0.916167 0.675732 -0.568142
O52   O     O_2   0.079511 0.574177 0.675736 -0.568146
O53   O     O_2   0.576958 0.924346 0.824894 -0.565090
O54   O     O_2   0.078298 0.574520 0.825002 -0.566921
O55   O     O_2   0.423042 0.075653 0.824894 -0.565091
O56   O     O_R   0.591540 0.500030 0.523630 -0.624438
O57   O     O_2   0.921701 0.425481 0.825002 -0.566921
O58   O     O_2   0.103973 0.529570 0.324759 -0.567523
O59   O     O_2   0.578705 0.074092 0.325006 -0.566597
O60   O     O_2   0.896027 0.470429 0.324759 -0.567524
O61   O     O_2   0.421294 0.925908 0.325006 -0.566597
O62   O     O_R   0.499970 0.591540 0.523630 -0.624107
O63   O     O_R   0.408460 0.499970 0.523630 -0.624439
O64   O     O_R   0.000060 0.908530 0.976290 -0.627725
Zn1   Zn    Zn3+2 0.000000 1.000000 0.031570 0.942042
Zn2   Zn    Zn3+2 0.430820 0.000040 0.499920 0.944518
Zn3   Zn    Zn3+2 0.999960 0.430820 0.499920 0.945596
Zn4   Zn    Zn3+2 0.569180 0.999960 0.499920 0.944518
Zn5   Zn    Zn3+2 0.500000 0.500000 0.531570 0.942163
Zn6   Zn    Zn3+2 0.000000 1.000000 0.968360 0.946077
Zn7   Zn    Zn3+2 0.500000 0.500000 0.468360 0.943860
Zn8   Zn    Zn3+2 0.500040 0.069180 0.999920 0.945241
Zn9   Zn    Zn3+2 0.930820 0.500040 0.999920 0.948196
Zn10  Zn    Zn3+2 0.499960 0.930820 0.999920 0.945242
Zn11  Zn    Zn3+2 0.069180 0.499960 0.999920 0.948196
Zn12  Zn    Zn3+2 0.000040 0.569180 0.499920 0.945595

loop_
_geom_bond_atom_site_label_1
_geom_bond_atom_site_label_2
_ccdc_geom_bond_type
C126  C127  A    
C13   C200  S    
C221  C234  A    
C176  H106  S    
C73   C82   A    
C59   C191  A    
C201  O30   A    
C74   C83   A    
O3    Zn6   S    
C175  H96   S    
C55   C66   A    
C59   H120  S    
C109  H151  S    
C54   C65   A    
C147  H43   S    
C151  H47   S    
C135  C173  S    
C62   C188  A    
C35   C124  A    
C152  H48   S    
C195  O10   A    
C18   C236  A    
C72   C101  A    
C143  C144  A    
C214  O48   S    
C2    C90   A    
C194  O45   A    
C114  H16   S    
O43   Zn4   S    
C51   C197  S    
C229  N12   S    
C5    C239  A    
C207  O36   A    
C94   H78   S    
C108  H147  S    
C4    C237  A    
C180  H111  S    
C4    C12   A    
C197  O15   A    
C212  N9    A    
C117  H18   S    
C36   H46   S    
C76   C146  A    
C143  H40   S    
C170  H83   S    
C44   H68   S    
C45   H69   S    
C64   C192  A    
O1    Zn1   S    
C181  H112  S    
C200  O29   A    
C58   H109  S    
C125  H25   S    
C49   C195  S    
C194  O5    A    
C169  H82   S    
C82   C91   A    
C231  N14   S    
C217  O50   S    
C202  O22   A    
O64   Zn6   S    
C226  C244  A    
C36   C232  A    
C7    C241  A    
C35   C202  S    
C192  H123  S    
C29   O61   S    
C154  C155  A    
O42   Zn3   S    
C195  O13   A    
C1    O64   A    
C46   C203  S    
C137  H34   S    
C54   C187  A    
O20   Zn10  S    
C158  C159  A    
C36   C44   A    
C148  C153  A    
C21   O53   S    
C37   C45   A    
C202  O31   A    
C171  H93   S    
C30   C229  A    
C248  N3    S    
C95   H79   S    
C153  H49   S    
O16   Zn3   S    
C109  H3    S    
C107  H143  S    
O35   Zn2   S    
C70   C79   A    
C127  H27   S    
C144  C145  A    
C139  C140  A    
O7    Zn7   S    
C113  C170  S    
C8    C17   A    
C215  C226  A    
C156  C158  A    
C130  C131  A    
C114  H14   S    
C3    N4    S    
C80   C88   A    
C23   N12   A    
C184  H114  S    
C45   C50   A    
C223  C241  A    
C146  C174  S    
C57   C204  S    
C108  H149  S    
C214  N9    A    
C227  O63   A    
C84   C93   A    
C210  O43   A    
C86   C216  S    
C217  N11   A    
C3    C11   A    
C86   C95   A    
C141  C147  A    
C61   C208  S    
C118  H19   S    
O32   Zn4   S    
C31   H2    S    
C174  H95   S    
C155  C156  A    
C129  H28   S    
C79   C167  S    
C70   C176  S    
C145  H42   S    
C5    N6    S    
O13   Zn11  S    
O11   Zn10  S    
C78   C87   A    
C107  H145  S    
C109  N5    S    
C11   C18   A    
C48   C193  S    
C218  N10   A    
C107  N3    S    
C178  H108  S    
C34   C231  A    
C72   C178  S    
O19   Zn9   S    
C128  C129  A    
C174  C182  S    
C173  H94   S    
C85   C205  S    
C154  C160  A    
C155  H50   S    
C221  C239  A    
C33   C42   A    
C230  N13   S    
C187  H117  S    
C224  C235  A    
C110  H6    S    
C25   N13   A    
C75   C84   A    
C11   C25   A    
C40   C49   A    
C91   H74   S    
C196  O14   A    
C198  O18   A    
C131  H30   S    
C97   C121  S    
C59   C67   A    
C205  O6    A    
C193  O9    A    
C111  N7    S    
C58   C190  A    
C32   C41   A    
C243  H129  S    
H8    N7    S    
C142  H39   S    
C62   C186  A    
C92   H75   S    
C126  H26   S    
C179  H110  S    
C112  O12   A    
C198  O27   A    
C8    C21   A    
C216  O62   A    
C24   C201  S    
C232  N15   S    
C2    C199  S    
C220  C233  A    
O62   Zn5   S    
C227  O8    A    
O38   Zn10  S    
H4    N6    S    
C217  C228  A    
C241  H127  S    
C99   C134  S    
C12   C26   A    
C210  O41   A    
C53   C186  A    
O18   Zn8   S    
C209  O42   A    
C26   O58   S    
O21   Zn11  S    
C103  C154  S    
C81   C112  S    
C60   C192  A    
C42   H66   S    
C61   C185  A    
C203  O32   A    
C38   C47   A    
C29   N15   A    
C55   C188  A    
C101  C169  S    
C4    N5    S    
C158  H52   S    
C175  H88   S    
C163  H56   S    
C184  H105  S    
C206  O35   A    
C68   C206  S    
C204  O33   A    
C208  O37   A    
C35   C100  A    
C168  H90   S    
C190  H121  S    
C129  C130  A    
C123  H23   S    
C174  H86   S    
O31   Zn3   S    
C90   C168  S    
C225  C236  A    
C96   C238  A    
C34   C43   A    
O40   Zn12  S    
C136  C137  A    
O14   Zn12  S    
C43   C50   A    
C177  H107  S    
C246  N16   S    
C170  C179  S    
C130  H29   S    
C56   H98   S    
C196  O16   A    
C88   C97   A    
C28   O60   S    
C117  C118  A    
O17   Zn4   S    
C71   C90   A    
C60   C69   A    
C179  H101  S    
C119  H20   S    
C76   C85   A    
C30   C39   A    
C32   H13   S    
C52   C65   A    
C173  C181  S    
C105  N16   S    
O63   Zn5   S    
C9    C18   A    
C10   C248  A    
C152  C153  A    
C87   H71   S    
C138  H36   S    
C108  H148  S    
C150  C151  A    
C39   C48   A    
C79   C238  A    
C140  H38   S    
C57   C146  A    
C160  H54   S    
C74   C124  A    
O6    Zn7   S    
C206  O26   A    
C156  H51   S    
C28   N14   A    
C161  C162  A    
C222  C233  A    
C207  O38   A    
C15   C19   A    
C92   C100  A    
C242  C246  A    
O15   Zn2   S    
O34   Zn1   S    
C164  C165  A    
C121  C127  A    
C100  C141  S    
C22   O54   S    
C75   C135  A    
C123  C125  A    
C188  H118  S    
C65   N1    S    
C168  C177  S    
C61   C187  A    
C55   H87   S    
C31   C40   A    
O4    Zn6   S    
C198  C238  S    
C105  H136  S    
C46   C135  A    
C208  O39   A    
C50   C196  S    
C213  C220  A    
C242  H128  S    
O36   Zn8   S    
C2    C97   A    
C110  N6    S    
C151  C152  A    
C219  N11   A    
O24   Zn2   S    
C14   C27   A    
C112  O2    A    
O33   Zn12  S    
C72   C81   A    
C106  N2    S    
O22   Zn12  S    
C81   C89   A    
C98   C128  S    
C8    C246  A    
C149  H44   S    
C34   H35   S    
C244  H130  S    
C165  H59   S    
C111  H11   S    
C145  C147  A    
C21   N12   A    
C26   N14   A    
C109  H152  S    
C57   C103  A    
O10   Zn9   S    
C82   C172  S    
C166  H60   S    
C200  O20   A    
C14   C20   A    
C168  H81   S    
C104  C161  S    
C47   C51   A    
C237  H124  S    
C191  H122  S    
C120  H21   S    
C244  C248  A    
C219  O52   S    
C114  H15   S    
C180  H102  S    
C214  C221  A    
O39   Zn11  S    
C46   C102  A    
O12   Zn1   S    
C182  H104  S    
C159  C160  A    
C114  N8    S    
C110  H7    S    
C23   O55   S    
C106  H140  S    
C136  H33   S    
C5    C14   A    
C67   N10   S    
C7    C16   A    
C94   C103  A    
C243  C247  A    
C33   H24   S    
C125  C126  A    
C10   C23   A    
C64   C209  S    
C203  O24   A    
C27   N15   A    
C68   C157  A    
C212  O46   S    
C62   C207  S    
C183  O34   A    
C170  H92   S    
C162  C163  A    
C32   C229  A    
H150  N5    S    
C150  H45   S    
C68   C104  A    
C205  O56   A    
C93   C102  A    
C38   C232  A    
C119  C120  A    
C58   C69   A    
C218  C224  A    
C225  C243  A    
C89   C98   A    
C43   H67   S    
C89   H73   S    
C149  C150  A    
C247  N2    S    
C224  C242  A    
C15   C28   A    
C124  C171  S    
C209  O40   A    
C63   C191  A    
C12   C19   A    
C222  C240  A    
C213  N1    A    
C9    C247  A    
C138  C139  A    
C122  H22   S    
C189  H119  S    
C171  H84   S    
O5    Zn7   S    
C1    C80   S    
C142  C143  A    
C3    C245  A    
C211  N1    A    
C111  H9    S    
C115  C116  A    
C175  C184  S    
C60   H131  S    
C41   H64   S    
C165  C166  A    
C172  O3    A    
C70   C78   A    
C24   C99   A    
O45   Zn5   S    
C163  C164  A    
C37   H57   S    
C40   H63   S    
O23   Zn1   S    
H133  N16   S    
C83   C227  S    
C240  H126  S    
C83   C92   A    
C215  O49   S    
C133  H32   S    
C6    N7    S    
C223  C234  A    
C193  O11   A    
C186  H116  S    
C134  C140  A    
C9    C22   A    
C10   C17   A    
O25   Zn3   S    
C31   C230  A    
C77   C184  S    
C116  C117  A    
C139  H37   S    
C78   C183  S    
C159  H53   S    
C13   C98   A    
C106  H138  S    
C118  C119  A    
C162  H55   S    
C102  C148  S    
C6    C15   A    
C105  H134  S    
H146  N4    S    
C132  C133  A    
C66   N9    S    
C173  H85   S    
C96   C115  S    
H141  N3    S    
C22   N13   A    
C181  H103  S    
C201  O21   A    
C52   H1    S    
C73   C113  A    
C161  C166  A    
C16   C20   A    
C216  O7    A    
C215  N10   A    
C24   C113  A    
C172  O23   A    
C38   H61   S    
C128  C133  A    
C76   C182  S    
C19   C233  A    
C71   C80   A    
C239  H125  S    
C17   C235  A    
O41   Zn2   S    
C7    N8    S    
C169  H91   S    
O29   Zn8   S    
C148  C149  A    
C213  O47   S    
C116  H17   S    
C84   C194  S    
C107  H144  S    
O37   Zn9   S    
C134  C136  A    
C228  C245  A    
C110  H5    S    
C16   C29   A    
C63   C189  A    
C211  C222  A    
C6    C240  A    
C37   C231  A    
C226  C235  A    
H12   N8    S    
C211  O44   S    
C108  N4    S    
C167  H80   S    
C27   O59   S    
C85   C94   A    
C25   O57   S    
C87   C96   A    
C47   H70   S    
O56   Zn5   S    
C121  C122  A    
O26   Zn4   S    
O30   Zn9   S    
C69   N11   S    
C219  C225  A    
C53   C66   A    
H137  N2    S    
O2    Zn6   S    
O28   Zn11  S    
C157  C175  S    
C44   C51   A    
C177  H99   S    
C77   C86   A    
C20   C234  A    
C106  H139  S    
C171  C180  S    
C39   H62   S    
C54   H76   S    
C52   C185  A    
C13   C101  A    
C33   C230  A    
C75   C181  S    
C169  C178  S    
C95   C104  A    
C167  H89   S    
C88   H72   S    
C132  H31   S    
C56   C189  A    
C111  H10   S    
C245  H132  S    
C204  O25   A    
C30   H142  S    
C93   H77   S    
C144  H41   S    
C56   C67   A    
C137  C138  A    
O9    Zn8   S    
C199  O28   A    
C91   C99   A    
C71   C177  S    
C1    O1    A    
C141  C142  A    
O8    Zn7   S    
C178  H100  S    
C185  H115  S    
C41   C48   A    
C183  O4    A    
C176  H97   S    
C218  O51   S    
C220  C237  A    
C228  C236  A    
O27   Zn10  S    
C164  H58   S    
C105  H135  S    
C42   C49   A    
C73   C179  S    
C74   C180  S    
C64   C190  A    
C115  C120  A    
C199  O19   A    
C53   H65   S    
C63   C210  S    
C182  H113  S    
C197  O17   A    
C122  C123  A    
C131  C132  A    
C77   C157  A    
C167  C176  S    
C212  C223  A    
