data_mof_unit_60302.cif
_audit_creation_date              2012-10-26T21:20:29-0400
_audit_creation_method            fapswitch 2.2
_symmetry_space_group_name_H-M    P1
_symmetry_Int_Tables_number       1
_space_group_crystal_system       monoclinic
_cell_length_a                    15.15224
_cell_length_b                    14.001229
_cell_length_c                    14.333957
_cell_angle_alpha                 90.0
_cell_angle_beta                  92.331349
_cell_angle_gamma                 90.0
_cell_volume                      3038.43169039

loop_
_atom_site_label
_atom_site_type_symbol
_atom_type_description
_atom_site_fract_x
_atom_site_fract_y
_atom_site_fract_z
_atom_type_partial_charge
C1    C     C_R   0.330066 0.499955 0.500172 0.554781
C2    C     C_R   0.951397 0.498714 0.500012 0.033324
C3    C     C_R   0.499910 0.499988 0.331190 0.560211
C4    C     C_R   0.500089 0.499988 0.668810 0.560212
C5    C     C_R   0.560472 0.107807 0.555931 -0.118891
C6    C     C_R   0.450527 0.892378 0.433191 -0.117490
C7    C     C_R   0.439528 0.107807 0.444069 -0.118891
C8    C     C_R   0.549472 0.892378 0.566809 -0.117490
C9    C     C_R   0.558518 0.208121 0.557188 0.221262
C10   C     C_R   0.449217 0.792049 0.435137 0.221229
C11   C     C_R   0.441482 0.208121 0.442812 0.221262
C12   C     C_R   0.669934 0.499955 0.499828 0.554781
C13   C     C_R   0.550783 0.792049 0.564863 0.221229
C14   C     C_1   0.499887 0.499974 0.228841 0.005509
C15   C     C_1   0.500113 0.499974 0.771159 0.005509
C16   C     C_1   0.499894 0.499980 0.143400 -0.006755
C17   C     C_1   0.500106 0.499980 0.856600 -0.006755
C18   C     C_1   0.499961 0.499987 0.042724 0.024199
C19   C     C_1   0.500038 0.499987 0.957276 0.024199
C20   C     C_R   0.500000 0.054562 0.500000 -0.010539
C21   C     C_R   0.500000 0.945623 0.500000 -0.010519
C22   C     C_R   0.094122 0.581141 0.473633 -0.109519
C23   C     C_R   0.185826 0.581931 0.475108 -0.109590
C24   C     C_R   0.903392 0.416673 0.473292 -0.107043
C25   C     C_R   0.905878 0.581141 0.526367 -0.109519
C26   C     C_R   0.096608 0.416673 0.526708 -0.107043
C27   C     C_R   0.811624 0.416868 0.473869 -0.109831
C28   C     C_R   0.814174 0.581931 0.524891 -0.109591
C29   C     C_R   0.188376 0.416868 0.526131 -0.109831
C30   C     C_R   0.233563 0.499628 0.500542 0.022893
C31   C     C_R   0.766436 0.499628 0.499458 0.022893
C32   C     C_R   0.048603 0.498714 0.499988 0.033324
Cu1   Cu    Cu3+1 0.500000 0.596430 0.500000 1.025149
Cu2   Cu    Cu3+1 0.500000 0.403570 0.500000 1.023529
H1    H     H_    0.610451 0.073301 0.599605 0.125987
H2    H     H_    0.776067 0.352712 0.453017 0.146396
H3    H     H_    0.780886 0.646664 0.544767 0.160960
H4    H     H_    0.223933 0.352712 0.546983 0.146396
H5    H     H_    0.412087 0.926938 0.378068 0.127950
H6    H     H_    0.389549 0.073301 0.400395 0.125987
H7    H     H_    0.587912 0.926937 0.621931 0.127950
H8    H     H_    0.058972 0.644884 0.450933 0.118660
H9    H     H_    0.936565 0.352702 0.450808 0.118540
H10   H     H_    0.941028 0.644883 0.549067 0.118660
H11   H     H_    0.063435 0.352702 0.549193 0.118540
H12   H     H_    0.219113 0.646664 0.455232 0.160960
I1    I     I_    0.650367 0.271192 0.654809 -0.326641
I2    I     I_    0.362275 0.729793 0.332212 -0.347739
I3    I     I_    0.349633 0.271192 0.345191 -0.326641
I4    I     I_    0.637725 0.729793 0.667788 -0.347739
N1    N     N_R   0.500000 0.258690 0.500000 -0.210937
N2    N     N_R   0.500000 0.741310 0.500000 -0.207388
O1    O     O_R   0.371460 0.581430 0.500010 -0.485382
O2    O     O_R   0.628540 0.418570 0.499990 -0.483028
O3    O     O_R   0.628540 0.581430 0.499990 -0.485381
O4    O     O_R   0.371460 0.418570 0.500010 -0.483029
O5    O     O_R   0.500000 0.581450 0.376050 -0.460676
O6    O     O_R   0.500000 0.418550 0.623950 -0.463962
O7    O     O_R   0.500000 0.581450 0.623950 -0.460677
O8    O     O_R   0.500000 0.418550 0.376050 -0.463962

loop_
_geom_bond_atom_site_label_1
_geom_bond_atom_site_label_2
_ccdc_geom_bond_type
C29   H4    S    
C6    C10   A    
C7    C11   A    
C7    H6    S    
C26   C32   A    
C8    C13   A    
C11   I3    S    
C27   H2    S    
C13   N2    A    
C9    N1    A    
C24   C27   A    
Cu2   O4    S    
C10   I2    S    
C10   N2    A    
C3    O8    A    
C4    C15   S    
C8    C21   A    
Cu1   O3    S    
Cu1   O7    S    
C23   H12   S    
C8    H7    S    
C25   C28   A    
Cu2   O8    S    
Cu1   O1    S    
Cu2   N1    S    
C22   H8    S    
C3    C14   S    
C22   C32   A    
C28   H3    S    
C15   C17   T    
C3    O5    A    
C25   H10   S    
C2    C32   S    
C1    C30   S    
C17   C19   S    
C1    O4    A    
Cu1   Cu2   S    
Cu2   O2    S    
C2    C25   A    
C12   C31   S    
C2    C24   A    
Cu2   O6    S    
C14   C16   T    
C9    I1    S    
C11   N1    A    
C29   C30   A    
C13   I4    S    
C12   O3    A    
C23   C30   A    
C5    H1    S    
C20   C21   S    
C4    O7    A    
C26   C29   A    
C16   C18   S    
C18   C19   T    
C4    O6    A    
C5    C20   A    
C24   H9    S    
C1    O1    A    
C22   C23   A    
Cu1   O5    S    
C26   H11   S    
C6    H5    S    
C6    C21   A    
C27   C31   A    
C7    C20   A    
C28   C31   A    
C12   O2    A    
C5    C9    A    
Cu1   N2    S    
