data_mof_unit_19597.cif
_audit_creation_date              2012-10-26T21:33:18-0400
_audit_creation_method            fapswitch 2.2
_symmetry_space_group_name_H-M    P1
_symmetry_Int_Tables_number       1
_space_group_crystal_system       triclinic
_cell_length_a                    28.191894
_cell_length_b                    18.46677
_cell_length_c                    16.968482
_cell_angle_alpha                 90.136736
_cell_angle_beta                  60.863925
_cell_angle_gamma                 90.451672
_cell_volume                      7715.96086963

loop_
_atom_site_label
_atom_site_type_symbol
_atom_type_description
_atom_site_fract_x
_atom_site_fract_y
_atom_site_fract_z
_atom_type_partial_charge
C1    C     C_R   0.701290 0.267993 0.676416 0.936613
C2    C     C_R   0.093604 0.502496 0.520123 0.068382
C3    C     C_R   0.187914 0.221314 0.908049 -0.016683
C4    C     C_R   0.070806 0.103926 0.937457 0.952761
C5    C     C_R   0.929052 0.896235 0.062679 0.945481
C6    C     C_R   0.928239 0.102879 0.063601 0.942068
C7    C     C_R   0.073067 0.898567 0.935362 0.959507
C8    C     C_R   0.570820 0.603902 0.937450 0.943291
C9    C     C_R   0.429121 0.396145 0.062609 0.963574
C10   C     C_R   0.425456 0.599016 0.066201 0.968401
C11   C     C_R   0.571663 0.397073 0.936526 0.949968
C12   C     C_R   0.525851 0.111360 0.574294 0.097518
C13   C     C_R   0.408129 0.995489 0.473593 0.067512
C14   C     C_R   0.477199 0.874633 0.414614 0.101972
C15   C     C_R   0.430055 0.110937 0.560157 0.100580
C16   C     C_R   0.572631 0.874904 0.428741 0.102548
C17   C     C_R   0.022098 0.620504 0.579817 0.096130
C18   C     C_R   0.977956 0.379448 0.419997 0.095192
C19   C     C_R   0.926540 0.615432 0.565432 0.101442
C20   C     C_R   0.073517 0.384517 0.434390 0.099831
C21   C     C_R   0.488515 0.168143 0.611091 -0.169514
C22   C     C_R   0.512978 0.815972 0.382041 -0.179611
C23   C     C_R   0.440920 0.167788 0.604415 -0.193456
C24   C     C_R   0.598350 0.995069 0.504390 0.072960
C25   C     C_R   0.560449 0.816222 0.388755 -0.188698
C26   C     C_R   0.984416 0.677016 0.614301 -0.169502
C27   C     C_R   0.015631 0.322925 0.385539 -0.168857
C28   C     C_R   0.936751 0.674145 0.608016 -0.193610
C29   C     C_R   0.063297 0.325794 0.391829 -0.192604
C30   C     C_R   0.466442 0.052852 0.525301 0.029531
C31   C     C_R   0.537147 0.934191 0.461292 0.027800
C32   C     C_R   0.514134 0.052853 0.532855 0.026673
C33   C     C_R   0.489535 0.934213 0.453766 0.025990
C34   C     C_R   0.963729 0.558218 0.531387 0.029418
C35   C     C_R   0.119777 0.386142 0.444940 -0.189868
C36   C     C_R   0.036336 0.441742 0.468406 0.029615
C37   C     C_R   0.011119 0.560248 0.539775 0.025663
C38   C     C_R   0.988945 0.439713 0.460015 0.025749
C39   C     C_R   0.952905 0.498287 0.490787 -0.023422
C40   C     C_R   0.047163 0.501678 0.508995 -0.022813
C41   C     C_R   0.454696 0.994200 0.484256 -0.023964
C42   C     C_R   0.549814 0.994022 0.499678 -0.024807
C43   C     C_R   0.893141 0.435339 0.445728 -0.019502
C44   C     C_R   0.106918 0.564632 0.554065 -0.019796
C45   C     C_R   0.127698 0.441735 0.495371 -0.007856
C46   C     C_R   0.880278 0.613806 0.554899 -0.195908
C47   C     C_R   0.872365 0.558237 0.504433 -0.009847
C48   C     C_R   0.393823 0.934116 0.440109 -0.016664
C49   C     C_R   0.613523 0.056840 0.536631 -0.024168
C50   C     C_R   0.631976 0.934009 0.477226 0.003351
C51   C     C_R   0.374626 0.057092 0.499189 -0.007917
C52   C     C_R   0.843640 0.434923 0.442699 -0.222773
C53   C     C_R   0.156414 0.565054 0.557110 -0.224671
C54   C     C_R   0.167497 0.438762 0.524385 -0.225739
C55   C     C_R   0.832560 0.561225 0.475435 -0.234438
C56   C     C_R   0.343825 0.934490 0.439539 -0.224291
C57   C     C_R   0.929735 0.376876 0.414739 -0.182139
C58   C     C_R   0.667859 0.060613 0.523064 -0.209724
C59   C     C_R   0.678112 0.935263 0.489341 -0.258734
C60   C     C_R   0.333620 0.060940 0.472600 -0.235381
C61   C     C_R   0.821229 0.500083 0.438837 0.412477
C62   C     C_R   0.178840 0.499911 0.560946 0.424674
C63   C     C_R   0.321255 0.999934 0.436981 0.414459
C64   C     C_R   0.701870 0.000608 0.488848 0.418876
C65   C     C_3   0.810985 0.514199 0.313884 0.128738
C66   C     C_3   0.820627 0.442811 0.262989 -0.825128
C67   C     C_3   0.189116 0.485521 0.685825 0.122112
C68   C     C_R   0.070314 0.623079 0.585081 -0.182234
C69   C     C_3   0.179058 0.556788 0.737080 -0.828607
C70   C     C_3   0.308422 0.014341 0.314637 0.136351
C71   C     C_3   0.316187 0.943055 0.264272 -0.840314
C72   C     C_3   0.789814 0.978850 0.372675 0.126009
C73   C     C_3   0.815975 0.041579 0.307822 -0.776578
C74   C     C_R   0.619764 0.875233 0.436486 -0.196839
C75   C     C_R   0.383864 0.111857 0.549142 -0.196135
C76   C     C_R   0.429322 0.874592 0.408798 -0.192056
C77   C     C_R   0.296437 0.727947 0.325157 0.934016
C78   C     C_R   0.574995 0.112786 0.576823 -0.187586
C79   C     C_R   0.721118 0.263516 0.952948 0.158942
C80   C     C_R   0.286218 0.749257 0.041163 0.148313
C81   C     C_R   0.279123 0.262048 0.047122 0.161651
C82   C     C_R   0.720753 0.738061 0.953043 0.165981
C83   C     C_R   0.227749 0.773316 0.946825 0.158792
C84   C     C_R   0.779307 0.237856 0.047001 0.158016
C85   C     C_R   0.779032 0.762202 0.047261 0.162793
C86   C     C_R   0.220677 0.238162 0.953104 0.162174
C87   C     C_R   0.771487 0.297538 0.925645 -0.162392
C88   C     C_R   0.298820 0.267883 0.323449 0.930791
C89   C     C_R   0.235698 0.715456 0.068878 -0.159465
C90   C     C_R   0.230094 0.298197 0.072984 -0.167654
C91   C     C_R   0.769801 0.702011 0.927301 -0.169557
C92   C     C_R   0.278306 0.807341 0.918771 -0.158948
C93   C     C_R   0.728957 0.203812 0.074288 -0.162730
C94   C     C_R   0.729977 0.798238 0.073026 -0.171391
C95   C     C_R   0.269697 0.201998 0.927263 -0.166853
C96   C     C_R   0.800205 0.285044 0.972426 -0.089359
C97   C     C_R   0.206936 0.727089 0.022145 -0.095507
C98   C     C_R   0.201248 0.286600 0.026145 -0.094755
C99   C     C_R   0.701205 0.732044 0.676545 0.951939
C100  C     C_R   0.798563 0.713732 0.974245 -0.091639
C101  C     C_R   0.307225 0.795621 0.965716 -0.092083
C102  C     C_R   0.700253 0.216275 0.027485 -0.084659
C103  C     C_R   0.701213 0.786514 0.026083 -0.088462
C104  C     C_R   0.298545 0.213599 0.974096 -0.093627
C105  C     C_R   0.640275 0.320247 0.952052 0.340522
C106  C     C_R   0.364044 0.686939 0.047084 0.339677
C107  C     C_R   0.361217 0.317070 0.046648 0.341077
C108  C     C_R   0.638733 0.682940 0.953418 0.336363
C109  C     C_R   0.146189 0.829109 0.947120 0.340231
C110  C     C_R   0.201591 0.768293 0.676261 0.923836
C111  C     C_R   0.859701 0.180031 0.048154 0.340869
C112  C     C_R   0.861066 0.817333 0.046821 0.343127
C113  C     C_R   0.138597 0.183167 0.953514 0.343838
C114  C     C_R   0.611771 0.339336 0.904682 -0.236710
C115  C     C_R   0.380922 0.648966 0.102600 -0.246737
C116  C     C_R   0.389432 0.337309 0.094191 -0.236120
C117  C     C_R   0.610524 0.662714 0.905861 -0.243963
C118  C     C_R   0.115060 0.843441 0.902577 -0.238400
C119  C     C_R   0.888282 0.160916 0.095388 -0.233414
C120  C     C_R   0.889287 0.837551 0.094354 -0.238533
C121  C     C_R   0.799032 0.232784 0.323453 0.907448
C122  C     C_R   0.110444 0.162840 0.905906 -0.238346
C123  C     C_R   0.626039 0.308178 0.821672 0.287638
C124  C     C_R   0.351477 0.653943 0.195335 0.271825
C125  C     C_R   0.374639 0.307111 0.177833 0.295123
C126  C     C_R   0.625352 0.692869 0.822186 0.287322
C127  C     C_R   0.127912 0.809545 0.821723 0.282998
C128  C     C_R   0.874389 0.192719 0.177997 0.279309
C129  C     C_R   0.874471 0.807452 0.178034 0.274119
C130  C     C_R   0.125277 0.192992 0.822217 0.285215
C131  C     C_R   0.677397 0.278558 0.773323 -0.140424
C132  C     C_R   0.798779 0.767970 0.323485 0.895374
C133  C     C_R   0.316474 0.710991 0.231478 -0.133938
C134  C     C_R   0.322854 0.277972 0.226547 -0.139731
C135  C     C_R   0.677171 0.721914 0.773451 -0.141815
C136  C     C_R   0.179278 0.780606 0.772362 -0.134065
C137  C     C_R   0.823196 0.222878 0.226323 -0.140766
C138  C     C_R   0.822708 0.778288 0.226701 -0.138963
C139  C     C_R   0.177072 0.222126 0.773516 -0.142789
C140  C     C_R   0.708438 0.263945 0.816585 -0.314980
C141  C     C_R   0.296458 0.746535 0.179888 -0.323989
C142  C     C_R   0.291616 0.263144 0.183464 -0.337784
C143  C     C_R   0.201162 0.232144 0.676568 0.925528
C144  C     C_R   0.708405 0.736707 0.816551 -0.327777
C145  C     C_R   0.212108 0.768904 0.813236 -0.321500
C146  C     C_R   0.792297 0.237981 0.182983 -0.325983
C147  C     C_R   0.791440 0.763518 0.183669 -0.342387
C148  C     C_R   0.208260 0.237014 0.816674 -0.339135
C149  C     C_R   0.693400 0.127926 0.527671 0.918632
C150  C     C_R   0.309395 0.869850 0.461696 0.908489
C151  C     C_R   0.304581 0.127404 0.478764 0.912122
C152  C     C_R   0.701336 0.870638 0.504231 0.911965
C153  C     C_R   0.190690 0.629852 0.537170 0.931604
C154  C     C_R   0.906464 0.497476 0.479658 0.067724
C155  C     C_R   0.809327 0.370136 0.462766 0.916622
C156  C     C_R   0.804285 0.627520 0.479395 0.918157
C157  C     C_R   0.195744 0.372477 0.520513 0.919300
C158  C     C_R   0.688715 0.280968 0.907451 -0.021645
C159  C     C_R   0.317523 0.730434 0.088324 -0.010429
C160  C     C_R   0.311909 0.278909 0.092130 -0.014386
C161  C     C_R   0.688050 0.721065 0.907934 -0.012104
C162  C     C_R   0.194497 0.789605 0.902303 -0.020911
C163  C     C_R   0.811723 0.220291 0.092404 -0.019964
C164  C     C_R   0.811750 0.779217 0.092327 -0.016810
Cl1   Cl    Cl    0.617410 0.345291 0.066126 -0.551303
Cl2   Cl    Cl    0.350229 0.581500 0.266127 -0.549983
Cl3   Cl    Cl    0.422006 0.302543 0.218470 -0.531276
Cl4   Cl    Cl    0.577986 0.697477 0.781540 -0.517009
Cl5   Cl    Cl    0.078816 0.799915 0.785105 -0.575589
Cl6   Cl    Cl    0.922038 0.198005 0.218064 -0.588346
Cl7   Cl    Cl    0.921812 0.802967 0.218748 -0.551915
Cl8   Cl    Cl    0.077944 0.197505 0.781509 -0.538592
Cl9   Cl    Cl    0.397999 0.678311 0.927914 -0.551767
Cl10  Cl    Cl    0.385780 0.339295 0.931256 -0.568587
Cl11  Cl    Cl    0.614185 0.660682 0.068804 -0.597061
Cl12  Cl    Cl    0.127359 0.860688 0.057577 -0.551267
Cl13  Cl    Cl    0.881858 0.153931 0.934643 -0.549386
Cl14  Cl    Cl    0.885626 0.839520 0.931412 -0.564137
Cl15  Cl    Cl    0.113937 0.161052 0.068964 -0.561779
Cl16  Cl    Cl    0.578386 0.302517 0.781580 -0.564165
H1    H     H_    0.091657 0.281347 0.365003 0.155944
H2    H     H_    0.850710 0.655938 0.587630 0.167264
H3    H     H_    0.922279 0.330829 0.382494 0.190048
H4    H     H_    0.077752 0.669114 0.617365 0.188609
H5    H     H_    0.647917 0.830964 0.406584 0.159562
H6    H     H_    0.355223 0.154957 0.581781 0.169267
H7    H     H_    0.420936 0.829213 0.376742 0.164050
H8    H     H_    0.582418 0.157496 0.610749 0.190117
H9    H     H_    0.661453 0.189515 0.049806 0.161533
H10   H     H_    0.346067 0.822350 0.942953 0.167661
H11   H     H_    0.336354 0.185307 0.952921 0.158315
H12   H     H_    0.908384 0.718582 0.634864 0.156587
H13   H     H_    0.663375 0.814710 0.047184 0.156183
H14   H     H_    0.168008 0.700457 0.045253 0.159642
H15   H     H_    0.839039 0.311721 0.950057 0.160031
H16   H     H_    0.836398 0.685528 0.953155 0.158158
H17   H     H_    0.163438 0.314891 0.047322 0.158457
H18   H     H_    0.788151 0.334612 0.868945 0.145516
H19   H     H_    0.218867 0.678935 0.126156 0.152570
H20   H     H_    0.214638 0.336237 0.128527 0.143493
H21   H     H_    0.785337 0.663956 0.871770 0.140306
H22   H     H_    0.294921 0.843801 0.861472 0.146560
H23   H     H_    0.008242 0.276488 0.353747 0.181412
H24   H     H_    0.712311 0.166714 0.130968 0.144136
H25   H     H_    0.714442 0.836287 0.128564 0.138921
H26   H     H_    0.285150 0.163949 0.871731 0.141344
H27   H     H_    0.748015 0.239030 0.779985 0.203991
H28   H     H_    0.263184 0.784388 0.211295 0.199448
H29   H     H_    0.251487 0.239012 0.220523 0.195732
H30   H     H_    0.748559 0.760767 0.779487 0.197336
H31   H     H_    0.251522 0.743652 0.776082 0.201852
H32   H     H_    0.752952 0.263531 0.219395 0.202150
H33   H     H_    0.751307 0.739394 0.220737 0.196085
H34   H     H_    0.991799 0.723446 0.646111 0.181151
H35   H     H_    0.248393 0.261137 0.779639 0.196582
H36   H     H_    0.850071 0.544829 0.288445 0.122126
H37   H     H_    0.784356 0.548050 0.297944 0.177849
H38   H     H_    0.781804 0.412349 0.288078 0.272714
H39   H     H_    0.837352 0.453795 0.189874 0.222747
H40   H     H_    0.850142 0.409225 0.271928 0.235535
H41   H     H_    0.215908 0.451914 0.701649 0.178560
H42   H     H_    0.150203 0.454514 0.711046 0.119339
H43   H     H_    0.149378 0.590096 0.728252 0.234502
H44   H     H_    0.162357 0.545607 0.810146 0.223680
H45   H     H_    0.587489 0.770319 0.363133 0.156147
H46   H     H_    0.217712 0.587623 0.712188 0.272987
H47   H     H_    0.348022 0.044008 0.287214 0.117716
H48   H     H_    0.281446 0.049077 0.300499 0.176431
H49   H     H_    0.276820 0.913656 0.291155 0.273212
H50   H     H_    0.331905 0.954046 0.191400 0.221906
H51   H     H_    0.345807 0.908471 0.271650 0.226379
H52   H     H_    0.768206 0.944185 0.346196 0.081070
H53   H     H_    0.822654 0.945289 0.371497 0.200774
H54   H     H_    0.843192 0.072011 0.326290 0.298083
H55   H     H_    0.840438 0.020692 0.238036 0.207088
H56   H     H_    0.413127 0.212735 0.632324 0.156614
H57   H     H_    0.784073 0.077800 0.310210 0.225775
H58   H     H_    0.504233 0.769878 0.351438 0.166871
H59   H     H_    0.496464 0.213344 0.643941 0.181342
H60   H     H_    0.149334 0.343987 0.412261 0.168772
O1    O     O_R   0.746490 0.236330 0.638080 -0.643724
O2    O     O_R   0.325830 0.813840 0.483730 -0.645247
O3    O     O_R   0.325830 0.186160 0.483730 -0.636063
O4    O     O_R   0.674170 0.813840 0.516270 -0.620274
O5    O     O_R   0.174170 0.686160 0.516270 -0.641408
O6    O     O_R   0.825830 0.313840 0.483730 -0.639623
O7    O     O_R   0.825830 0.686160 0.483730 -0.632792
O8    O     O_R   0.174170 0.313840 0.516270 -0.637897
O9    O     O_R   0.739960 0.127620 0.525000 -0.554970
O10   O     O_R   0.260040 0.872380 0.475000 -0.561437
O11   O     O_R   0.260040 0.127620 0.475000 -0.579278
O12   O     O_R   0.253510 0.763670 0.361920 -0.651914
O13   O     O_R   0.739960 0.872380 0.525000 -0.586879
O14   O     O_R   0.239960 0.627620 0.525000 -0.544385
O15   O     O_R   0.760040 0.372380 0.475000 -0.563207
O16   O     O_R   0.760040 0.627620 0.475000 -0.579068
O17   O     O_R   0.239960 0.372380 0.525000 -0.572596
O18   O     O_R   0.680700 0.294870 0.629350 -0.566283
O19   O     O_R   0.319300 0.705130 0.370650 -0.576719
O20   O     O_R   0.319300 0.294870 0.370650 -0.552074
O21   O     O_R   0.680700 0.705130 0.629350 -0.560244
O22   O     O_R   0.180700 0.794870 0.629350 -0.569210
O23   O     O_R   0.253510 0.236330 0.361920 -0.669064
O24   O     O_R   0.819300 0.205130 0.370650 -0.581260
O25   O     O_R   0.819300 0.794870 0.370650 -0.589656
O26   O     O_R   0.180700 0.205130 0.629350 -0.559552
O27   O     O_R   0.062020 0.072840 0.007170 -0.560468
O28   O     O_R   0.937980 0.927160 0.992830 -0.561135
O29   O     O_R   0.937980 0.072840 0.992830 -0.561234
O30   O     O_R   0.062020 0.927160 0.007170 -0.561905
O31   O     O_R   0.562020 0.572840 0.007170 -0.571623
O32   O     O_R   0.437980 0.427160 0.992830 -0.569869
O33   O     O_R   0.437980 0.572840 0.992830 -0.565467
O34   O     O_R   0.746490 0.763670 0.638080 -0.656120
O35   O     O_R   0.562020 0.427160 0.007170 -0.563634
O36   O     O_R   0.947860 0.073950 0.109290 -0.585400
O37   O     O_R   0.052140 0.926050 0.890710 -0.574847
O38   O     O_R   0.052140 0.073950 0.890710 -0.577841
O39   O     O_R   0.947860 0.926050 0.109290 -0.586778
O40   O     O_R   0.447860 0.573950 0.109290 -0.581115
O41   O     O_R   0.552140 0.426050 0.890710 -0.576714
O42   O     O_R   0.552140 0.573950 0.890710 -0.572509
O43   O     O_R   0.447860 0.426050 0.109290 -0.558558
O44   O     O_3   0.783694 0.502058 0.408294 -0.574268
O45   O     O_R   0.246490 0.736330 0.638080 -0.653538
O46   O     O_3   0.216381 0.497956 0.591477 -0.567816
O47   O     O_3   0.282544 0.002231 0.408992 -0.572753
O48   O     O_3   0.757121 0.004922 0.462164 -0.574735
O49   O     O_R   0.753510 0.263670 0.361920 -0.650216
O50   O     O_R   0.753510 0.736330 0.361920 -0.670100
O51   O     O_R   0.246490 0.263670 0.638080 -0.666330
O52   O     O_R   0.674170 0.186160 0.516270 -0.643495
Zn1   Zn    Zn3+2 0.792340 0.208750 0.507670 1.036228
Zn2   Zn    Zn3+2 0.494040 0.500000 0.919480 1.172723
Zn3   Zn    Zn3+2 0.005960 1.000000 0.080520 1.159785
Zn4   Zn    Zn3+2 0.994040 1.000000 0.919480 1.174214
Zn5   Zn    Zn3+2 0.207660 0.791250 0.492330 1.036276
Zn6   Zn    Zn3+2 0.207660 0.208750 0.492330 1.030439
Zn7   Zn    Zn3+2 0.792340 0.791250 0.507670 1.016408
Zn8   Zn    Zn3+2 0.292340 0.708750 0.507670 1.039000
Zn9   Zn    Zn3+2 0.707660 0.291250 0.492330 1.037811
Zn10  Zn    Zn3+2 0.707660 0.708750 0.492330 1.029224
Zn11  Zn    Zn3+2 0.292340 0.291250 0.507670 1.044124
Zn12  Zn    Zn3+2 0.505960 0.500000 0.080520 1.174323

loop_
_geom_bond_atom_site_label_1
_geom_bond_atom_site_label_2
_ccdc_geom_bond_type
C125  C134  A    
C15   C75   A    
C31   C42   A    
O26   Zn6   S    
C4    O38   A    
C5    O39   A    
C14   C33   A    
C79   C87   A    
C19   C46   A    
C16   C31   A    
C124  C133  A    
C50   C59   A    
C70   H48   S    
C152  O4    A    
C8    O31   A    
C147  C164  A    
O49   Zn9   S    
C49   C78   A    
C9    O43   A    
C131  C140  A    
C13   C51   A    
C44   C53   A    
C113  C122  A    
O22   Zn5   S    
C79   C102  A    
C91   C100  A    
C117  C126  A    
O16   Zn10  S    
C63   O47   S    
C119  C128  A    
C64   O48   S    
C24   C50   A    
C13   C41   A    
C109  C118  A    
C100  H16   S    
C112  C164  A    
C39   C154  A    
C137  C146  A    
C127  C136  A    
C112  C120  A    
O17   Zn11  S    
C80   C159  S    
C82   C91   A    
C120  C129  A    
C60   C151  S    
C14   C76   A    
C66   H39   S    
C105  C158  A    
O38   Zn4   S    
C4    C122  S    
C73   H54   S    
C81   C90   A    
C113  Cl15  S    
C9    O32   A    
O24   Zn1   S    
C10   O33   A    
C35   C45   A    
C140  H27   S    
C15   C30   A    
C112  Cl14  S    
C1    O18   A    
C16   C25   A    
C68   H4    S    
O3    Zn11  S    
C9    C116  S    
C72   C73   S    
C1    C131  S    
C156  O7    A    
C106  C115  A    
C52   C61   A    
C18   C38   A    
C141  H28   S    
O34   Zn7   S    
C65   H37   S    
O39   Zn3   S    
C25   H45   S    
C106  Cl9   S    
C84   C93   A    
C157  O8    A    
C86   C95   A    
C151  O3    A    
C2    C40   A    
C99   O21   A    
C70   O47   S    
C89   C97   A    
C111  Cl13  S    
C85   C164  S    
C71   H51   S    
C87   H18   S    
C7    O37   A    
C53   C153  S    
C27   C29   A    
C48   C76   A    
C110  C136  S    
C69   H46   S    
C79   C158  S    
C4    O27   A    
O37   Zn4   S    
C27   H23   S    
O28   Zn4   S    
C37   C40   A    
C50   C74   A    
C38   C39   A    
C43   C52   A    
C106  C159  A    
C108  Cl11  S    
C102  H9    S    
C111  C119  A    
C85   C94   A    
O23   Zn6   S    
C121  C137  S    
C67   H41   S    
C140  C158  A    
C132  O25   A    
C20   C35   A    
C139  C143  S    
C141  C159  A    
C96   H15   S    
C157  O17   A    
C2    C44   A    
C22   C25   A    
C30   C41   A    
C43   C154  A    
C6    O36   A    
C74   H5    S    
C95   H26   S    
C81   C160  S    
O8    Zn6   S    
C99   O34   A    
C8    C117  S    
C150  O10   A    
C2    C45   A    
C58   C64   A    
C139  C148  A    
O11   Zn6   S    
C34   C39   A    
O35   Zn12  S    
C69   H43   S    
O15   Zn9   S    
C62   O46   S    
C8    O42   A    
C71   H49   S    
O52   Zn9   S    
C77   O12   A    
O27   Zn3   S    
C19   C28   A    
C84   C163  S    
C114  C123  A    
C21   H59   S    
C83   C162  S    
C116  C125  A    
O45   Zn8   S    
C75   H6    S    
C118  C127  A    
C56   C150  S    
C6    C119  S    
C92   H22   S    
C72   H52   S    
C98   H17   S    
C108  C117  A    
C7    O30   A    
O12   Zn5   S    
C147  H33   S    
C107  Cl10  S    
C127  Cl5   S    
O9    Zn1   S    
O21   Zn10  S    
C46   H2    S    
C88   C134  S    
C54   C157  S    
C55   C61   A    
C65   O44   S    
O13   Zn7   S    
C107  C116  A    
O14   Zn8   S    
C43   C57   A    
C77   O19   A    
C51   C60   A    
C142  H29   S    
O32   Zn2   S    
C3    C86   S    
O43   Zn12  S    
C144  C161  A    
C34   C37   A    
C24   C42   A    
O51   Zn11  S    
C144  H30   S    
C107  C160  A    
C59   C152  S    
C52   C155  S    
C125  Cl3   S    
C67   O46   S    
C126  Cl4   S    
C109  C162  A    
C121  O24   A    
O1    Zn1   S    
C152  O13   A    
C132  C138  S    
C72   H53   S    
C80   C89   A    
C66   H40   S    
C130  Cl8   S    
C153  O5    A    
C70   C71   S    
O4    Zn10  S    
C149  O52   A    
C6    O29   A    
O31   Zn12  S    
C130  C139  A    
C149  O9    A    
C89   H19   S    
C5    C120  S    
C70   H47   S    
C101  H10   S    
O42   Zn2   S    
C151  O11   A    
C54   C62   A    
C104  H11   S    
C97   H14   S    
C134  C142  A    
C18   C57   A    
O10   Zn5   S    
C99   C135  S    
C76   H7    S    
C92   C101  A    
C94   C103  A    
C21   C23   A    
C16   C74   A    
C11   O41   A    
C108  C161  A    
C46   C47   A    
C17   C68   A    
C115  C124  A    
C123  C131  A    
C35   H60   S    
C93   C102  A    
C146  H32   S    
C47   C154  A    
O6    Zn1   S    
C133  C141  A    
C26   H34   S    
C143  O26   A    
C33   C41   A    
C36   C38   A    
C66   H38   S    
C14   C22   A    
C110  O45   A    
C105  Cl1   S    
C86   C98   A    
C73   H55   S    
C88   O20   A    
C20   C36   A    
O5    Zn5   S    
C150  O2    A    
C5    O28   A    
C83   C97   A    
C32   C42   A    
C103  H13   S    
C10   O40   A    
C22   H58   S    
O20   Zn11  S    
C153  O14   A    
C128  Cl6   S    
C72   O48   S    
C109  Cl12  S    
O2    Zn8   S    
C83   C92   A    
C59   C64   A    
C29   H1    S    
C60   C63   A    
C17   C26   A    
C51   C75   A    
C90   H20   S    
C145  C162  A    
C84   C96   A    
C11   C114  S    
C93   H24   S    
O29   Zn4   S    
O30   Zn3   S    
C155  O15   A    
C129  C138  A    
C12   C78   A    
C82   C103  A    
C31   C33   A    
O50   Zn10  S    
C136  C145  A    
C58   C149  S    
C15   C23   A    
C3    C148  A    
C12   C32   A    
C7    C118  S    
C94   H25   S    
C77   C133  S    
C28   H12   S    
C20   C29   A    
O18   Zn9   S    
C55   C156  S    
O19   Zn8   S    
O25   Zn7   S    
O40   Zn12  S    
C61   O44   S    
C105  C114  A    
C36   C40   A    
C111  C163  A    
C65   H36   S    
C3    C113  A    
O36   Zn3   S    
C12   C21   A    
C49   C58   A    
O7    Zn7   S    
C67   C69   S    
C67   H42   S    
C128  C137  A    
C73   H57   S    
O41   Zn2   S    
C53   C62   A    
C138  C147  A    
C87   C96   A    
C56   C63   A    
C17   C37   A    
C11   O35   A    
C91   H21   S    
C1    O1    A    
C124  Cl2   S    
C23   H56   S    
C143  O51   A    
C135  C144  A    
C45   C54   A    
C44   C68   A    
C78   H8    S    
C148  H35   S    
C57   H3    S    
C95   C104  A    
C47   C55   A    
C155  O6    A    
C24   C49   A    
C48   C56   A    
C129  Cl7   S    
C18   C27   A    
C142  C160  A    
C123  Cl16  S    
C19   C34   A    
C126  C135  A    
C13   C48   A    
C82   C161  S    
C146  C163  A    
C26   C28   A    
C80   C101  A    
C69   H44   S    
C121  O49   A    
C85   C100  A    
C30   C32   A    
C71   H50   S    
C90   C98   A    
C132  O50   A    
O33   Zn2   S    
C110  O22   A    
C65   C66   S    
C145  H31   S    
C122  C130  A    
C10   C115  S    
C156  O16   A    
C88   O23   A    
C81   C104  A    
