data_mof_unit_36139.cif
_audit_creation_date              2013-03-05T16:13:33-0500
_audit_creation_method            fapswitch 2.2
_symmetry_space_group_name_H-M    P1
_symmetry_Int_Tables_number       1
_space_group_crystal_system       triclinic
_cell_length_a                    10.677487
_cell_length_b                    9.910345
_cell_length_c                    10.677341
_cell_angle_alpha                 89.477158
_cell_angle_beta                  91.207119
_cell_angle_gamma                 89.245118
_cell_volume                      1129.45163896

loop_
_atom_site_label
_atom_site_type_symbol
_atom_site_description
_atom_site_fract_x
_atom_site_fract_y
_atom_site_fract_z
_atom_type_partial_charge
O1    O     O_R   0.316770 0.614620 0.499990 -0.579481
O2    O     O_R   0.683230 0.614620 0.500010 -0.598354
O3    O     O_R   0.316800 0.385290 0.500000 -0.639165
O4    O     O_R   0.683200 0.385290 0.500000 -0.600962
C1    C     C_R   0.260094 0.500348 0.499916 0.866305
C2    C     C_R   0.739701 0.499112 0.499949 0.907099
O5    O     O_R   0.500000 0.614690 0.316780 -0.586105
O6    O     O_R   0.500000 0.614690 0.683220 -0.588180
O7    O     O_R   0.500020 0.385360 0.316780 -0.577726
O8    O     O_R   0.499980 0.385360 0.683220 -0.585275
C3    C     C_R   0.507019 0.500373 0.260257 0.937250
C4    C     C_R   0.507852 0.499350 0.739748 0.935325
Zn1   Zn    Zn3+2 0.500000 0.653120 0.500000 1.061259
Zn2   Zn    Zn3+2 0.500000 0.346880 0.500000 1.042541
C5    C     C_R   0.507976 0.620278 0.061646 0.088004
C6    C     C_R   0.508932 0.619405 0.934442 0.161807
C7    C     C_R   0.532647 0.502190 0.129433 -0.285157
C8    C     C_R   0.532773 0.500353 0.871409 -0.266451
C9    C     C_R   0.586114 0.389451 0.068712 0.199313
C10   C     C_R   0.584882 0.388028 0.937315 0.210960
C11   C     C_3   0.400704 0.715716 0.921348 -0.444115
C12   C     C_3   0.398432 0.715791 0.062902 -0.346787
H1    H     H_    0.428435 0.814151 0.880320 0.250757
H2    H     H_    0.312885 0.668426 0.100210 0.225635
H3    H     H_    0.316453 0.669564 0.877193 0.200215
H4    H     H_    0.423645 0.815143 0.103078 0.259175
C13   C     C_R   0.066803 0.393057 0.558539 -0.158781
C14   C     C_R   0.938187 0.391504 0.557146 -0.102613
H5    H     H_    0.118714 0.312199 0.605973 0.178024
H6    H     H_    0.890783 0.309511 0.603298 0.201157
C15   C     C_R   0.871973 0.497513 0.498383 -0.023874
C16   C     C_R   0.127377 0.499735 0.499773 -0.057211
C17   C     C_R   0.932424 0.602742 0.438028 -0.103126
C18   C     C_R   0.060703 0.602987 0.437866 -0.111816
H7    H     H_    0.880601 0.683068 0.389682 0.187817
H8    H     H_    0.107070 0.681445 0.387179 0.234035
C19   C     C_R   0.600130 0.070801 0.546589 -0.039925
C20   C     C_R   0.399759 0.075039 0.454563 -0.112792
H9    H     H_    0.679520 0.124316 0.585156 0.202536
H10   H     H_    0.320115 0.131859 0.416928 0.190210
C21   C     C_R   0.600278 0.927584 0.548632 0.291358
C22   C     C_R   0.398870 0.932219 0.453998 0.322912
N1    N     N_R   0.500000 0.857200 0.500000 -0.194881
N2    N     N_R   0.500000 0.142810 0.500000 -0.129115
N3    N     N_R   0.643023 0.279720 0.138853 0.248728
O9    O     O_R   0.600294 0.157967 0.128161 -0.320013
O10   O     O_R   0.733684 0.302844 0.218806 -0.371203
N4    N     N_R   0.637811 0.275619 0.872436 0.250576
O11   O     O_R   0.734991 0.292891 0.802935 -0.403848
O12   O     O_R   0.580615 0.160534 0.870673 -0.331544
N5    N     N_R   0.705266 0.858719 0.605999 0.231308
O13   O     O_R   0.818127 0.893014 0.576338 -0.368662
O14   O     O_R   0.689766 0.788017 0.707465 -0.341998
N6    N     N_R   0.289938 0.868961 0.404267 0.211974
O15   O     O_R   0.179858 0.917314 0.431013 -0.396771
O16   O     O_R   0.300330 0.790741 0.308295 -0.430345

loop_
_geom_bond_atom_site_label_1
_geom_bond_atom_site_label_2
_geom_bond_distance
_ccdc_geom_bond_type
C20   H10   1.081944 S    
O7    Zn2   1.989711 S    
C9    N3    1.435710 S    
N6    O16   1.296268 A    
C20   N2    1.354647 A    
C6    C11   1.492541 S    
C13   H5    1.083938 S    
C21   N1    1.380386 A    
C22   N1    1.381963 A    
C8    C10   1.413088 A    
C9    C10   1.402965 A    
Zn1   N1    2.022503 S    
O6    C4    1.288664 A    
C1    C16   1.417153 S    
C6    C8    1.386937 A    
C19   N2    1.360433 A    
N4    O12   1.300925 A    
C17   C18   1.369769 A    
C5    C12   1.495316 S    
C19   H9    1.081918 S    
O4    Zn2   1.997725 S    
C10   N4    1.433281 S    
C11   C12   1.512132 S    
C22   N6    1.423755 S    
O5    C3    1.290542 A    
O7    C3    1.288645 A    
O2    C2    1.286781 A    
O3    Zn2   1.987880 S    
O8    C4    1.288548 A    
O1    C1    1.291030 A    
C14   H6    1.083216 S    
N4    O11   1.300577 A    
C7    C9    1.416545 A    
C2    C15   1.412665 S    
C18   H8    1.075333 S    
C11   H1    1.111976 S    
C19   C21   1.419284 A    
C12   H2    1.112028 S    
O4    C2    1.286203 A    
O1    Zn1   1.998221 S    
C15   C17   1.393716 A    
C20   C22   1.415620 A    
C5    C6    1.358562 A    
O6    Zn1   1.989616 S    
O5    Zn1   1.996439 S    
N5    O14   1.299546 A    
Zn2   N2    2.022405 S    
C12   H4    1.111657 S    
N3    O10   1.301145 A    
C4    C8    1.425379 S    
C13   C14   1.373354 A    
C5    C7    1.389686 A    
O2    Zn1   1.988352 S    
C11   H3    1.112492 S    
N6    O15   1.301732 A    
C3    C7    1.429037 S    
C17   H7    1.084081 S    
C13   C16   1.397408 A    
N3    O9    1.300743 A    
C21   N5    1.428607 S    
C14   C15   1.395339 A    
N5    O13   1.301118 A    
O8    Zn2   1.996542 S    
O3    C1    1.283969 A    
C16   C18   1.392638 A    
