data_mof_unit_18442.cif
_audit_creation_date              2012-12-11T16:24:29-0500
_audit_creation_method            fapswitch 2.2
_symmetry_space_group_name_H-M    P1
_symmetry_Int_Tables_number       1
_space_group_crystal_system       triclinic
_cell_length_a                    14.743196
_cell_length_b                    14.751265
_cell_length_c                    33.310586
_cell_angle_alpha                 96.103466
_cell_angle_beta                  96.165572
_cell_angle_gamma                 61.255995
_cell_volume                      6302.56052793

loop_
_atom_site_label
_atom_site_type_symbol
_atom_type_description
_atom_site_fract_x
_atom_site_fract_y
_atom_site_fract_z
_atom_type_partial_charge
C1    C     C_R   0.391274 0.699078 0.445974 0.542696
C2    C     C_1   0.336962 0.355843 0.225738 0.033669
C3    C     C_1   0.526796 0.202508 0.303131 0.203014
C4    C     C_1   0.508140 0.223572 0.843755 0.217176
C5    C     C_3   0.890108 0.051297 0.810193 -0.113559
C6    C     C_1   0.818070 0.511413 0.612724 0.215694
C7    C     C_1   0.183508 0.839811 0.592326 0.218360
C8    C     C_1   0.198495 0.519386 0.392692 0.262043
C9    C     C_3   0.198091 0.598128 0.302722 -0.101880
C10   C     C_1   0.345479 0.359303 0.262008 0.036850
C11   C     C_R   0.406599 0.386773 0.433595 0.545260
C12   C     C_R   0.291846 0.298820 0.100537 -0.024172
C13   C     C_R   0.752412 0.374885 0.409231 0.021103
C14   C     C_R   0.785798 0.436395 0.392585 -0.124365
C15   C     C_R   0.809974 0.418570 0.352286 -0.112990
C16   C     C_R   0.801324 0.338852 0.328000 0.032269
C17   C     C_R   0.777106 0.271530 0.345647 -0.115871
C18   C     C_R   0.752930 0.289342 0.385991 -0.128286
C19   C     C_R   0.354990 0.360785 0.305414 0.016551
C20   C     C_R   0.816651 0.323460 0.202679 0.355740
C21   C     C_R   0.809482 0.331504 0.284025 0.348559
C22   C     C_R   0.833310 0.395671 0.141449 -0.118724
C23   C     C_R   0.700281 0.410168 0.447379 0.546781
C24   C     C_R   0.868190 0.380550 0.102974 -0.142073
C25   C     C_R   0.890136 0.205526 0.097356 -0.025304
C26   C     C_R   0.854778 0.221721 0.136136 -0.116022
C27   C     C_R   0.831558 0.314638 0.159178 0.024598
C28   C     C_R   0.902801 0.283839 0.081284 0.003560
C29   C     C_R   0.372830 0.751156 0.408374 0.021600
C30   C     C_R   0.443385 0.284267 0.325267 -0.045299
C31   C     C_R   0.279054 0.780688 0.384974 -0.133083
C32   C     C_R   0.270595 0.805290 0.345060 -0.131157
C33   C     C_R   0.355830 0.800520 0.327865 0.035349
C34   C     C_R   0.446413 0.779976 0.352367 -0.114797
C35   C     C_R   0.393230 0.701961 0.561150 0.539248
C36   C     C_R   0.454778 0.755699 0.392335 -0.127127
C37   C     C_R   0.349080 0.818261 0.202922 0.354578
C38   C     C_R   0.352715 0.809420 0.284071 0.335463
C39   C     C_R   0.259082 0.830741 0.134813 -0.163212
C40   C     C_R   0.236903 0.864272 0.095803 -0.141228
C41   C     C_R   0.453891 0.288957 0.367355 -0.155350
C42   C     C_R   0.386619 0.892480 0.102748 -0.111330
C43   C     C_R   0.408351 0.861099 0.142499 0.278330
C44   C     C_R   0.341800 0.833116 0.159280 0.041269
C45   C     C_R   0.297449 0.900291 0.080202 -0.026914
C46   C     C_R   0.371706 0.369873 0.585352 0.020320
C47   C     C_R   0.407401 0.389006 0.549090 0.543998
C48   C     C_R   0.287418 0.450737 0.604914 -0.123570
C49   C     C_R   0.268839 0.441395 0.644031 -0.115252
C50   C     C_R   0.334034 0.350938 0.664153 0.032834
C51   C     C_R   0.412370 0.266751 0.643157 -0.118387
C52   C     C_R   0.409617 0.289012 0.159082 0.286813
C53   C     C_R   0.431101 0.276174 0.604117 -0.129178
C54   C     C_R   0.323820 0.345353 0.788895 0.344117
C55   C     C_R   0.326714 0.347435 0.707698 0.343585
C56   C     C_R   0.219990 0.395495 0.848863 -0.133420
C57   C     C_R   0.206354 0.376991 0.887314 -0.134774
C58   C     C_R   0.389455 0.255768 0.895586 -0.131968
C59   C     C_R   0.701658 0.413504 0.562703 0.541422
C60   C     C_R   0.403998 0.274444 0.857143 -0.010742
C61   C     C_R   0.317411 0.340576 0.832477 0.020807
C62   C     C_R   0.289973 0.303012 0.910079 0.008930
C63   C     C_R   0.393081 0.265352 0.117866 -0.113214
C64   C     C_R   0.754384 0.379967 0.603118 0.003854
C65   C     C_R   0.800298 0.433492 0.627853 -0.019983
C66   C     C_R   0.827983 0.412622 0.668733 -0.118605
C67   C     C_R   0.811539 0.338784 0.685149 0.021745
C68   C     C_R   0.773197 0.280906 0.660409 -0.107155
C69   C     C_R   0.745361 0.300841 0.619750 -0.135057
C70   C     C_R   0.893062 0.208410 0.821883 0.300809
C71   C     C_R   0.377455 0.369560 0.390512 -0.053897
C72   C     C_R   0.921718 0.197946 0.863676 -0.118761
C73   C     C_R   0.867425 0.381687 0.873880 -0.143413
C74   C     C_R   0.207144 0.362050 0.123975 -0.145038
C75   C     C_R   0.840458 0.392584 0.832629 -0.168096
C76   C     C_R   0.856575 0.306041 0.806595 0.061062
C77   C     C_1   0.840521 0.317161 0.763737 0.039109
C78   C     C_1   0.828225 0.326447 0.727853 -0.002536
C79   C     C_R   0.911474 0.283744 0.889583 -0.018794
C80   C     C_R   0.377117 0.755253 0.602092 0.003730
C81   C     C_R   0.277724 0.811773 0.617716 -0.019560
C82   C     C_R   0.269255 0.840491 0.659158 -0.110035
C83   C     C_R   0.284431 0.441618 0.370445 -0.018882
C84   C     C_R   0.358227 0.814346 0.685055 0.026328
C85   C     C_R   0.223136 0.385197 0.164794 -0.162379
C86   C     C_R   0.455851 0.765036 0.669442 -0.114517
C87   C     C_R   0.465288 0.736194 0.628280 -0.136224
C88   C     C_R   0.396609 0.883554 0.832708 -0.109683
C89   C     C_R   0.377249 0.910516 0.873553 -0.124581
C90   C     C_R   0.225282 0.885356 0.862429 -0.121850
C91   C     C_R   0.244829 0.858480 0.821642 -0.100117
C92   C     C_R   0.328886 0.860165 0.806572 0.040741
C93   C     C_1   0.341522 0.844087 0.763907 -0.013197
C94   C     C_1   0.349709 0.831521 0.727964 -0.012823
C95   C     C_R   0.274939 0.439051 0.327844 0.262389
C96   C     C_R   0.323751 0.346925 0.182590 0.044113
C97   C     C_R   0.289503 0.914780 0.888565 0.019460
C98   C     C_R   0.962922 0.264302 0.045521 0.541090
C99   C     C_R   0.272821 0.260063 0.059751 0.546140
C100  C     C_R   0.259316 0.959235 0.043624 0.547044
C101  C     C_R   0.962853 0.267379 0.930696 0.546731
C102  C     C_R   0.270888 0.264013 0.945382 0.547431
C103  C     C_R   0.255980 0.965176 0.928913 0.541679
C104  C     C_1   0.917077 0.106132 0.076135 0.219293
C105  C     C_3   0.558541 0.153601 0.182399 -0.100709
C106  C     C_3   0.473468 0.959766 0.177828 -0.104333
Cr1   Cr    Cr6+3 0.576280 0.580550 0.506370 1.040886
Cr2   Cr    Cr6+3 0.346780 0.572400 0.496520 1.065071
Cr3   Cr    Cr6+3 0.576960 0.347070 0.497150 1.024167
Cr4   Cr    Cr6+3 0.087320 0.083240 0.984860 1.046370
Cr5   Cr    Cr6+3 0.087720 0.316210 0.996740 1.020723
Cr6   Cr    Cr6+3 0.317350 0.090340 0.995890 1.018717
H1    H     H_    0.458954 0.219229 0.099750 0.134378
H2    H     H_    0.168666 0.867493 0.078783 0.167389
H3    H     H_    0.198988 0.822776 0.327150 0.133296
H4    H     H_    0.512848 0.777420 0.340171 0.144086
H5    H     H_    0.207797 0.807928 0.146522 0.151122
H6    H     H_    0.436259 0.916685 0.090577 0.138424
H7    H     H_    0.239833 0.523770 0.591115 0.145009
H8    H     H_    0.496003 0.212159 0.589638 0.135809
H9    H     H_    0.128805 0.415089 0.897885 0.137733
H10   H     H_    0.206837 0.507080 0.659185 0.142407
H11   H     H_    0.462944 0.195305 0.657580 0.140548
H12   H     H_    0.727851 0.240275 0.398054 0.135160
H13   H     H_    0.152508 0.447601 0.830894 0.137657
H14   H     H_    0.455209 0.200676 0.913472 0.132838
H15   H     H_    0.958647 0.121981 0.875538 0.124402
H16   H     H_    0.760955 0.223020 0.672898 0.133923
H17   H     H_    0.711083 0.257839 0.601958 0.142312
H18   H     H_    0.811064 0.467970 0.820741 0.118622
H19   H     H_    0.858971 0.448950 0.893101 0.141129
H20   H     H_    0.525341 0.232102 0.381938 0.151889
H21   H     H_    0.859524 0.456081 0.688089 0.117984
H22   H     H_    0.427908 0.933158 0.892826 0.132466
H23   H     H_    0.873915 0.443294 0.091316 0.142925
H24   H     H_    0.462037 0.884780 0.821241 0.119277
H25   H     H_    0.525091 0.744917 0.689338 0.121168
H26   H     H_    0.542547 0.693040 0.617491 0.147767
H27   H     H_    0.192114 0.840250 0.801570 0.122185
H28   H     H_    0.156891 0.888238 0.872953 0.125950
H29   H     H_    0.193489 0.880303 0.671477 0.124718
H30   H     H_    0.156792 0.429173 0.182914 0.141177
H31   H     H_    0.128251 0.388651 0.111390 0.148004
H32   H     H_    0.787035 0.502295 0.409888 0.141533
H33   H     H_    0.514661 0.135543 0.202571 0.117842
H34   H     H_    0.830541 0.470487 0.339715 0.149304
H35   H     H_    0.636202 0.132047 0.197691 0.185434
H36   H     H_    0.570334 0.105941 0.153315 0.098792
H37   H     H_    0.402608 0.000271 0.195245 0.128841
H38   H     H_    0.465960 0.005278 0.151961 0.094698
H39   H     H_    0.539513 0.955803 0.198355 0.156723
H40   H     H_    0.819422 0.088693 0.827736 0.143300
H41   H     H_    0.958618 0.997403 0.828786 0.106250
H42   H     H_    0.876190 0.004150 0.784517 0.154707
H43   H     H_    0.264609 0.577107 0.284118 0.130183
H44   H     H_    0.207849 0.636189 0.332313 0.117697
H45   H     H_    0.771012 0.208678 0.327791 0.153323
H46   H     H_    0.127115 0.655531 0.286427 0.159653
H47   H     H_    0.813124 0.469308 0.158111 0.152548
H48   H     H_    0.850900 0.159397 0.149118 0.140994
H49   H     H_    0.214283 0.778631 0.396621 0.145900
H50   H     H_    0.527906 0.733869 0.409722 0.136492
N1    N     N_R   0.817014 0.403950 0.226392 -0.216789
N2    N     N_R   0.436342 0.800012 0.266769 -0.225547
N3    N     N_R   0.434371 0.804767 0.227008 -0.149928
N4    N     N_R   0.254698 0.429799 0.768914 -0.234786
N5    N     N_1   0.938533 0.026410 0.059234 -0.295700
N6    N     N_1   0.593837 0.136988 0.285557 -0.310062
N7    N     N_1   0.591633 0.182844 0.833097 -0.301907
N8    N     N_1   0.832431 0.573882 0.600677 -0.281975
N9    N     N_1   0.107915 0.862386 0.572020 -0.276613
N10   N     N_1   0.129639 0.581699 0.410407 -0.278369
N11   N     N_R   0.256612 0.431080 0.729126 -0.232645
N12   N     N_R   0.394976 0.262757 0.727667 -0.226623
N13   N     N_R   0.393076 0.261527 0.767387 -0.201942
N14   N     N_R   0.813121 0.408088 0.266224 -0.217075
N15   N     N_R   0.808134 0.251319 0.260327 -0.216661
N16   N     N_R   0.812351 0.247022 0.220425 -0.217490
N17   N     N_R   0.265985 0.826539 0.220259 -0.242771
N18   N     N_R   0.267878 0.821802 0.259966 -0.238958
O1    O     O_R   0.679450 0.499830 0.463150 -0.513181
O2    O     O_R   0.340240 0.172500 0.045430 -0.518150
O3    O     O_R   0.309670 0.000990 0.032050 -0.504985
O4    O     O_R   0.480650 0.664000 0.464630 -0.503764
O5    O     O_R   0.168330 0.982130 0.939200 -0.520239
O6    O     O_R   0.000140 0.178170 0.944610 -0.502361
O7    O     O_R   0.983010 0.336750 0.948660 -0.516000
O8    O     O_R   0.181800 0.312190 0.959860 -0.500825
O9    O     O_R   0.338500 0.175680 0.956950 -0.516587
O10   O     O_R   0.308050 0.003930 0.950020 -0.501080
O11   O     O_3   0.164130 0.163270 0.992500 -0.244295
O12   O     O_R   0.356040 0.477400 0.534170 -0.497823
O13   O     O_R   0.323930 0.675950 0.455370 -0.504843
O14   O     O_R   0.354700 0.475360 0.451930 -0.485659
O15   O     O_R   0.494470 0.320860 0.448390 -0.516666
O16   O     O_R   0.662580 0.357570 0.460050 -0.502767
O17   O     O_R   0.680900 0.502040 0.551870 -0.496558
O18   O     O_R   0.481990 0.666040 0.546870 -0.503405
O19   O     O_R   0.325370 0.678160 0.544080 -0.494656
O20   O     O_3   0.508817 0.260176 0.176019 -0.546066
O21   O     O_3   0.494561 0.857805 0.164719 -0.539166
O22   O     O_3   0.910543 0.124322 0.794433 -0.561151
O23   O     O_R   0.495910 0.323070 0.537100 -0.518914
O24   O     O_3   0.185636 0.511161 0.307976 -0.555272
O25   O     O_R   0.663920 0.359620 0.542290 -0.503295
O26   O     O_3   0.500010 0.500010 0.500010 -0.251706
O27   O     O_R   0.170070 0.978950 0.027680 -0.496813
O28   O     O_R   0.001760 0.175230 0.026640 -0.480574
O29   O     O_R   0.984760 0.333570 0.037150 -0.523406
O30   O     O_R   0.183410 0.309240 0.041890 -0.497707

loop_
_geom_bond_atom_site_label_1
_geom_bond_atom_site_label_2
_ccdc_geom_bond_type
C37   N3    A    
C70   O22   S    
C74   H31   S    
C31   H49   S    
Cr4   O5    S    
Cr5   O11   S    
C16   C21   S    
C106  H38   S    
C12   C74   A    
C8    C83   S    
C51   H11   S    
Cr4   O11   S    
C103  O5    A    
C11   O14   A    
C43   C44   A    
C73   H19   S    
C81   C82   A    
C53   H8    S    
C35   O19   A    
C57   C62   A    
C77   C78   T    
C25   C28   A    
C29   C36   A    
Cr5   O8    S    
C93   C94   T    
C5    H40   S    
C13   C18   A    
Cr1   O1    S    
N2    N3    A    
C11   O15   A    
C23   O1    A    
C72   C79   A    
C7    N9    T    
C85   C96   A    
C11   C71   S    
C22   H47   S    
C34   H4    S    
C15   C16   A    
C105  H35   S    
C35   C80   S    
C102  O9    A    
C56   C57   A    
C13   C23   S    
Cr3   O16   S    
C47   O12   A    
C100  O3    A    
N12   N13   A    
C55   N11   A    
Cr1   O26   S    
C86   H25   S    
Cr6   O9    S    
C100  O27   A    
C105  O20   S    
C40   H2    S    
C88   C92   A    
C9    H44   S    
C16   C17   A    
C99   O2    A    
C23   O16   A    
C43   O21   S    
C30   C41   A    
C26   H48   S    
Cr4   O27   S    
C52   O20   S    
Cr6   O3    S    
C17   H45   S    
C68   H16   S    
C90   C97   A    
C75   H18   S    
C41   C71   A    
C59   O25   A    
C38   N2    A    
C66   C67   A    
C83   C95   A    
C74   C85   A    
C106  H37   S    
C13   C14   A    
C89   H22   S    
C36   H50   S    
C73   C75   A    
C41   H20   S    
C98   O28   A    
C67   C78   S    
C54   N4    A    
C82   H29   S    
N1    N14   A    
C1    O4    A    
C3    N6    T    
C50   C51   A    
C48   H7    S    
C71   C83   A    
C6    C65   S    
C40   C45   A    
C37   N17   A    
C98   O29   A    
C14   H32   S    
C38   N18   A    
C4    N7    T    
C72   H15   S    
C67   C68   A    
Cr3   O23   S    
C76   C77   S    
C88   H24   S    
C37   C44   S    
Cr2   O26   S    
C91   C92   A    
Cr1   O17   S    
C12   C63   A    
C86   C87   A    
C68   C69   A    
C20   N16   A    
C95   O24   S    
C39   H5    S    
C105  H36   S    
C57   H9    S    
C45   C100  S    
C102  O8    A    
C89   C97   A    
C60   C61   A    
C51   C53   A    
C42   C45   A    
C54   N13   A    
C3    C30   S    
C1    O13   A    
C75   C76   A    
Cr5   O29   S    
C55   N12   A    
C9    O24   S    
Cr1   O18   S    
C66   H21   S    
C31   C32   A    
C10   C19   S    
C21   N14   A    
C105  H33   S    
C4    C60   S    
C1    C29   S    
C17   C18   A    
C73   C79   A    
C47   O23   A    
C103  O10   A    
C84   C94   S    
C64   C69   A    
Cr3   O25   S    
C5    H42   S    
C97   C103  S    
Cr2   O12   S    
C58   C62   A    
C91   H27   S    
C24   H23   S    
C48   C49   A    
C7    C81   S    
Cr4   O28   S    
N15   N16   A    
C82   C84   A    
C22   C27   A    
C26   C27   A    
C22   C24   A    
C42   C43   A    
C87   H26   S    
Cr2   O14   S    
C101  O6    A    
C2    C10   T    
C5    O22   S    
C19   C95   A    
C6    N8    T    
C28   C98   S    
C46   C47   S    
Cr4   O6    S    
N4    N11   A    
C106  H39   S    
C56   C61   A    
C54   C61   S    
C42   H6    S    
C24   C28   A    
C84   C86   A    
C80   C81   A    
C52   C63   A    
C85   H30   S    
C15   H34   S    
C90   H28   S    
C12   C99   S    
C25   C104  S    
C58   H14   S    
C39   C44   A    
C20   C27   S    
Cr6   O11   S    
C80   C87   A    
Cr5   O7    S    
C50   C55   S    
Cr1   O4    S    
C32   C33   A    
Cr2   O19   S    
C2    C96   S    
C25   C26   A    
Cr5   O30   S    
C29   C31   A    
C64   C65   A    
C106  O21   S    
C70   C76   A    
C20   N1    A    
C90   C91   A    
C9    H46   S    
C59   O17   A    
C5    H41   S    
C49   H10   S    
C46   C53   A    
C21   N15   A    
C92   C93   S    
C33   C34   A    
C52   C96   A    
Cr3   O15   S    
C34   C36   A    
C65   C66   A    
C32   H3    S    
Cr6   O2    S    
Cr3   O26   S    
Cr6   O10   S    
N17   N18   A    
C63   H1    S    
C46   C48   A    
C59   C64   S    
C39   C40   A    
C88   C89   A    
C9    H43   S    
C69   H17   S    
C49   C50   A    
C14   C15   A    
C79   C101  S    
C33   C38   S    
C70   C72   A    
C62   C102  S    
Cr2   O13   S    
C101  O7    A    
C19   C30   A    
C58   C60   A    
C56   H13   S    
C8    N10   T    
C35   O18   A    
C18   H12   S    
C104  N5    T    
C99   O30   A    
