data_mof_unit_38164.cif
_audit_creation_date              2012-12-11T17:11:45-0500
_audit_creation_method            fapswitch 2.2
_symmetry_space_group_name_H-M    P1
_symmetry_Int_Tables_number       1
_space_group_crystal_system       triclinic
_cell_length_a                    15.004069
_cell_length_b                    6.944755
_cell_length_c                    13.675581
_cell_angle_alpha                 89.98787
_cell_angle_beta                  100.993043
_cell_angle_gamma                 89.892708
_cell_volume                      1398.83908056

loop_
_atom_site_label
_atom_site_type_symbol
_atom_type_description
_atom_site_fract_x
_atom_site_fract_y
_atom_site_fract_z
_atom_type_partial_charge
O1    O     O_R   0.398250 0.605080 0.401520 -0.540833
O2    O     O_R   0.898250 0.394920 0.901520 -0.536624
O3    O     O_R   0.584130 0.932110 0.405450 -0.543850
O4    O     O_R   0.084130 0.067890 0.905450 -0.544093
O5    O     O_R   0.601750 0.105090 0.598480 -0.537741
O6    O     O_R   0.101750 0.894910 0.098480 -0.542616
C1    C     C_R   0.611566 0.761422 0.382789 0.708901
C2    C     C_R   0.114026 0.237980 0.885879 0.704806
O7    O     O_R   0.397870 0.934620 0.389680 -0.543275
O8    O     O_R   0.897870 0.065380 0.889680 -0.535153
O9    O     O_R   0.414160 0.107620 0.582600 -0.511682
O10   O     O_R   0.914160 0.892380 0.082600 -0.513297
C3    C     C_R   0.364029 0.765815 0.362620 0.727366
C4    C     C_R   0.864206 0.234440 0.862410 0.757914
O11   O     O_R   0.585840 0.602550 0.417400 -0.529572
O12   O     O_R   0.085840 0.397450 0.917400 -0.533324
O13   O     O_3   0.505560 0.772440 0.563310 -0.361725
O14   O     O_3   0.005560 0.227560 0.063310 -0.370894
V1    V     V_3+5 0.498970 0.046250 0.488250 1.477706
V2    V     V_3+5 0.998970 0.953750 0.988250 1.491773
O15   O     O_R   0.415870 0.437500 0.594550 -0.545013
O16   O     O_R   0.915870 0.562500 0.094550 -0.543463
C5    C     C_R   0.386966 0.267924 0.614540 0.758062
C6    C     C_R   0.887766 0.732447 0.115730 0.767399
O17   O     O_R   0.602130 0.434980 0.610320 -0.539008
O18   O     O_R   0.102130 0.565020 0.110320 -0.544268
C7    C     C_R   0.636012 0.265842 0.637250 0.747900
C8    C     C_R   0.136018 0.733977 0.137260 0.717966
V3    V     V_3+5 0.501030 0.546580 0.511750 1.479871
V4    V     V_3+5 0.001030 0.453420 0.011750 1.484239
O19   O     O_3   0.494440 0.270520 0.436690 -0.376414
O20   O     O_3   0.994440 0.729480 0.936690 -0.368203
C9    C     C_1   0.716575 0.255224 0.716568 -0.178086
C10   C     C_1   0.216396 0.744655 0.216823 -0.179521
C11   C     C_1   0.784000 0.245339 0.782626 -0.189781
C12   C     C_1   0.283693 0.755122 0.283005 -0.185179
C13   C     C_2   0.307917 0.116242 0.739840 0.446203
C14   C     C_2   0.759068 0.876716 0.182382 0.463890
C15   C     C_2   0.314247 0.257823 0.673018 -0.309781
C16   C     C_2   0.827440 0.745988 0.189058 -0.299853
H1    H     H_    0.263959 0.370382 0.656673 0.110873
H2    H     H_    0.841603 0.645093 0.250362 0.103540
C17   C     C_2   0.231587 0.108724 0.797527 -0.334359
C18   C     C_2   0.699956 0.887997 0.260181 -0.349366
C19   C     C_2   0.186037 0.261078 0.825584 -0.177887
C20   C     C_2   0.671808 0.736637 0.308656 -0.182657
H3    H     H_    0.214913 0.967741 0.822529 0.158565
H4    H     H_    0.674869 0.029375 0.274672 0.157619
O21   O     O_3   0.367562 0.961481 0.745385 -0.540191
C21   C     C_3   0.409516 0.925709 0.845149 0.115886
H5    H     H_    0.360805 0.860921 0.887439 0.155593
H6    H     H_    0.437732 0.060289 0.883116 0.096627
C22   C     C_3   0.486953 0.783474 0.846090 -0.638697
H7    H     H_    0.539993 0.848738 0.809972 0.202980
H8    H     H_    0.517379 0.744132 0.923934 0.162618
H9    H     H_    0.461253 0.650485 0.805163 0.243891
O22   O     O_3   0.750939 0.014831 0.107305 -0.542582
C23   C     C_3   0.658985 0.051422 0.065271 0.118534
H10   H     H_    0.627244 0.143974 0.115329 0.163363
H11   H     H_    0.619592 0.915382 0.049968 0.108214
C24   C     C_3   0.654302 0.158159 0.967386 -0.685516
H12   H     H_    0.679108 0.063220 0.912949 0.204995
H13   H     H_    0.583245 0.201099 0.936671 0.168555
H14   H     H_    0.696848 0.289966 0.979370 0.235044
C25   C     C_2   0.210730 0.461797 0.806113 0.756146
O23   O     O_2   0.287087 0.521509 0.839256 -0.580662
O24   O     O_R   0.146051 0.580442 0.748186 -0.659885
H15   H     H_    0.172679 0.706019 0.729830 0.291260
C26   C     C_2   0.694204 0.535610 0.285481 0.758357
O25   O     O_2   0.675845 0.476053 0.199885 -0.576927
O26   O     O_R   0.737623 0.416327 0.362396 -0.661838
H16   H     H_    0.757412 0.289259 0.337227 0.287159

loop_
_geom_bond_atom_site_label_1
_geom_bond_atom_site_label_2
_ccdc_geom_bond_type
C13   C17   S    
C24   H14   S    
V4    O20   S    
C14   C18   S    
O5    V1    S    
O17   C7    A    
C14   O22   S    
O13   V3    S    
O10   C6    A    
O18   C8    A    
O2    V4    S    
O4    C2    A    
V1    O19   S    
O3    V1    S    
O10   V2    S    
C23   C24   S    
O1    V3    S    
C21   H5    S    
C8    C10   S    
O26   H16   S    
C13   C15   D    
C22   H7    S    
C7    C9    S    
C14   C16   D    
C17   C19   D    
O9    V1    S    
O22   C23   S    
C24   H12   S    
O15   V3    S    
O6    V2    S    
C3    C12   S    
V2    O20   S    
O14   V4    S    
C1    O11   A    
C9    C11   T    
C18   C20   D    
O11   V3    S    
O3    C1    A    
C10   C12   T    
C22   H8    S    
O15   C5    A    
O17   V3    S    
C26   O25   D    
O2    C4    A    
O21   C21   S    
O16   C6    A    
C21   H6    S    
C21   C22   S    
O1    C3    A    
O12   V4    S    
C23   H11   S    
O24   H15   S    
O4    V2    S    
C1    C20   S    
C13   O21   S    
C15   H1    S    
O14   V2    S    
V3    O19   S    
C25   O23   D    
O8    C4    A    
C22   H9    S    
O9    C5    A    
C4    C11   S    
C26   O26   S    
O7    C3    A    
C2    C19   S    
C6    C16   S    
C20   C26   S    
C2    O12   A    
O16   V4    S    
O13   V1    S    
C23   H10   S    
O5    C7    A    
C19   C25   S    
C17   H3    S    
C5    C15   S    
C24   H13   S    
O6    C8    A    
C18   H4    S    
O7    V1    S    
O8    V2    S    
C16   H2    S    
C25   O24   S    
O18   V4    S    
