data_mof_unit_49387.cif
_audit_creation_date              2012-12-10T19:45:44-0500
_audit_creation_method            fapswitch 2.2
_symmetry_space_group_name_H-M    P1
_symmetry_Int_Tables_number       1
_space_group_crystal_system       triclinic
_cell_length_a                    10.938696
_cell_length_b                    14.703897
_cell_length_c                    14.961868
_cell_angle_alpha                 63.885688
_cell_angle_beta                  105.3476
_cell_angle_gamma                 102.632632
_cell_volume                      2069.20418327

loop_
_atom_site_label
_atom_site_type_symbol
_atom_type_description
_atom_site_fract_x
_atom_site_fract_y
_atom_site_fract_z
_atom_type_partial_charge
C1    C     C_R   0.472237 0.120831 0.312177 0.876877
C2    C     C_R   0.575736 0.788826 0.973070 0.551326
C3    C     C_R   0.312923 0.159627 0.150954 -0.422746
C4    C     C_R   0.572514 0.849787 0.869556 -0.408827
C5    C     C_R   0.476864 0.293276 0.169663 0.468742
C6    C     C_R   0.468003 0.706784 0.826618 0.382077
C7    C     C_R   0.404975 0.367768 0.086401 -0.106782
C8    C     C_R   0.460579 0.645541 0.930363 -0.152946
C9    C     C_R   0.296581 0.334986 0.025565 -0.189845
C10   C     C_R   0.523512 0.684825 0.004199 -0.132109
C11   C     C_R   0.437292 0.474117 0.062736 -0.053979
C12   C     C_R   0.518669 0.879189 0.687897 0.812962
C13   C     C_R   0.395483 0.544554 0.963446 -0.175177
C14   C     C_R   0.283261 0.513561 0.904987 0.322020
C15   C     C_R   0.494653 0.512866 0.137655 0.321132
C16   C     C_R   0.264361 0.995131 0.508205 0.838610
C17   C     C_R   0.738666 0.994342 0.507417 0.847735
C18   C     C_R   0.235058 0.409794 0.935238 0.466052
C19   C     C_R   0.528610 0.619329 0.107860 0.399532
C20   C     C_R   0.692205 0.272825 0.685142 0.436944
C21   C     C_R   0.253644 0.705080 0.352798 0.411783
C22   C     C_R   0.671227 0.197370 0.648803 0.504505
C23   C     C_R   0.874623 0.981438 0.522786 -0.278728
C24   C     C_R   0.299593 0.790147 0.375117 0.483463
C25   C     C_R   0.520648 0.287992 0.506385 0.015031
C26   C     C_R   0.482183 0.713395 0.487150 0.007504
C27   C     C_R   0.530679 0.363896 0.543866 -0.097453
C28   C     C_R   0.432930 0.620748 0.474453 -0.062329
C29   C     C_R   0.619795 0.354426 0.634526 -0.093443
C30   C     C_R   0.320875 0.620410 0.401702 -0.119643
C31   C     C_R   0.456527 0.448148 0.496090 0.043508
C32   C     C_R   0.490168 0.528620 0.531602 0.009219
C33   C     C_R   0.570046 0.510462 0.627756 0.391380
C34   C     C_R   0.134080 0.983297 0.525993 -0.268686
C35   C     C_R   0.343903 0.451568 0.420946 0.461279
C36   C     C_R   0.633106 0.423871 0.677480 -0.077777
C37   C     C_R   0.275361 0.535324 0.379034 -0.207434
C38   C     C_R   0.369835 0.098136 0.761257 -0.293864
C39   C     C_R   0.745053 0.776296 0.330916 -0.270017
C40   C     C_R   0.288219 0.048950 0.703105 -0.246478
C41   C     C_R   0.779170 0.854512 0.364713 -0.228068
C42   C     C_R   0.195797 0.100292 0.620493 0.009353
C43   C     C_R   0.823597 0.832176 0.468071 0.034986
C44   C     C_R   0.186544 0.203743 0.596494 0.483633
C45   C     C_R   0.911988 0.911434 0.496291 -0.117321
C46   C     C_R   0.823946 0.728916 0.538795 0.357682
C47   C     C_R   0.266490 0.252246 0.657106 0.347519
C48   C     C_R   0.802479 0.651613 0.503738 0.337944
C49   C     C_R   0.357061 0.198612 0.741555 0.354602
C50   C     C_R   0.761919 0.675270 0.399021 0.378418
C51   C     C_R   0.970757 0.033155 0.573325 0.456313
C52   C     C_R   0.041771 0.908612 0.504107 0.449353
C53   C     C_3   0.422221 0.195611 0.901501 -0.380660
C54   C     C_3   0.837188 0.601413 0.322741 -0.159817
C55   C     C_3   0.110817 0.094602 0.024845 -0.331558
C56   C     C_R   0.099775 0.040816 0.568808 -0.142651
C57   C     C_3   0.594280 0.917870 0.025956 -0.361530
C58   C     C_3   0.763062 0.196090 0.857859 -0.224664
C59   C     C_3   0.146222 0.752172 0.189245 -0.346928
C60   C     C_3   0.951343 0.993745 0.733543 -0.315219
C61   C     C_3   0.124246 0.754679 0.580197 -0.117560
C62   C     C_3   0.141274 0.379877 0.794316 -0.055276
C63   C     C_3   0.455911 0.682894 0.193766 -0.276354
C64   C     C_R   0.424573 0.190886 0.206631 -0.159574
C65   C     C_R   0.519460 0.810423 0.796217 -0.153288
C66   C     C_R   0.249728 0.229231 0.058086 0.550417
Cu1   Cu    Cu3+1 0.466270 0.918260 0.475690 0.960081
Cu2   Cu    Cu3+1 0.533730 0.081740 0.524310 0.988918
H1    H     H_    0.694412 0.411438 0.750798 0.192851
H2    H     H_    0.273246 0.080936 0.182917 0.168291
H3    H     H_    0.473380 0.126795 0.941078 0.155380
H4    H     H_    0.319979 0.174373 0.907804 0.183248
H5    H     H_    0.464707 0.246932 0.941092 0.193776
H6    H     H_    0.927408 0.590026 0.380362 0.186706
H7    H     H_    0.849311 0.673726 0.254874 0.204248
H8    H     H_    0.816523 0.537907 0.297866 0.182015
H9    H     H_    0.073025 0.053379 0.096287 0.188695
H10   H     H_    0.195512 0.061853 0.028631 0.132335
H11   H     H_    0.035319 0.083130 0.963366 0.190643
H12   H     H_    0.186970 0.534877 0.325172 0.173988
H13   H     H_    0.488649 0.914883 0.000242 0.136963
H14   H     H_    0.642744 0.984778 0.970168 0.154105
H15   H     H_    0.617426 0.929122 0.097426 0.182135
H16   H     H_    0.225667 0.648042 0.832199 0.327683
H17   H     H_    0.550386 0.482751 0.282491 0.378923
H18   H     H_    0.269888 0.930083 0.319054 0.347015
H19   H     H_    0.732331 0.076248 0.668234 0.397767
H20   H     H_    0.801810 0.124924 0.876112 0.191645
H21   H     H_    0.659314 0.179654 0.859239 0.153704
H22   H     H_    0.810898 0.222401 0.919017 0.201447
H23   H     H_    0.572723 0.721813 0.534799 0.207173
H24   H     H_    0.195413 0.707672 0.168681 0.136881
H25   H     H_    0.196334 0.830979 0.170772 0.164839
H26   H     H_    0.049113 0.758563 0.141491 0.198466
H27   H     H_    0.637485 0.549599 0.742554 0.338075
H28   H     H_    0.217443 0.385894 0.340743 0.333311
H29   H     H_    0.067872 0.226202 0.467861 0.326771
H30   H     H_    0.856174 0.761100 0.656559 0.308256
H31   H     H_    0.319151 0.379625 0.675400 0.339549
H32   H     H_    0.818986 0.509882 0.538263 0.349060
H33   H     H_    0.043607 0.960852 0.761431 0.145269
H34   H     H_    0.464352 0.293000 0.434255 0.246999
H35   H     H_    0.870617 0.931846 0.738272 0.144965
H36   H     H_    0.947398 0.027440 0.785891 0.218829
H37   H     H_    0.077330 0.679776 0.580223 0.209995
H38   H     H_    0.109443 0.759154 0.649080 0.139271
H39   H     H_    0.227634 0.754549 0.587375 0.215433
H40   H     H_    0.205666 0.321717 0.815733 0.137842
H41   H     H_    0.180563 0.455488 0.741946 0.171626
H42   H     H_    0.048903 0.356867 0.752449 0.232272
H43   H     H_    0.383394 0.615073 0.215257 0.151936
H44   H     H_    0.413206 0.745272 0.124012 0.143531
H45   H     H_    0.442248 0.057299 0.822613 0.162158
H46   H     H_    0.483219 0.709834 0.255612 0.183243
H47   H     H_    0.446612 0.593364 0.788303 0.351295
H48   H     H_    0.639399 0.379210 0.163170 0.321367
H49   H     H_    0.713847 0.795011 0.250714 0.236036
H50   H     H_    0.295967 0.969735 0.723406 0.159003
H51   H     H_    0.779961 0.932998 0.309592 0.173288
H52   H     H_    0.616798 0.927950 0.846443 0.205250
N1    N     N_R   0.584450 0.204570 0.560790 -0.275192
N2    N     N_R   0.415550 0.795430 0.439210 -0.280763
O1    O     O_R   0.455540 0.022090 0.338120 -0.636107
O2    O     O_3   0.734153 0.598915 0.364164 -0.591595
O3    O     O_3   0.136683 0.200161 0.001479 -0.532703
O4    O     O_3   0.640580 0.827227 0.044917 -0.536886
O5    O     O_3   0.209612 0.582894 0.824070 -0.692533
O6    O     O_3   0.500146 0.447568 0.238871 -0.696524
O7    O     O_3   0.218647 0.863889 0.334615 -0.673574
O8    O     O_3   0.739841 0.116264 0.706751 -0.749354
O9    O     O_3   0.792338 0.272299 0.765073 -0.554469
O10   O     O_3   0.134327 0.700988 0.291936 -0.564591
O11   O     O_3   0.577160 0.572850 0.676571 -0.734095
O12   O     O_R   0.544460 0.977910 0.661880 -0.617539
O13   O     O_3   0.293159 0.369045 0.396388 -0.745117
O14   O     O_3   0.099361 0.259882 0.515535 -0.645397
O15   O     O_3   0.858158 0.701819 0.642224 -0.685562
O16   O     O_3   0.252148 0.352299 0.631484 -0.709902
O17   O     O_3   0.831292 0.555573 0.573393 -0.691555
O18   O     O_3   0.940647 0.070839 0.633714 -0.534747
O19   O     O_3   0.076019 0.832971 0.486674 -0.542064
O20   O     O_3   0.119444 0.383988 0.881116 -0.506189
O21   O     O_3   0.565815 0.658577 0.180692 -0.525185
O22   O     O_3   0.431997 0.666043 0.754800 -0.678151
O23   O     O_R   0.512510 0.160150 0.379180 -0.523536
O24   O     O_3   0.600673 0.316818 0.213722 -0.692139
O25   O     O_R   0.487490 0.839850 0.620820 -0.521301
O26   O     O_R   0.291160 0.930970 0.479480 -0.542016
O27   O     O_R   0.708840 0.069030 0.520520 -0.548147
O28   O     O_R   0.348130 0.069020 0.520540 -0.578383
O29   O     O_R   0.651870 0.930980 0.479460 -0.594855
O30   O     O_3   0.437445 0.247858 0.799572 -0.607555

loop_
_geom_bond_atom_site_label_1
_geom_bond_atom_site_label_2
_ccdc_geom_bond_type
C44   O14   S    
C40   H50   S    
C1    C64   S    
C34   C56   A    
C8    C13   A    
C23   C45   A    
C27   C29   A    
C14   C18   A    
C1    O23   A    
C47   C49   A    
C38   C49   A    
C3    C64   A    
C48   C50   A    
C7    C11   A    
C29   C36   A    
C17   C23   S    
H19   O8    S    
C35   C37   A    
C15   C19   A    
C4    C65   A    
C55   H9    S    
C25   H34   S    
C62   H40   S    
H27   O11   S    
C33   C36   A    
C51   C56   A    
C63   H44   S    
C9    C66   A    
Cu2   O27   S    
C16   C34   S    
C54   H6    S    
C63   H46   S    
C11   C15   A    
C24   O7    S    
C6    C65   A    
C55   O3    S    
C53   O30   S    
C57   H15   S    
H31   O16   S    
C59   H26   S    
C60   H35   S    
C61   H37   S    
C58   O9    S    
C48   O17   S    
C44   C47   A    
C42   C56   S    
C51   O18   S    
H16   O5    S    
C40   C42   A    
C12   O12   A    
C13   C14   A    
C22   O8    S    
C41   C43   A    
C17   O29   A    
C42   C44   A    
C62   O20   S    
C26   C28   A    
C43   C46   A    
H28   O13   S    
C20   C29   A    
C37   H12   S    
C46   C48   A    
C59   O10   S    
H30   O15   S    
Cu1   O29   S    
Cu1   Cu2   S    
H48   O24   S    
C18   O20   S    
C3    H2    S    
C50   O2    S    
C39   C41   A    
C35   O13   S    
C57   O4    S    
C5    C7    A    
C38   H45   S    
C6    C8    A    
C45   C52   A    
C26   H23   S    
C39   H49   S    
C27   C31   A    
C14   O5    S    
C30   C37   A    
C58   H20   S    
C2    C4    A    
C1    O1    A    
C21   O10   S    
H32   O17   S    
C55   H11   S    
C23   C51   A    
C31   C32   A    
C62   H42   S    
C28   C32   A    
C10   C19   A    
C24   N2    A    
C41   H51   S    
C61   H38   S    
C58   H22   S    
C60   O18   S    
C46   O15   S    
C54   H8    S    
C2    O4    S    
C61   O19   S    
C20   C22   A    
C15   O6    S    
Cu1   O25   S    
C31   C35   A    
C3    C66   A    
C20   O9    S    
C6    O22   S    
C60   H33   S    
C53   H3    S    
Cu1   N2    S    
C36   H1    S    
C12   O25   A    
C22   N1    A    
C12   C65   S    
C7    C9    A    
C54   O2    S    
H47   O22   S    
C19   O21   S    
C5    O24   S    
C49   O30   S    
C17   O27   A    
C53   H5    S    
Cu1   O1    S    
Cu2   N1    S    
H18   O7    S    
C25   C27   A    
C59   H25   S    
C21   C30   A    
C34   C52   A    
C52   O19   S    
C66   O3    S    
C16   O26   A    
C32   C33   A    
Cu2   O12   S    
C43   C45   S    
C38   C40   A    
C11   C13   A    
C62   H41   S    
C47   O16   S    
C28   C30   A    
C57   H13   S    
C59   H24   S    
C63   H43   S    
C61   H39   S    
C58   H21   S    
Cu2   O28   S    
C55   H10   S    
C54   H7    S    
C33   O11   S    
C9    C18   A    
C39   C50   A    
C5    C64   A    
C8    C10   A    
C21   C24   A    
Cu1   O26   S    
C63   O21   S    
C57   H14   S    
C4    H52   S    
H17   O6    S    
C16   O28   A    
C26   N2    A    
H29   O14   S    
C60   H36   S    
C53   H4    S    
C25   N1    A    
Cu2   O23   S    
C2    C10   A    
