data_mof_unit_37909.cif
_audit_creation_date              2012-12-10T17:48:58-0500
_audit_creation_method            fapswitch 2.2
_symmetry_space_group_name_H-M    P1
_symmetry_Int_Tables_number       1
_space_group_crystal_system       triclinic
_cell_length_a                    10.764462
_cell_length_b                    14.668146
_cell_length_c                    14.825067
_cell_angle_alpha                 65.008132
_cell_angle_beta                  104.633536
_cell_angle_gamma                 102.032292
_cell_volume                      2038.94507538

loop_
_atom_site_label
_atom_site_type_symbol
_atom_type_description
_atom_site_fract_x
_atom_site_fract_y
_atom_site_fract_z
_atom_type_partial_charge
C1    C     C_R   0.476164 0.119424 0.312508 0.844043
C2    C     C_3   0.876901 0.001227 0.495385 -0.082855
C3    C     C_3   0.923439 0.896412 0.565990 -0.405153
C4    C     C_3   0.963174 0.079882 0.536986 -0.374128
C5    C     C_R   0.450356 0.185978 0.205157 -0.025611
C6    C     C_R   0.538345 0.813125 0.794801 -0.066671
C7    C     C_R   0.339032 0.216388 0.034145 -0.073845
C8    C     C_R   0.371449 0.150025 0.134032 -0.182090
C9    C     C_R   0.497664 0.288155 0.175374 -0.099296
C10   C     C_R   0.459817 0.358662 0.076037 0.055201
C11   C     C_R   0.382750 0.320815 0.003662 0.051708
C12   C     C_R   0.260221 0.001577 0.498846 0.774206
C13   C     C_R   0.498046 0.464700 0.047613 0.066579
C14   C     C_R   0.468623 0.532672 0.944060 -0.031958
C15   C     C_R   0.402549 0.489656 0.871043 -0.140979
C16   C     C_R   0.354282 0.386492 0.901966 0.322243
C17   C     C_R   0.564322 0.504130 0.121268 -0.141016
C18   C     C_R   0.614426 0.604748 0.095728 -0.049418
C19   C     C_R   0.592444 0.672698 0.994552 0.102569
C20   C     C_R   0.511388 0.639129 0.919363 0.104599
C21   C     C_R   0.647245 0.774762 0.967292 -0.158607
C22   C     C_R   0.623802 0.843333 0.867553 -0.151106
C23   C     C_R   0.520695 0.880534 0.687460 0.818748
C24   C     C_R   0.474844 0.714835 0.823153 -0.186277
C25   C     C_R   0.754622 0.308902 0.624674 0.255951
C26   C     C_R   0.699983 0.214037 0.623309 0.504054
C27   C     C_R   0.514839 0.284727 0.507063 0.003092
C28   C     C_R   0.563995 0.383653 0.504168 -0.021561
C29   C     C_R   0.688384 0.394267 0.563134 -0.016982
C30   C     C_R   0.493915 0.471535 0.449112 -0.039316
C31   C     C_R   0.542833 0.560935 0.469178 0.045055
C32   C     C_R   0.674949 0.572546 0.509997 -0.093188
C33   C     C_R   0.745485 0.490637 0.558269 -0.083965
C34   C     C_R   0.739653 0.999865 0.499072 0.894605
C35   C     C_R   0.382927 0.477751 0.371435 0.313968
C36   C     C_R   0.307874 0.558671 0.334595 0.378086
C37   C     C_R   0.344826 0.637675 0.370192 -0.052742
C38   C     C_R   0.462672 0.639651 0.439028 -0.117982
C39   C     C_R   0.267960 0.717070 0.335275 -0.200748
C40   C     C_R   0.306135 0.795897 0.368674 0.012372
C41   C     C_R   0.491519 0.718568 0.477359 0.573939
C42   C     C_3   0.039629 0.020141 0.387541 -0.261155
C43   C     C_3   0.895649 0.029262 0.384251 0.607775
C44   C     C_3   0.069309 0.900637 0.571180 -0.487250
C45   C     C_3   0.104679 0.087943 0.529751 0.230419
C46   C     C_3   0.122004 0.004863 0.495370 -0.059209
Cu1   Cu    Cu3+1 0.465900 0.918260 0.475680 1.027730
Cu2   Cu    Cu3+1 0.534100 0.081740 0.524320 1.037026
H1    H     H_    0.041989 0.950709 0.375320 0.155129
H2    H     H_    0.957215 0.055749 0.617897 0.206493
H3    H     H_    0.122071 0.888161 0.649683 0.185361
H4    H     H_    0.904660 0.873651 0.643562 0.204296
H5    H     H_    0.393419 0.701906 0.769252 0.147414
H6    H     H_    0.672354 0.919708 0.847610 0.213560
H7    H     H_    0.278630 0.184511 0.981819 0.207674
H8    H     H_    0.333202 0.070842 0.155780 0.161191
H9    H     H_    0.565964 0.309457 0.231902 0.164002
H10   H     H_    0.578791 0.458430 0.201190 0.169244
H11   H     H_    0.711357 0.801734 0.022290 0.169484
H12   H     H_    0.845173 0.503942 0.592689 0.201660
H13   H     H_    0.248130 0.857973 0.338293 0.139252
H14   H     H_    0.420352 0.269053 0.467901 0.246721
H15   H     H_    0.727106 0.645972 0.502044 0.191099
H16   H     H_    0.178831 0.720293 0.280889 0.205998
H17   H     H_    0.085129 0.837380 0.554137 0.220338
H18   H     H_    0.869433 0.837215 0.538029 0.253614
H19   H     H_    0.164774 0.074908 0.606317 0.142201
H20   H     H_    0.927487 0.155526 0.496500 0.268016
N1    N     N_R   0.585360 0.204570 0.560800 -0.256744
N2    N     N_R   0.414550 0.795430 0.439160 -0.198775
O1    O     O_R   0.455060 0.022100 0.338110 -0.583731
O2    O     O_R   0.512640 0.160150 0.379180 -0.568715
O3    O     O_R   0.288900 0.930980 0.479450 -0.613753
O4    O     O_R   0.346480 0.069030 0.520520 -0.559511
O5    O     O_R   0.487360 0.839850 0.620820 -0.532959
O6    O     O_R   0.544940 0.977900 0.661890 -0.550585
O7    O     O_R   0.653520 0.930970 0.479480 -0.509663
O8    O     O_R   0.711100 0.069020 0.520550 -0.558649
Cl1   Cl    Cl    0.262136 0.338621 0.809758 -0.511726
C47   C     C_1   0.684795 0.636414 0.176870 0.276505
N3    N     N_1   0.740740 0.661458 0.241866 -0.233191
C48   C     C_1   0.097117 0.103180 0.304308 0.416387
N4    N     N_1   0.141959 0.168048 0.239124 -0.172229
C49   C     C_1   0.388772 0.544169 0.762626 0.394000
N5    N     N_1   0.374699 0.585570 0.675455 -0.214651
Cl2   Cl    Cl    0.612928 0.712691 0.584662 -0.629280
Cl3   Cl    Cl    0.166280 0.560099 0.241684 -0.480124
Cl4   Cl    Cl    0.905730 0.318971 0.704427 -0.455382
Cl5   Cl    Cl    0.780773 0.107194 0.703409 -0.565456
Cl6   Cl    Cl    0.847689 0.153771 0.303507 -0.532453
Cl7   Cl    Cl    0.353664 0.403276 0.298594 -0.543667
Cl8   Cl    Cl    0.792611 0.945477 0.328643 -0.584304
Cl9   Cl    Cl    0.155641 0.215137 0.449597 -0.504949

loop_
_geom_bond_atom_site_label_1
_geom_bond_atom_site_label_2
_ccdc_geom_bond_type
C12   O4    A    
Cu2   O6    S    
C19   C20   A    
C42   C48   S    
C7    H7    S    
Cu2   N1    S    
C45   Cl9   S    
C8    H8    S    
C7    C8    A    
C22   H6    S    
C45   C46   S    
C26   Cl5   S    
C7    C11   A    
C41   Cl2   S    
C1    O1    A    
C40   N2    A    
C30   C35   A    
C1    C5    S    
C36   C37   A    
C19   C21   A    
C21   H11   S    
C34   O7    A    
C30   C31   A    
C15   C16   A    
C6    C22   A    
C29   C33   A    
C18   C19   A    
C42   C46   S    
Cu2   O8    S    
C20   C24   A    
Cu1   Cu2   S    
C45   H19   S    
C9    C10   A    
C23   O6    A    
C27   N1    A    
C17   H10   S    
C2    C34   S    
C21   C22   A    
C44   H17   S    
Cu2   O2    S    
C12   O3    A    
C44   C46   S    
C4    C45   S    
C36   Cl3   S    
C25   C29   A    
C3    C44   S    
C1    O2    A    
C43   Cl6   S    
Cu2   O4    S    
C49   N5    T    
Cu1   O3    S    
C38   C41   A    
C12   C46   S    
C39   C40   A    
C4    H20   S    
C24   H5    S    
C25   Cl4   S    
C40   H13   S    
C4    H2    S    
C35   C36   A    
C2    C4    S    
Cu1   N2    S    
C5    C9    A    
C37   C38   A    
C39   H16   S    
C27   H14   S    
C14   C20   A    
C11   C16   A    
C31   C32   A    
C2    C43   S    
C6    C24   A    
C17   C18   A    
Cu1   O1    S    
C44   H3    S    
C33   H12   S    
C3    H18   S    
C42   C43   S    
Cu1   O7    S    
C28   C29   A    
C32   H15   S    
C23   O5    A    
C47   N3    T    
C10   C13   A    
C5    C8    A    
C3    H4    S    
C15   C49   S    
C43   Cl8   S    
C31   C38   A    
C13   C17   A    
C16   Cl1   S    
C32   C33   A    
C28   C30   A    
C2    C3    S    
C25   C26   A    
Cu1   O5    S    
C37   C39   A    
C34   O8    A    
C6    C23   S    
C9    H9    S    
C10   C11   A    
C42   H1    S    
C18   C47   S    
C48   N4    T    
C27   C28   A    
C26   N1    A    
C14   C15   A    
C13   C14   A    
C41   N2    A    
C35   Cl7   S    
