data_mof_unit_68440.cif
_audit_creation_date              2012-10-26T21:01:01-0400
_audit_creation_method            fapswitch 2.2
_symmetry_space_group_name_H-M    P1
_symmetry_Int_Tables_number       1
_space_group_crystal_system       triclinic
_cell_length_a                    11.099754
_cell_length_b                    10.945017
_cell_length_c                    9.629458
_cell_angle_alpha                 92.669485
_cell_angle_beta                  90.966444
_cell_angle_gamma                 91.407393
_cell_volume                      1168.04187761

loop_
_atom_site_label
_atom_site_type_symbol
_atom_type_description
_atom_site_fract_x
_atom_site_fract_y
_atom_site_fract_z
_atom_type_partial_charge
C1    C     C_R   0.496306 0.263304 0.497378 0.541922
C2    C     C_R   0.411118 0.439678 0.067761 0.294503
C3    C     C_R   0.408919 0.442702 0.918196 0.390618
C4    C     C_R   0.266025 0.504053 0.498659 0.513380
C5    C     C_R   0.600172 0.535698 0.930899 0.123286
C6    C     C_3   0.664566 0.655333 0.929182 0.459917
C7    C     C_3   0.664007 0.662009 0.089056 0.169555
C8    C     C_R   0.495065 0.737940 0.502485 0.507333
C9    C     C_R   0.734079 0.491205 0.500591 0.541197
C10   C     C_2   0.930070 0.482297 0.384455 0.250119
C11   C     C_2   0.866421 0.473437 0.502779 0.246336
C12   C     C_R   0.489140 0.131047 0.493602 -0.004386
C13   C     C_2   0.065092 0.496359 0.382663 0.245922
C14   C     C_2   0.135561 0.525873 0.497875 0.259476
C15   C     C_R   0.554996 0.072749 0.592992 -0.009692
C16   C     C_3   0.207635 0.376474 0.870264 0.053632
C17   C     C_3   0.157188 0.248252 0.897755 -0.231923
C18   C     C_3   0.023636 0.249823 0.931686 -0.487098
C19   C     C_3   0.836449 0.751504 0.836923 0.055681
C20   C     C_3   0.821364 0.773839 0.681874 -0.223045
C21   C     C_3   0.870474 0.900060 0.646307 -0.523613
C22   C     C_3   0.641299 0.870651 0.150103 0.020262
C23   C     C_R   0.415685 0.059921 0.398166 0.284248
C24   C     C_3   0.737875 0.892444 0.264971 -0.290556
C25   C     C_3   0.776189 0.027440 0.279047 -0.482323
C26   C     C_3   0.145113 0.613294 0.213177 0.037122
C27   C     C_3   0.039233 0.674585 0.142850 -0.315943
C28   C     C_3   0.068959 0.809587 0.123215 -0.482971
C29   C     C_3   0.143680 0.711761 0.621122 0.004258
C30   C     C_3   0.199377 0.737275 0.766281 -0.259013
C31   C     C_3   0.227315 0.873588 0.794089 -0.486623
C32   C     C_3   0.243588 0.174126 0.367104 0.025623
C33   C     C_3   0.161744 0.093808 0.454394 -0.294437
C34   C     C_R   0.416336 0.931455 0.400596 0.227465
C35   C     C_3   0.057198 0.168197 0.511055 -0.479626
C36   C     C_R   0.483920 0.872508 0.505323 -0.055558
C37   C     C_R   0.555373 0.946844 0.598109 -0.080689
C38   C     C_3   0.557056 0.958951 0.754108 -0.206125
C39   C     C_3   0.554878 0.095167 0.746498 0.095285
C40   C     C_R   0.599269 0.539740 0.077191 0.104227
Cu1   Cu    Cu3+1 0.499990 0.499980 0.640670 1.022776
Cu2   Cu    Cu3+1 0.500010 0.500020 0.359330 1.001135
H1    H     H_    0.636744 0.145961 0.788631 0.110667
H2    H     H_    0.207223 0.209207 0.985327 0.226790
H3    H     H_    0.009622 0.307769 0.027269 0.179062
H4    H     H_    0.990620 0.155319 0.949542 0.130909
H5    H     H_    0.970955 0.285452 0.844098 0.169152
H6    H     H_    0.933943 0.743516 0.858418 0.140223
H7    H     H_    0.807721 0.831092 0.901917 0.109510
H8    H     H_    0.870811 0.703197 0.621740 0.185949
H9    H     H_    0.725543 0.764648 0.648948 0.220475
H10   H     H_    0.805828 0.972568 0.672123 0.146595
H11   H     H_    0.888441 0.900320 0.533447 0.138703
H12   H     H_    0.753552 0.655752 0.140525 0.125827
H13   H     H_    0.955370 0.923493 0.704430 0.133359
H14   H     H_    0.511730 0.739320 0.907027 0.317728
H15   H     H_    0.568008 0.936141 0.169281 0.195281
H16   H     H_    0.677344 0.893470 0.048245 0.119266
H17   H     H_    0.702616 0.863133 0.365487 0.184049
H18   H     H_    0.818571 0.838545 0.240271 0.137426
H19   H     H_    0.813613 0.057753 0.179671 0.147154
H20   H     H_    0.846697 0.041270 0.361388 0.147130
H21   H     H_    0.698227 0.084469 0.307675 0.161787
H22   H     H_    0.864074 0.430559 0.697638 0.349213
H23   H     H_    0.475446 0.919591 0.800970 0.180548
H24   H     H_    0.221481 0.609847 0.140258 0.176015
H25   H     H_    0.174851 0.673063 0.303368 0.111992
H26   H     H_    0.017474 0.626228 0.041304 0.170170
H27   H     H_    0.959339 0.671421 0.209593 0.182553
H28   H     H_    0.078012 0.859062 0.226046 0.166402
H29   H     H_    0.995646 0.851915 0.064121 0.123297
H30   H     H_    0.154793 0.820231 0.067716 0.184111
H31   H     H_    0.072813 0.777889 0.601743 0.142398
H32   H     H_    0.214065 0.730629 0.543087 0.082322
H33   H     H_    0.137255 0.704378 0.846003 0.162475
H34   H     H_    0.643831 0.934272 0.801191 0.144037
H35   H     H_    0.284301 0.686735 0.775910 0.189021
H36   H     H_    0.278685 0.910812 0.707014 0.163773
H37   H     H_    0.281860 0.887777 0.891361 0.162332
H38   H     H_    0.142999 0.924743 0.806747 0.138358
H39   H     H_    0.186982 0.210484 0.282964 0.185941
H40   H     H_    0.276153 0.254751 0.431522 0.140801
H41   H     H_    0.125754 0.014305 0.389832 0.172875
H42   H     H_    0.213409 0.059874 0.543802 0.161896
H43   H     H_    0.091911 0.249154 0.574582 0.182971
H44   H     H_    0.000544 0.111458 0.577783 0.145420
H45   H     H_    0.921106 0.450613 0.181814 0.347711
H46   H     H_    0.000613 0.200059 0.424355 0.163571
H47   H     H_    0.327580 0.786598 0.333986 0.316171
H48   H     H_    0.454267 0.149535 0.896958 0.337998
H49   H     H_    0.358197 0.342922 0.215602 0.390365
H50   H     H_    0.158576 0.409584 0.778629 0.192947
H51   H     H_    0.188764 0.443283 0.957279 0.157495
H52   H     H_    0.169815 0.186763 0.804287 0.174907
N1    N     N_R   0.500780 0.500930 0.147930 -0.258172
N2    N     N_R   0.500780 0.500890 0.852020 -0.270758
O1    O     O_R   0.500000 0.319640 0.618810 -0.426981
O2    O     O_3   0.324937 0.368864 0.127730 -0.704411
O3    O     O_3   0.330817 0.367422 0.836139 -0.492814
O4    O     O_3   0.779682 0.639539 0.869638 -0.569222
O5    O     O_3   0.592888 0.739904 0.864777 -0.708468
O6    O     O_3   0.588223 0.751680 0.148960 -0.540810
O7    O     O_3   0.923427 0.437932 0.622809 -0.730831
O8    O     O_3   0.116939 0.491985 0.251876 -0.583892
O9    O     O_3   0.089821 0.592347 0.610499 -0.569479
O10   O     O_3   0.339818 0.111402 0.301963 -0.540101
O11   O     O_3   0.345321 0.868478 0.301427 -0.676751
O12   O     O_R   0.500010 0.319680 0.381230 -0.538336
O13   O     O_3   0.445531 0.141154 0.794207 -0.654707
O14   O     O_R   0.321940 0.499980 0.618760 -0.482384
O15   O     O_R   0.321950 0.500020 0.381180 -0.516505
O16   O     O_R   0.499990 0.680320 0.618770 -0.479521
O17   O     O_R   0.500000 0.680360 0.381190 -0.450420
O18   O     O_R   0.678050 0.499980 0.618820 -0.498461
O19   O     O_R   0.678060 0.500020 0.381240 -0.453543
O20   O     O_3   0.866677 0.471336 0.258881 -0.742216

loop_
_geom_bond_atom_site_label_1
_geom_bond_atom_site_label_2
_ccdc_geom_bond_type
H22   O7    S    
Cu1   Cu2   S    
C19   C20   S    
Cu1   O18   S    
C18   H5    S    
C22   H15   S    
C31   H38   S    
C38   H34   S    
C32   H39   S    
C12   C23   A    
C26   C27   S    
C29   C30   S    
C34   O11   S    
C22   C24   S    
C36   C37   A    
H14   O5    S    
C20   H9    S    
C8    O16   A    
C8    C36   S    
C38   C39   S    
C35   H44   S    
Cu1   N2    S    
C29   H31   S    
C25   H21   S    
C6    O5    S    
C15   C37   A    
C20   H8    S    
C27   H26   S    
C26   O8    S    
C30   H35   S    
C14   O9    S    
C16   C17   S    
Cu1   O16   S    
C7    C40   S    
C38   H23   S    
C3    N2    A    
H48   O13   S    
C27   H27   S    
C32   O10   S    
C13   C14   D    
C29   O9    S    
C28   H30   S    
C1    C12   S    
C18   H4    S    
Cu2   N1    S    
C26   H24   S    
C26   H25   S    
C24   C25   S    
C9    O19   A    
C1    O1    A    
C21   H13   S    
C19   H6    S    
C39   H1    S    
C29   H32   S    
C23   O10   S    
C7    O6    S    
C6    O4    S    
Cu2   O15   S    
C37   C38   S    
C33   H41   S    
C35   H46   S    
C19   H7    S    
Cu2   O17   S    
C12   C15   A    
C30   C31   S    
C24   H18   S    
C23   C34   A    
H47   O11   S    
C17   C18   S    
C16   H51   S    
C25   H19   S    
C13   O8    S    
C9    C11   S    
C15   C39   S    
H45   O20   S    
C8    O17   A    
C4    O15   A    
C16   H50   S    
Cu1   O14   S    
Cu1   O1    S    
C28   H29   S    
C9    O18   A    
C40   N1    A    
C18   H3    S    
C5    N2    A    
C10   O20   S    
C31   H36   S    
C4    O14   A    
C2    N1    A    
C28   H28   S    
C10   C13   S    
C22   H16   S    
C19   O4    S    
C16   O3    S    
C31   H37   S    
C6    C7    S    
C32   H40   S    
C22   O6    S    
C32   C33   S    
C2    C3    A    
C17   H2    S    
C21   H11   S    
C30   H33   S    
C35   H43   S    
C5    C6    S    
C24   H17   S    
C33   C35   S    
C34   C36   A    
C25   H20   S    
H49   O2    S    
C4    C14   S    
C33   H42   S    
C10   C11   D    
C1    O12   A    
C3    O3    S    
Cu2   O19   S    
C39   O13   S    
C20   C21   S    
C2    O2    S    
C5    C40   A    
C27   C28   S    
C11   O7    S    
C17   H52   S    
C7    H12   S    
Cu2   O12   S    
C21   H10   S    
