data_mof_unit_27065.cif
_audit_creation_date              2012-12-10T17:17:29-0500
_audit_creation_method            fapswitch 2.2
_symmetry_space_group_name_H-M    P1
_symmetry_Int_Tables_number       1
_space_group_crystal_system       triclinic
_cell_length_a                    10.143515
_cell_length_b                    10.796305
_cell_length_c                    12.506203
_cell_angle_alpha                 90.473222
_cell_angle_beta                  110.460903
_cell_angle_gamma                 95.808842
_cell_volume                      1275.19063

loop_
_atom_site_label
_atom_site_type_symbol
_atom_type_description
_atom_site_fract_x
_atom_site_fract_y
_atom_site_fract_z
_atom_type_partial_charge
C1    C     C_R   0.054832 0.732911 0.497371 0.806783
C2    C     C_R   0.453998 0.608755 0.979513 0.019227
C3    C     C_R   0.376467 0.599893 0.862000 0.091359
C4    C     C_R   0.592252 0.570490 0.016416 0.114835
C5    C     C_R   0.652432 0.537334 0.935001 0.132588
C6    C     C_R   0.586566 0.563253 0.821322 -0.240107
C7    C     C_R   0.451473 0.599335 0.786216 -0.183825
C8    C     C_R   0.666172 0.552957 0.130403 -0.356787
C9    C     C_R   0.844746 0.451646 0.082878 0.493623
C10   C     C_R   0.227070 0.587393 0.824831 -0.177772
C11   C     C_2   0.097467 0.866075 0.512683 0.300425
C12   C     C_R   0.140187 0.531789 0.710352 0.873203
C13   C     C_2   0.015563 0.937177 0.544640 -0.285108
C14   C     C_2   0.929298 0.136799 0.529601 -0.394468
C15   C     C_2   0.037992 0.070422 0.545801 -0.104765
C16   C     C_2   0.429204 0.521876 0.493996 -0.135202
C17   C     C_2   0.566831 0.489229 0.488118 -0.129143
C18   C     C_R   0.950655 0.267821 0.511436 0.961044
C19   C     C_R   0.863762 0.487838 0.286252 0.927508
C20   C     C_R   0.774508 0.475618 0.967172 -0.374743
C21   C     C_R   0.790743 0.495671 0.163915 -0.152945
C22   C     C_R   0.161452 0.625873 0.899348 -0.387232
C23   C     C_R   0.243052 0.665447 0.013703 0.549703
C24   C     C_R   0.387096 0.648913 0.053791 -0.256445
H1    H     H_    0.825999 0.094265 0.526239 0.155046
H2    H     H_    0.566556 0.409911 0.434147 0.165643
H3    H     H_    0.426773 0.611294 0.532415 0.150645
H4    H     H_    0.682176 0.630052 0.593098 0.157535
H5    H     H_    0.321390 0.362008 0.419823 0.172131
H6    H     H_    0.636637 0.550510 0.759109 0.145594
H7    H     H_    0.809980 0.443239 0.900803 0.151119
H8    H     H_    0.625771 0.580326 0.194867 0.186750
H9    H     H_    0.444925 0.672102 0.143155 0.159769
H10   H     H_    0.141401 0.113584 0.549978 0.213136
N1    N     N_2   0.313640 0.446500 0.454900 -0.182442
N2    N     N_2   0.686360 0.553430 0.545150 -0.196741
O1    O     O_R   0.936910 0.692950 0.509080 -0.636437
O2    O     O_R   0.138320 0.658600 0.480130 -0.599921
O3    O     O_R   0.002900 0.525670 0.675280 -0.614005
O4    O     O_R   0.204310 0.491320 0.646330 -0.612754
O5    O     O_R   0.861680 0.341400 0.519870 -0.608002
O6    O     O_R   0.063090 0.307050 0.490920 -0.602052
O7    O     O_R   0.795690 0.508680 0.353670 -0.622255
O8    O     O_R   0.997100 0.474330 0.324720 -0.549484
Zn1   Zn    Zn3+2 0.865520 0.522940 0.519330 0.923182
Zn2   Zn    Zn3+2 0.134480 0.477060 0.480670 0.971186
O9    O     O_3   0.954766 0.376079 0.120636 -0.634804
C25   C     C_3   0.040506 0.374828 0.052637 0.127557
H11   H     H_    0.152052 0.376596 0.111374 0.167868
H12   H     H_    0.038767 0.458449 0.001860 0.128770
C26   C     C_3   0.001916 0.254298 0.977639 -0.379067
H13   H     H_    0.024541 0.173659 0.033376 0.238404
H14   H     H_    0.887164 0.242840 0.925686 0.226114
C27   C     C_3   0.086436 0.254010 0.897869 -0.944196
H15   H     H_    0.059483 0.330189 0.837582 0.272578
H16   H     H_    0.060044 0.163863 0.847646 0.267070
H17   H     H_    0.201868 0.266516 0.947715 0.266664
H18   H     H_    0.922854 0.896887 0.562133 0.165319
O10   O     O_3   0.214432 0.916792 0.488335 -0.629548
C28   C     C_3   0.337100 0.909973 0.585786 0.085362
H19   H     H_    0.338621 0.816481 0.622920 0.120081
H20   H     H_    0.342224 0.981515 0.652176 0.138069
C29   C     C_3   0.468085 0.934736 0.552101 -0.300175
H21   H     H_    0.460489 0.866766 0.482352 0.232345
H22   H     H_    0.472966 0.030270 0.520185 0.222289
C30   C     C_3   0.603534 0.922281 0.653257 -1.006729
H23   H     H_    0.614728 0.990560 0.723663 0.277106
H24   H     H_    0.696623 0.940549 0.626174 0.265006
H25   H     H_    0.601867 0.826504 0.684925 0.258637
H26   H     H_    0.047780 0.624234 0.866583 0.165723
O11   O     O_3   0.190916 0.712773 0.093735 -0.649721
C31   C     C_3   0.052034 0.748095 0.048973 0.111447
H27   H     H_    0.019259 0.767286 0.122926 0.179248
H28   H     H_    0.974020 0.671016 0.999055 0.120108
C32   C     C_3   0.045245 0.867888 0.982606 -0.374582
H29   H     H_    0.112460 0.945998 0.041037 0.233559
H30   H     H_    0.085723 0.857015 0.911705 0.221408
C33   C     C_3   0.893269 0.900360 0.932365 -0.961811
H31   H     H_    0.824278 0.822599 0.874557 0.271250
H32   H     H_    0.889944 0.985121 0.882302 0.271954
H33   H     H_    0.851931 0.918535 0.001682 0.272110
H34   H     H_    0.405162 0.624168 0.699281 0.155187

loop_
_geom_bond_atom_site_label_1
_geom_bond_atom_site_label_2
_ccdc_geom_bond_type
C30   H24   S    
C29   H22   S    
C14   C18   S    
C1    C11   S    
C4    C8    A    
C5    C20   A    
C10   C22   A    
O4    Zn2   S    
C28   C29   S    
C17   H2    S    
C19   C21   S    
C3    C7    A    
C18   O6    A    
C16   N1    D    
C5    C6    A    
C33   H32   S    
C30   H25   S    
C28   H20   S    
O6    Zn2   S    
C25   C26   S    
C19   O7    A    
C16   C17   S    
C23   C24   A    
C17   N2    D    
C15   H10   S    
C1    O1    A    
O3    Zn1   S    
C16   H3    S    
C25   H12   S    
C30   H23   S    
C29   C30   S    
O10   C28   S    
C31   C32   S    
C11   O10   S    
O8    Zn2   S    
C27   H16   S    
C26   H13   S    
C8    H8    S    
C23   O11   S    
C31   H28   S    
C18   O5    A    
C33   H31   S    
C31   H27   S    
C13   H18   S    
C28   H19   S    
C26   H14   S    
C12   O4    A    
C2    C4    A    
C32   H29   S    
C32   H30   S    
C9    C20   A    
O9    C25   S    
C8    C21   A    
N2    Zn1   S    
O7    Zn1   S    
C10   C12   S    
C1    O2    A    
C25   H11   S    
C6    H6    S    
C9    O9    S    
C13   C15   S    
C2    C24   A    
C20   H7    S    
O1    Zn1   S    
C19   O8    A    
C27   H15   S    
C14   C15   D    
C4    C5    A    
C6    C7    A    
H5    N1    S    
C24   H9    S    
C26   C27   S    
C12   O3    A    
C2    C3    A    
O11   C31   S    
C3    C10   A    
C11   C13   D    
C33   H33   S    
C9    C21   A    
C14   H1    S    
C32   C33   S    
O2    Zn2   S    
C29   H21   S    
C7    H34   S    
H4    N2    S    
O5    Zn1   S    
C22   C23   A    
N1    Zn2   S    
C22   H26   S    
C27   H17   S    
