data_mof_unit_44331.cif
_audit_creation_date              2012-12-10T18:14:42-0500
_audit_creation_method            fapswitch 2.2
_symmetry_space_group_name_H-M    P1
_symmetry_Int_Tables_number       1
_space_group_crystal_system       triclinic
_cell_length_a                    10.932997
_cell_length_b                    9.572666
_cell_length_c                    27.469411
_cell_angle_alpha                 89.862094
_cell_angle_beta                  91.612845
_cell_angle_gamma                 89.812781
_cell_volume                      2873.72839031

loop_
_atom_site_label
_atom_site_type_symbol
_atom_type_description
_atom_site_fract_x
_atom_site_fract_y
_atom_site_fract_z
_atom_type_partial_charge
C1    C     C_R   0.259780 0.499995 0.500636 0.870312
C2    C     C_R   0.483791 0.502887 0.268925 -0.222502
C3    C     C_R   0.607650 0.513886 0.258213 0.288231
C4    C     C_R   0.656860 0.499253 0.107281 -0.061395
C5    C     C_R   0.633880 0.376362 0.133868 -0.023351
C6    C     C_R   0.610146 0.251438 0.109238 -0.136358
C7    C     C_R   0.685190 0.624287 0.132527 -0.053875
C8    C     C_R   0.534571 0.501857 0.355570 -0.038105
C9    C     C_R   0.511564 0.499005 0.646059 -0.030039
C10   C     C_R   0.579502 0.378138 0.980649 0.042666
C11   C     C_R   0.662350 0.616328 0.976703 0.053331
C12   C     C_R   0.503506 0.500277 0.407515 0.921531
C13   C     C_R   0.609533 0.497739 0.953229 0.071696
C14   C     C_R   0.514626 0.269325 0.957180 -0.275895
C15   C     C_R   0.482979 0.274272 0.907633 -0.004218
C16   C     C_R   0.525117 0.386259 0.878585 -0.045238
C17   C     C_R   0.586809 0.498761 0.901922 -0.060545
C18   C     C_R   0.626047 0.612923 0.873972 -0.011862
C19   C     C_R   0.608773 0.611217 0.823214 0.544594
C20   C     C_R   0.510913 0.389356 0.827078 0.562887
C21   C     C_R   0.584138 0.388868 0.721131 -0.080061
C22   C     C_R   0.568903 0.386870 0.670598 -0.188777
C23   C     C_R   0.739108 0.500277 0.502594 0.771425
C24   C     C_R   0.466234 0.611366 0.672981 -0.164186
C25   C     C_R   0.477334 0.610782 0.723770 -0.088022
C26   C     C_R   0.537613 0.500179 0.748275 0.319948
C27   C     C_R   0.608381 0.373799 0.031314 0.058646
C28   C     C_R   0.647558 0.497287 0.055541 0.074600
C29   C     C_R   0.673750 0.619253 0.028554 0.047361
C30   C     C_R   0.597891 0.249847 0.058865 -0.210694
C31   C     C_R   0.720246 0.742988 0.105332 -0.017958
C32   C     C_R   0.700594 0.728476 0.947284 -0.206234
C33   C     C_R   0.683531 0.726035 0.897033 -0.142433
C34   C     C_R   0.502769 0.499812 0.592548 0.878608
C35   C     C_R   0.710524 0.740158 0.054439 -0.271149
C36   C     C_3   0.069295 0.654360 0.507134 -0.172815
C37   C     C_3   0.073813 0.415001 0.548668 -0.224490
C38   C     C_3   0.927551 0.654229 0.499308 -0.211957
C39   C     C_3   0.932173 0.437723 0.552995 -0.206686
C40   C     C_3   0.060791 0.424401 0.455572 -0.096984
C41   C     C_3   0.120663 0.499659 0.503092 -0.033260
C42   C     C_3   0.876743 0.500939 0.504100 -0.088786
C43   C     C_3   0.920476 0.410829 0.461727 -0.404180
C44   C     C_3   0.617754 0.081667 0.482939 0.262758
C45   C     C_3   0.609693 0.917211 0.476742 0.227191
C46   C     C_3   0.489429 0.082645 0.551051 -0.379408
C47   C     C_3   0.503799 0.916535 0.551406 -0.392869
C48   C     C_3   0.396497 0.082572 0.471036 0.196944
C49   C     C_3   0.385931 0.919338 0.478184 0.268880
C50   C     C_R   0.630623 0.381916 0.184689 0.576225
C51   C     C_R   0.668287 0.627014 0.183562 0.618296
C52   C     C_R   0.695529 0.522111 0.296234 0.353193
C53   C     C_R   0.658345 0.517462 0.344471 -0.205228
C54   C     C_R   0.446280 0.493992 0.317051 -0.022402
Cu1   Cu    Cu3+1 0.499860 0.642410 0.500020 0.996471
Cu2   Cu    Cu3+1 0.499860 0.357590 0.500020 1.007263
H1    H     H_    0.747077 0.818975 0.961684 0.145432
H2    H     H_    0.420926 0.698594 0.654799 0.164226
H3    H     H_    0.715406 0.814443 0.876259 0.191504
H4    H     H_    0.439619 0.696819 0.744072 0.166136
H5    H     H_    0.732382 0.835819 0.035947 0.123887
H6    H     H_    0.109894 0.719502 0.478490 0.213404
H7    H     H_    0.091672 0.302770 0.541825 0.162707
H8    H     H_    0.883495 0.718484 0.527584 0.195565
H9    H     H_    0.915246 0.515776 0.582119 0.203903
H10   H     H_    0.416900 0.495153 0.239152 0.148384
H11   H     H_    0.867802 0.435740 0.427668 0.137028
H12   H     H_    0.893891 0.301902 0.469305 0.254456
H13   H     H_    0.691134 0.101200 0.511049 0.079707
H14   H     H_    0.693464 0.873762 0.494878 0.108071
H15   H     H_    0.560534 0.127571 0.576093 0.206789
H16   H     H_    0.591059 0.886987 0.570682 0.187405
H17   H     H_    0.310064 0.128299 0.483727 0.119644
H18   H     H_    0.309218 0.902792 0.503355 0.058920
H19   H     H_    0.399570 0.112073 0.566191 0.184271
H20   H     H_    0.429480 0.871072 0.573210 0.190689
H21   H     H_    0.596577 0.154757 0.128911 0.187334
H22   H     H_    0.604507 0.299034 0.650646 0.191334
H23   H     H_    0.632332 0.303520 0.739215 0.168481
H24   H     H_    0.478828 0.182951 0.977671 0.134817
H25   H     H_    0.580941 0.149396 0.042305 0.135607
H26   H     H_    0.726423 0.524480 0.373512 0.130478
N1    N     N_R   0.641924 0.506892 0.208175 -0.461489
N2    N     N_R   0.551971 0.500778 0.800714 -0.467711
N3    N     N_3   0.500250 0.143650 0.501060 -0.219637
N4    N     N_3   0.500250 0.856350 0.501060 -0.219666
O1    O     O_R   0.317570 0.620260 0.500030 -0.576573
O2    O     O_R   0.317570 0.379740 0.500030 -0.607766
O3    O     O_R   0.499900 0.620250 0.430280 -0.517130
O4    O     O_R   0.499900 0.379750 0.430280 -0.503250
O5    O     O_R   0.682190 0.620260 0.500010 -0.618244
O6    O     O_R   0.682190 0.379740 0.500010 -0.565462
O7    O     O_R   0.499860 0.620280 0.569750 -0.598924
O8    O     O_R   0.499860 0.379720 0.569750 -0.584652
O9    O     O_2   0.610896 0.264248 0.210475 -0.474024
O10   O     O_2   0.458887 0.281093 0.803164 -0.496197
O11   O     O_2   0.670255 0.748878 0.208041 -0.442077
O12   O     O_2   0.650973 0.718199 0.796406 -0.532141
C55   C     C_2   0.315584 0.470326 0.324680 0.491177
H27   H     H_    0.247499 0.506376 0.297950 0.103516
O13   O     O_2   0.282904 0.402643 0.359368 -0.556690
Br1   Br    Br    0.866351 0.535571 0.283447 -0.403618
C56   C     C_2   0.775084 0.870394 0.127359 0.498386
H28   H     H_    0.756647 0.971656 0.110841 0.028194
O14   O     O_2   0.848584 0.862645 0.161561 -0.440321
C57   C     C_2   0.109787 0.729594 0.553788 0.430203
H29   H     H_    0.204318 0.760909 0.558952 0.101558
O15   O     O_2   0.039152 0.756219 0.586192 -0.545297
C58   C     C_2   0.137614 0.438476 0.597746 0.365164
H30   H     H_    0.099537 0.391187 0.629893 0.125242
O16   O     O_2   0.231766 0.505476 0.602327 -0.582411
C59   C     C_2   0.893034 0.726016 0.451623 0.462323
H31   H     H_    0.848212 0.670127 0.422069 0.091730
O17   O     O_2   0.916547 0.849522 0.445883 -0.455350
C60   C     C_2   0.872716 0.302778 0.568553 0.337890
H32   H     H_    0.880487 0.209282 0.546626 0.121829
O18   O     O_2   0.817046 0.297168 0.606379 -0.570109
C61   C     C_2   0.076949 0.501448 0.407801 0.364107
H33   H     H_    0.032071 0.461538 0.374927 0.143057
O19   O     O_2   0.140480 0.604490 0.404355 -0.491143
C62   C     C_2   0.114955 0.279716 0.447175 0.360184
H34   H     H_    0.194429 0.270277 0.425356 0.177506
O20   O     O_2   0.073105 0.173250 0.464771 -0.532321
Br2   Br    Br    0.691151 0.173381 0.426338 -0.352473
Br3   Br    Br    0.625543 0.859955 0.408355 -0.305886
Br4   Br    Br    0.399056 0.129680 0.401019 -0.277293
Br5   Br    Br    0.317513 0.825517 0.420465 -0.283514
C63   C     C_2   0.400404 0.162222 0.889592 0.482079
H35   H     H_    0.418981 0.054439 0.899818 0.041122
O21   O     O_2   0.306199 0.190231 0.866645 -0.475177

loop_
_geom_bond_atom_site_label_1
_geom_bond_atom_site_label_2
_ccdc_geom_bond_type
C10   C27   A    
C1    O1    A    
C40   C61   S    
C21   C26   A    
C51   O11   S    
Cu1   O3    S    
C34   O7    A    
Cu1   O7    S    
C63   H35   S    
C59   O17   D    
C54   C55   S    
C52   C53   A    
Cu2   O8    S    
C40   C62   S    
C52   Br1   S    
C23   C42   S    
C12   O4    A    
C28   C29   A    
C47   H20   S    
C38   C42   S    
C58   O16   D    
C5    C6    A    
C9    C22   A    
Cu2   O2    S    
C57   H29   S    
C60   H32   S    
C18   C19   A    
C61   H33   S    
C46   H19   S    
Cu1   O5    S    
C4    C28   A    
C40   C43   S    
C45   Br3   S    
C43   H12   S    
C60   O18   D    
C25   H4    S    
C14   H24   S    
C37   C58   S    
C16   C20   A    
C46   N3    S    
C1    O2    A    
Cu2   O4    S    
C20   O10   S    
C33   H3    S    
C21   C22   A    
C27   C30   A    
C37   C41   S    
C39   H9    S    
C36   C41   S    
C32   H1    S    
C4    C7    A    
C36   H6    S    
C49   N4    S    
C59   H31   S    
C37   H7    S    
C19   O12   S    
C50   N1    A    
C39   C42   S    
C38   H8    S    
C49   Br5   S    
C7    C31   A    
C15   C16   A    
C36   C57   S    
C47   N4    S    
C12   O3    A    
C24   C25   A    
C22   H22   S    
C35   H5    S    
C2    C54   A    
C8    C54   A    
C16   C17   A    
C6    H21   S    
C25   C26   A    
C44   Br2   S    
C53   H26   S    
C31   C56   S    
C55   H27   S    
C14   C15   A    
C8    C12   S    
C21   H23   S    
Cu1   Cu2   S    
C17   C18   A    
C46   H15   S    
C44   H13   S    
C56   O14   D    
C62   H34   S    
C24   H2    S    
C40   C41   S    
C55   O13   D    
C11   C32   A    
C39   C60   S    
C15   C63   S    
C20   N2    A    
C10   C14   A    
C9    C34   S    
C31   C35   A    
C5    C50   A    
C42   C43   S    
C38   C59   S    
C19   N2    A    
C51   N1    A    
C56   H28   S    
C44   C45   S    
C1    C41   S    
C46   C47   S    
C48   C49   S    
C26   N2    S    
C6    C30   A    
C45   H14   S    
C49   H18   S    
C48   H17   S    
C48   N3    S    
C34   O8    A    
C4    C5    A    
C2    H10   S    
C10   C13   A    
C63   O21   D    
C8    C53   A    
C3    C52   A    
C9    C24   A    
C29   C35   A    
C13   C17   A    
C32   C33   A    
C30   H25   S    
C36   C38   S    
C2    C3    A    
C7    C51   A    
C37   C39   S    
C58   H30   S    
C3    N1    S    
C11   C13   A    
Cu2   N3    S    
C57   O15   D    
Cu1   N4    S    
C45   N4    S    
C23   O5    A    
Cu1   O1    S    
C50   O9    S    
C18   C33   A    
C61   O19   D    
C47   H16   S    
C62   O20   D    
C48   Br4   S    
Cu2   O6    S    
C11   C29   A    
C43   H11   S    
C27   C28   A    
C23   O6    A    
C44   N3    S    
