data_mof_unit_45747.cif
_audit_creation_date              2012-12-11T14:48:09-0500
_audit_creation_method            fapswitch 2.2
_symmetry_space_group_name_H-M    P1
_symmetry_Int_Tables_number       1
_space_group_crystal_system       triclinic
_cell_length_a                    11.478871
_cell_length_b                    11.51661
_cell_length_c                    19.551847
_cell_angle_alpha                 90.019319
_cell_angle_beta                  89.710021
_cell_angle_gamma                 59.536358
_cell_volume                      2227.85132501

loop_
_atom_site_label
_atom_site_type_symbol
_atom_type_description
_atom_site_fract_x
_atom_site_fract_y
_atom_site_fract_z
_atom_type_partial_charge
C1    C     C_R   0.619168 0.090601 0.606935 0.537251
C2    C     C_1   0.620468 0.738857 0.673007 0.003641
C3    C     C_1   0.127159 0.199221 0.859287 0.002963
C4    C     C_1   0.171218 0.170168 0.727748 -0.032195
C5    C     C_1   0.150347 0.182520 0.798946 -0.031888
C6    C     C_1   0.194712 0.160691 0.667384 0.001745
C7    C     C_1   0.698513 0.206222 0.855333 0.002741
C8    C     C_1   0.652926 0.156186 0.731238 -0.027783
C9    C     C_1   0.674843 0.185097 0.798289 -0.027900
C10   C     C_1   0.637035 0.128040 0.674127 0.005147
C11   C     C_R   0.579807 0.633867 0.306493 -0.144959
C12   C     C_R   0.585491 0.793389 0.606040 0.537206
C13   C     C_R   0.577193 0.628796 0.236953 -0.139304
C14   C     C_R   0.669922 0.645574 0.197770 0.014138
C15   C     C_R   0.768433 0.663560 0.229177 -0.105006
C16   C     C_R   0.772639 0.669916 0.300330 0.004034
C17   C     C_R   0.667603 0.666996 0.338379 0.026301
C18   C     C_R   0.223246 0.253908 0.290299 -0.132997
C19   C     C_R   0.197073 0.269016 0.221402 -0.137620
C20   C     C_R   0.156542 0.187997 0.188682 0.033590
C21   C     C_R   0.159538 0.079896 0.223692 -0.137119
C22   C     C_R   0.186814 0.063855 0.293390 -0.137957
C23   C     C_R   0.240347 0.145480 0.598145 0.537756
C24   C     C_R   0.213130 0.154824 0.327522 0.034400
C25   C     C_R   0.803531 0.088605 0.309821 -0.136821
C26   C     C_R   0.824417 0.117300 0.243768 -0.127486
C27   C     C_R   0.718521 0.221539 0.206858 0.029398
C28   C     C_R   0.593627 0.304107 0.239091 -0.136018
C29   C     C_R   0.572273 0.275085 0.305573 -0.136753
C30   C     C_R   0.675748 0.163516 0.340139 0.027520
C31   C     C_R   0.082189 0.231250 0.928584 0.538590
C32   C     C_R   0.706250 0.553876 0.922135 0.537078
C33   C     C_R   0.734619 0.227097 0.922205 0.539135
C34   C     C_R   0.646347 0.114484 0.403046 0.556635
C35   C     C_R   0.086743 0.233450 0.123973 0.543921
C36   C     C_R   0.683400 0.608934 0.126690 0.551565
C37   C     C_R   0.741063 0.236994 0.134515 0.560852
C38   C     C_R   0.621402 0.733842 0.404013 0.553678
C39   C     C_R   0.251704 0.137690 0.399029 0.552949
C40   C     C_1   0.688173 0.605210 0.854500 0.004864
C41   C     C_1   0.645680 0.695690 0.730087 -0.029666
C42   C     C_1   0.670424 0.646959 0.797131 -0.028674
Cr1   Cr    Cr6+3 0.404720 0.198220 0.499960 1.023502
Cr2   Cr    Cr6+3 0.698290 0.897110 0.500380 1.013164
Cr3   Cr    Cr6+3 0.396970 0.904720 0.499610 1.025218
Cr4   Cr    Cr6+3 0.926180 0.152240 0.028110 1.021422
Cr5   Cr    Cr6+3 0.921340 0.452070 0.027460 1.025976
Cr6   Cr    Cr6+3 0.626260 0.447120 0.028700 1.027598
H1    H     H_    0.503866 0.623973 0.334836 0.135185
H2    H     H_    0.921863 0.053061 0.220243 0.120932
H3    H     H_    0.510889 0.386355 0.212056 0.120238
H4    H     H_    0.472875 0.335264 0.328318 0.118717
H5    H     H_    0.503317 0.608700 0.214214 0.134730
H6    H     H_    0.842326 0.670394 0.197630 0.138606
H7    H     H_    0.251304 0.321014 0.314204 0.130202
H8    H     H_    0.200741 0.349623 0.194781 0.129307
H9    H     H_    0.134985 0.011932 0.197988 0.119123
H10   H     H_    0.185778 0.982314 0.320441 0.122097
H11   H     H_    0.885502 0.003210 0.335620 0.123457
O1    O     O_R   0.267740 0.231990 0.575440 -0.507177
O2    O     O_R   0.685970 0.784630 0.430010 -0.513307
O3    O     O_R   0.502530 0.766960 0.423990 -0.514666
O4    O     O_R   0.288330 0.026310 0.429250 -0.497684
O5    O     O_3   0.499990 0.000020 0.499980 -0.276748
O6    O     O_R   0.821500 0.119550 0.952820 -0.485985
O7    O     O_R   0.037130 0.162750 0.957360 -0.506696
O8    O     O_R   0.056440 0.344950 0.951330 -0.505114
O9    O     O_R   0.797900 0.560570 0.957460 -0.480948
O10   O     O_R   0.596140 0.579600 0.952720 -0.499381
O11   O     O_R   0.639070 0.321380 0.958660 -0.490636
O12   O     O_R   0.527280 0.186680 0.570530 -0.485671
O13   O     O_R   0.821240 0.124490 0.104360 -0.504960
O14   O     O_R   0.036900 0.167320 0.097830 -0.521775
O15   O     O_R   0.056190 0.349890 0.102870 -0.517188
O16   O     O_R   0.797670 0.565150 0.097930 -0.498399
O17   O     O_R   0.595880 0.584540 0.104260 -0.526731
O18   O     O_R   0.638830 0.325960 0.099140 -0.493855
O19   O     O_3   0.824590 0.350480 0.028090 -0.301377
O20   O     O_R   0.728090 0.003480 0.576380 -0.501242
O21   O     O_R   0.682970 0.789220 0.570490 -0.500495
O22   O     O_R   0.499290 0.771920 0.575530 -0.494900
O23   O     O_R   0.285330 0.030900 0.569730 -0.505235
O24   O     O_R   0.270980 0.227040 0.423900 -0.526081
O25   O     O_R   0.530280 0.182090 0.430050 -0.498644
O26   O     O_R   0.731330 0.998530 0.424830 -0.530630
C43   C     C_3   0.883572 0.684984 0.334549 -0.253824
C44   C     C_3   0.012973 0.636340 0.292467 -0.473080
H12   H     H_    0.046244 0.535767 0.270338 0.161696
H13   H     H_    0.996717 0.708824 0.250980 0.143599
H14   H     H_    0.094432 0.628884 0.325883 0.135385
H15   H     H_    0.843715 0.792494 0.347112 0.191007
H16   H     H_    0.913648 0.625267 0.382560 0.164317

loop_
_geom_bond_atom_site_label_1
_geom_bond_atom_site_label_2
_ccdc_geom_bond_type
C19   H8    S    
C31   O7    A    
C44   H12   S    
C35   O15   A    
C23   O23   A    
Cr1   O24   S    
C41   C42   S    
Cr6   O17   S    
C19   C20   A    
Cr6   O10   S    
C2    C12   S    
C33   O6    A    
Cr2   O5    S    
C31   O8    A    
C26   C27   A    
C1    O12   A    
C18   C24   A    
C28   C29   A    
Cr4   O7    S    
C43   H15   S    
C26   H2    S    
C14   C36   S    
C28   H3    S    
C2    C41   T    
C15   C16   A    
Cr3   O3    S    
C24   C39   S    
C18   C19   A    
Cr6   O19   S    
C36   O17   A    
C20   C35   S    
C11   C17   A    
Cr3   O23   S    
C8    C9    S    
Cr4   O13   S    
C32   O9    A    
C38   O2    A    
C40   C42   T    
C21   C22   A    
C16   C43   S    
Cr1   O25   S    
C7    C33   S    
C34   O25   A    
Cr5   O8    S    
Cr1   O5    S    
C13   H5    S    
C23   O1    A    
C30   C34   S    
C15   H6    S    
Cr2   O21   S    
Cr4   O6    S    
C4    C6    T    
Cr4   O19   S    
C43   C44   S    
C16   C17   A    
C25   C26   A    
C37   O18   A    
Cr3   O4    S    
C34   O26   A    
Cr6   O18   S    
C21   H9    S    
C29   C30   A    
C11   H1    S    
C36   O16   A    
C3    C31   S    
C33   O11   A    
Cr1   O1    S    
C44   H13   S    
C1    O20   A    
C22   C24   A    
C44   H14   S    
Cr2   O26   S    
Cr5   O9    S    
C25   C30   A    
C7    C9    T    
C35   O14   A    
Cr1   O12   S    
Cr2   O20   S    
Cr3   O22   S    
C1    C10   S    
Cr5   O15   S    
Cr6   O11   S    
C4    C5    S    
C3    C5    T    
C22   H10   S    
C32   O10   A    
Cr2   O2    S    
C39   O4    A    
Cr3   O5    S    
Cr5   O16   S    
C43   H16   S    
C11   C13   A    
C27   C37   S    
C18   H7    S    
C6    C23   S    
C12   O21   A    
C12   O22   A    
C17   C38   S    
C32   C40   S    
C39   O24   A    
C20   C21   A    
C8    C10   T    
C37   O13   A    
C27   C28   A    
C14   C15   A    
C25   H11   S    
Cr5   O19   S    
C13   C14   A    
Cr4   O14   S    
C38   O3    A    
C29   H4    S    
