data_mof_unit_11099.cif
_audit_creation_date              2012-12-11T16:46:28-0500
_audit_creation_method            fapswitch 2.2
_symmetry_space_group_name_H-M    P1
_symmetry_Int_Tables_number       1
_space_group_crystal_system       monoclinic
_cell_length_a                    26.273399
_cell_length_b                    7.188077
_cell_length_c                    23.844418
_cell_angle_alpha                 90.0
_cell_angle_beta                  101.616145
_cell_angle_gamma                 90.0
_cell_volume                      4410.91179892

loop_
_atom_site_label
_atom_site_type_symbol
_atom_type_description
_atom_site_fract_x
_atom_site_fract_y
_atom_site_fract_z
_atom_type_partial_charge
O1    O     O_R   0.547620 0.505720 0.453310 -0.539152
O2    O     O_R   0.452380 0.005720 0.546690 -0.539152
O3    O     O_R   0.442260 0.172470 0.436770 -0.532291
O4    O     O_R   0.557740 0.672470 0.563230 -0.532291
C1    C     C_R   0.076096 0.468134 0.078677 0.722498
C2    C     C_R   0.923903 0.968134 0.921323 0.722498
C3    C     C_R   0.424147 0.344412 0.421533 0.706438
C4    C     C_R   0.575853 0.844412 0.578467 0.706438
O5    O     O_R   0.546600 0.175780 0.446490 -0.541817
O6    O     O_R   0.453400 0.675780 0.553510 -0.541817
O7    O     O_R   0.557460 0.008970 0.556480 -0.526846
O8    O     O_R   0.442540 0.508970 0.443520 -0.526846
C5    C     C_R   0.562287 0.344679 0.434292 0.677459
C6    C     C_R   0.437713 0.844679 0.565708 0.677458
O9    O     O_R   0.047630 0.803580 0.953300 -0.538339
O10   O     O_R   0.952370 0.303580 0.046700 -0.538339
O11   O     O_3   0.503440 0.340340 0.536080 -0.372205
O12   O     O_3   0.496560 0.840340 0.463920 -0.372205
V1    V     V_3+5 0.499360 0.064140 0.493310 1.416966
V2    V     V_3+5 0.500640 0.564140 0.506690 1.416966
O13   O     O_R   0.057730 0.636870 0.063240 -0.533476
O14   O     O_R   0.942270 0.136870 0.936760 -0.533476
O15   O     O_3   0.996540 0.468950 0.963950 -0.373291
O16   O     O_3   0.003460 0.968950 0.036050 -0.373290
C7    C     C_R   0.116466 0.780837 0.878017 -0.164095
C8    C     C_R   0.883534 0.280837 0.121983 -0.164095
H1    H     H_    0.100071 0.652689 0.890407 0.125394
H2    H     H_    0.899929 0.152689 0.109593 0.125394
C9    C     C_R   0.153088 0.769715 0.842901 -0.147833
C10   C     C_R   0.846912 0.269715 0.157099 -0.147833
H3    H     H_    0.163227 0.633893 0.828837 0.100935
H4    H     H_    0.836773 0.133893 0.171163 0.100935
C11   C     C_R   0.175593 0.931532 0.825337 0.096004
C12   C     C_R   0.824407 0.431532 0.174663 0.096004
C13   C     C_R   0.160351 0.105067 0.843852 -0.144942
C14   C     C_R   0.839649 0.605067 0.156148 -0.144942
H5    H     H_    0.177402 0.232487 0.831887 0.100114
H6    H     H_    0.822598 0.732487 0.168113 0.100114
C15   C     C_R   0.123601 0.116339 0.878955 -0.162458
C16   C     C_R   0.876399 0.616339 0.121045 -0.162458
H7    H     H_    0.113204 0.252321 0.892651 0.121185
H8    H     H_    0.886796 0.752321 0.107349 0.121185
C17   C     C_R   0.101097 0.954275 0.896538 -0.052575
C18   C     C_R   0.898903 0.454275 0.103462 -0.052575
C19   C     C_R   0.214806 0.049502 0.743854 -0.152870
C20   C     C_R   0.785194 0.549502 0.256146 -0.152870
H9    H     H_    0.186311 0.160237 0.736302 0.109487
H10   H     H_    0.813688 0.660237 0.263698 0.109487
C21   C     C_R   0.251006 0.036394 0.708210 -0.153379
C22   C     C_R   0.748994 0.536394 0.291790 -0.153379
H11   H     H_    0.249333 0.137567 0.674252 0.108478
H12   H     H_    0.750667 0.637567 0.325748 0.108478
C23   C     C_R   0.288089 0.892444 0.715476 0.081940
C24   C     C_R   0.711911 0.392444 0.284524 0.081940
C25   C     C_R   0.287911 0.761945 0.759412 -0.152460
C26   C     C_R   0.712089 0.261945 0.240588 -0.152460
H13   H     H_    0.316384 0.651146 0.766951 0.109577
H14   H     H_    0.683616 0.151146 0.233049 0.109577
C27   C     C_R   0.251684 0.774998 0.795038 -0.153566
C28   C     C_R   0.748316 0.274998 0.204962 -0.153566
H15   H     H_    0.253273 0.673685 0.828946 0.108025
H16   H     H_    0.746727 0.173685 0.171054 0.108025
C29   C     C_R   0.214587 0.918877 0.787733 0.081505
C30   C     C_R   0.785413 0.418877 0.212267 0.081505
C31   C     C_R   0.342023 0.705355 0.659186 -0.145839
C32   C     C_R   0.657976 0.205355 0.340814 -0.145839
H17   H     H_    0.325356 0.578017 0.671763 0.100525
H18   H     H_    0.674644 0.078017 0.328237 0.100525
C33   C     C_R   0.378123 0.693643 0.623303 -0.161235
C34   C     C_R   0.621876 0.193643 0.376697 -0.161235
H19   H     H_    0.388503 0.557440 0.609760 0.120685
H20   H     H_    0.611497 0.057440 0.390240 0.120685
C35   C     C_R   0.399947 0.855548 0.604700 -0.049546
C36   C     C_R   0.600052 0.355548 0.395300 -0.049546
C37   C     C_R   0.384834 0.029218 0.623328 -0.160480
C38   C     C_R   0.615166 0.529218 0.376672 -0.160479
H21   H     H_    0.400850 0.157254 0.610334 0.124782
H22   H     H_    0.599150 0.657254 0.389666 0.124782
C39   C     C_R   0.348900 0.040774 0.659253 -0.147965
C40   C     C_R   0.651100 0.540774 0.340747 -0.147965
H23   H     H_    0.338880 0.176829 0.673249 0.101060
H24   H     H_    0.661119 0.676829 0.326751 0.101060
C41   C     C_R   0.326824 0.879181 0.677554 0.094921
C42   C     C_R   0.673176 0.379181 0.322446 0.094921
C43   C     C_3   0.760918 0.739167 0.801055 -0.025493
C44   C     C_3   0.239082 0.239167 0.198945 -0.025493
C45   C     C_3   0.755976 0.094323 0.791360 -0.408089
C46   C     C_3   0.244024 0.594323 0.208640 -0.408089
C47   C     C_3   0.705984 0.079856 0.741988 0.424173
C48   C     C_3   0.294016 0.579856 0.258012 0.424174
H25   H     H_    0.674254 0.731155 0.773811 0.138864
H26   H     H_    0.325746 0.231155 0.226189 0.138864
H27   H     H_    0.778383 0.222474 0.786239 0.128596
H28   H     H_    0.221617 0.722474 0.213761 0.128596
H29   H     H_    0.745561 0.110295 0.833973 0.128747
H30   H     H_    0.254439 0.610295 0.166027 0.128747
C49   C     C_1   0.621214 0.854505 0.624724 -0.172544
C50   C     C_1   0.378786 0.354505 0.375275 -0.172543
C51   C     C_3   0.791695 0.921584 0.792470 0.199687
C52   C     C_3   0.208305 0.421584 0.207530 0.199686
C53   C     C_3   0.709361 0.727872 0.754704 -0.459770
C54   C     C_3   0.290639 0.227872 0.245296 -0.459770
C55   C     C_3   0.706682 0.886630 0.709849 0.169726
C56   C     C_3   0.293317 0.386630 0.290151 0.169726
C57   C     C_3   0.757529 0.874517 0.684327 -0.060404
C58   C     C_3   0.242471 0.374517 0.315673 -0.060404
C59   C     C_3   0.806577 0.909148 0.732797 -0.405505
C60   C     C_3   0.193423 0.409148 0.267203 -0.405504
C61   C     C_1   0.659386 0.866917 0.663091 -0.048911
C62   C     C_1   0.340614 0.366917 0.336909 -0.048911
C63   C     C_1   0.839651 0.943214 0.837862 -0.060340
C64   C     C_1   0.160349 0.443214 0.162137 -0.060340
C65   C     C_1   0.878278 0.957518 0.875511 -0.198700
C66   C     C_1   0.121721 0.457518 0.124489 -0.198699
H31   H     H_    0.835990 0.797185 0.733761 0.153077
H32   H     H_    0.164010 0.297185 0.266239 0.153076
H33   H     H_    0.825780 0.040665 0.723696 0.133533
H34   H     H_    0.174220 0.540665 0.276304 0.133533
H35   H     H_    0.785173 0.619804 0.792042 0.129169
H36   H     H_    0.214827 0.119804 0.207958 0.129169
H37   H     H_    0.707396 0.590703 0.733027 0.179897
H38   H     H_    0.292604 0.090703 0.266973 0.179897
H39   H     H_    0.755595 0.986394 0.651746 0.136227
H40   H     H_    0.244404 0.486394 0.348254 0.136227
V3    V     V_3+5 0.000640 0.745210 0.006690 1.395129
V4    V     V_3+5 0.999360 0.245210 0.993310 1.395129
O17   O     O_R   0.057440 0.306950 0.056520 -0.533582
O18   O     O_R   0.942560 0.806950 0.943480 -0.533582
O19   O     O_R   0.953390 0.633680 0.053510 -0.540466
O20   O     O_R   0.046610 0.133680 0.946490 -0.540466
C67   C     C_R   0.937430 0.464795 0.065375 0.678817
C68   C     C_R   0.062569 0.964795 0.934625 0.678818
C69   C     C_3   0.751214 0.712456 0.863064 -0.358468
C70   C     C_3   0.790160 0.575736 0.898208 -0.330186
C71   C     C_3   0.783170 0.563427 0.960116 -0.746392
H41   H     H_    0.790281 0.701218 0.981350 0.225208
H42   H     H_    0.743226 0.516043 0.961621 0.226796
H43   H     H_    0.811396 0.462104 0.983955 0.216532
H44   H     H_    0.784367 0.435067 0.878596 0.185098
H45   H     H_    0.830636 0.619688 0.898209 0.209105
H46   H     H_    0.753354 0.847489 0.885937 0.184878
H47   H     H_    0.711690 0.656272 0.862256 0.175999
C72   C     C_3   0.248786 0.212456 0.136936 -0.358468
C73   C     C_3   0.209840 0.075736 0.101792 -0.330187
C74   C     C_3   0.216830 0.063427 0.039884 -0.746392
H48   H     H_    0.209719 0.201219 0.018650 0.225208
H49   H     H_    0.256774 0.016043 0.038379 0.226796
H50   H     H_    0.188604 0.962104 0.016045 0.216532
H51   H     H_    0.215633 0.935067 0.121404 0.185098
H52   H     H_    0.169364 0.119688 0.101790 0.209106
H53   H     H_    0.246646 0.347489 0.114063 0.184878
H54   H     H_    0.288310 0.156272 0.137744 0.175999
C75   C     C_3   0.656489 0.101170 0.768631 -0.285567
C76   C     C_3   0.647804 0.301948 0.787079 -0.288190
C77   C     C_3   0.604126 0.312253 0.820523 -0.811604
H55   H     H_    0.567288 0.259327 0.794043 0.235984
H56   H     H_    0.614186 0.228749 0.860421 0.231570
H57   H     H_    0.598339 0.459139 0.832258 0.219326
H58   H     H_    0.683834 0.357770 0.814332 0.193112
H59   H     H_    0.637095 0.391412 0.748518 0.223704
H60   H     H_    0.621183 0.058304 0.737348 0.166110
H61   H     H_    0.659510 0.009515 0.806687 0.138943
C78   C     C_3   0.343511 0.601169 0.231369 -0.285568
C79   C     C_3   0.352196 0.801948 0.212921 -0.288189
C80   C     C_3   0.395873 0.812252 0.179477 -0.811604
H62   H     H_    0.432711 0.759327 0.205956 0.235984
H63   H     H_    0.385813 0.728749 0.139579 0.231570
H64   H     H_    0.401661 0.959139 0.167742 0.219325
H65   H     H_    0.316166 0.857770 0.185668 0.193112
H66   H     H_    0.362905 0.891412 0.251482 0.223704
H67   H     H_    0.378816 0.558304 0.262652 0.166110
H68   H     H_    0.340490 0.509515 0.193313 0.138943
O21   O     O_3   0.704660 0.225937 0.701948 -0.660418
H69   H     H_    0.740084 0.247899 0.694914 0.266177
O22   O     O_3   0.295340 0.725937 0.298052 -0.660418
H70   H     H_    0.259916 0.747899 0.305086 0.266177
C81   C     C_3   0.762518 0.688131 0.652585 -0.339221
C82   C     C_3   0.801038 0.702611 0.612119 -0.328930
C83   C     C_3   0.805820 0.517200 0.582387 -0.765824
H71   H     H_    0.820104 0.407453 0.614527 0.220254
H72   H     H_    0.767552 0.474690 0.556551 0.231799
H73   H     H_    0.833823 0.531428 0.553436 0.219172
H74   H     H_    0.787475 0.810198 0.578981 0.193814
H75   H     H_    0.840051 0.743825 0.636341 0.196794
H76   H     H_    0.775372 0.575149 0.684076 0.178277
H77   H     H_    0.724245 0.646700 0.626582 0.192990
C84   C     C_3   0.237482 0.188131 0.347415 -0.339221
C85   C     C_3   0.198962 0.202611 0.387881 -0.328930
C86   C     C_3   0.194180 0.017201 0.417613 -0.765821
H78   H     H_    0.179897 0.907452 0.385474 0.220253
H79   H     H_    0.232448 0.974693 0.443450 0.231799
H80   H     H_    0.166177 0.031428 0.446564 0.219172
H81   H     H_    0.212524 0.310199 0.421019 0.193814
H82   H     H_    0.159949 0.243823 0.363658 0.196793
H83   H     H_    0.224628 0.075149 0.315924 0.178277
H84   H     H_    0.275755 0.146701 0.373418 0.192990

loop_
_geom_bond_atom_site_label_1
_geom_bond_atom_site_label_2
_ccdc_geom_bond_type
C71   H43   S    
C32   H18   S    
C46   H30   S    
V4    O17   S    
C50   C62   T    
C3    C50   S    
C25   C27   A    
C1    C66   S    
C77   H56   S    
C23   C25   A    
C79   H66   S    
C78   C79   S    
C47   O21   S    
C40   C42   A    
C7    C17   A    
C56   C58   S    
C82   C83   S    
C8    C18   A    
C71   H41   S    
C15   H7    S    
C32   C34   A    
O21   H69   S    
C18   C67   S    
O19   C67   A    
C57   C59   S    
O7    V1    S    
C69   H47   S    
C80   H62   S    
C36   C38   A    
C79   C80   S    
C13   H5    S    
C38   H22   S    
C58   C84   S    
O3    C3    A    
C70   H45   S    
C13   C15   A    
C84   H84   S    
C21   C23   A    
O14   V4    S    
V4    O20   S    
C72   C73   S    
C2    O14   A    
C9    C11   A    
O11   V2    S    
C81   H76   S    
C57   H39   S    
C28   H16   S    
O12   V1    S    
C43   H35   S    
O10   C67   A    
O5    C5    A    
C43   C53   S    
C73   H52   S    
O5    V1    S    
O9    C68   A    
O6    V2    S    
C21   H11   S    
C45   H29   S    
C34   C36   A    
V3    O18   S    
C22   H12   S    
O3    V1    S    
C10   H4    S    
C44   C52   S    
C82   H74   S    
O4    C4    A    
C83   H73   S    
C72   H53   S    
C85   H82   S    
C80   H63   S    
C47   C55   S    
C77   H57   S    
C35   C37   A    
O8    V2    S    
C79   H65   S    
H25   C53   S    
C24   C42   S    
C74   H49   S    
C44   C72   S    
C74   H48   S    
C48   C78   S    
C45   C51   S    
C19   H9    S    
C7    C9    A    
C3    O8    A    
C24   C26   A    
C27   H15   S    
C52   C60   S    
C10   C12   A    
C6    C35   S    
C60   H34   S    
C14   C16   A    
C40   H24   S    
O6    C6    A    
C70   H44   S    
C39   H23   S    
C15   C17   A    
C31   H17   S    
C48   O22   S    
C19   C29   A    
C53   H37   S    
C81   H77   S    
C26   C28   A    
C75   H60   S    
C85   C86   S    
C28   C30   A    
O4    V2    S    
C86   H80   S    
O20   C68   A    
C4    C49   S    
C2    C65   S    
C76   H59   S    
C73   H51   S    
C43   C51   S    
C49   C61   T    
C47   C75   S    
O22   H70   S    
C19   C21   A    
C11   C29   S    
C51   C63   S    
C1    O17   A    
C12   C30   S    
C63   C65   T    
C25   H13   S    
C22   C24   A    
C33   C35   A    
C78   H68   S    
C37   H21   S    
C48   C56   S    
C76   C77   S    
C46   C52   S    
O15   V4    S    
C64   C66   T    
C72   H54   S    
C46   C48   S    
C85   H81   S    
C52   C64   S    
C80   H64   S    
C45   C47   S    
O16   V3    S    
C55   C57   S    
O1    C5    A    
O13   V3    S    
C44   C54   S    
C74   H50   S    
C78   H67   S    
C71   H42   S    
C17   C68   S    
O1    V2    S    
C84   H83   S    
O2    V1    S    
C27   C29   A    
C38   C40   A    
C57   C81   S    
C73   C74   S    
C34   H20   S    
C8    C10   A    
C70   C71   S    
H26   C54   S    
C7    H1    S    
C51   C59   S    
C20   C22   A    
C8    H2    S    
C33   H19   S    
C23   C41   S    
C75   H61   S    
C55   C61   S    
C60   H32   S    
C14   H6    S    
C2    O18   A    
C76   H58   S    
C9    H3    S    
C56   C62   S    
C69   C70   S    
C58   C60   S    
C54   C56   S    
C4    O7    A    
C31   C33   A    
C45   H27   S    
C16   H8    S    
C11   C13   A    
C26   H14   S    
C59   H31   S    
C12   C14   A    
C86   H78   S    
O2    C6    A    
O10   V4    S    
C31   C41   A    
C32   C42   A    
C83   H71   S    
C39   C41   A    
C20   H10   S    
V3    O19   S    
C16   C18   A    
C1    O13   A    
C5    C36   S    
C84   C85   S    
C53   C55   S    
C81   C82   S    
O9    V3    S    
C58   H40   S    
C77   H55   S    
C46   H28   S    
C44   H36   S    
C69   H46   S    
C20   C30   A    
C86   H79   S    
C75   C76   S    
C54   H38   S    
C37   C39   A    
C59   H33   S    
C82   H75   S    
C43   C69   S    
C83   H72   S    
