data_mof_unit_55759.cif
_audit_creation_date              2012-12-10T17:44:31-0500
_audit_creation_method            fapswitch 2.2
_symmetry_space_group_name_H-M    P1
_symmetry_Int_Tables_number       1
_space_group_crystal_system       triclinic
_cell_length_a                    9.997181
_cell_length_b                    10.637554
_cell_length_c                    15.419375
_cell_angle_alpha                 93.10466
_cell_angle_beta                  67.621044
_cell_angle_gamma                 85.362273
_cell_volume                      1504.88630655

loop_
_atom_site_label
_atom_site_type_symbol
_atom_type_description
_atom_site_fract_x
_atom_site_fract_y
_atom_site_fract_z
_atom_type_partial_charge
C1    C     C_R   0.494136 0.740221 0.498491 1.009534
C2    C     C_R   0.421929 0.581752 0.909368 0.007272
C3    C     C_R   0.280413 0.644677 0.962438 -0.071754
C4    C     C_R   0.531729 0.579705 0.946149 -0.044926
C5    C     C_R   0.489093 0.605621 0.043964 -0.011768
C6    C     C_R   0.349611 0.669648 0.096472 -0.130643
C7    C     C_R   0.248273 0.694404 0.055822 0.317766
C8    C     C_R   0.682566 0.556060 0.888926 0.602549
C9    C     C_R   0.784603 0.542981 0.929755 -0.174276
C10   C     C_R   0.739305 0.545144 0.027241 -0.051605
C11   C     C_R   0.590038 0.571213 0.085127 -0.041046
C12   C     C_R   0.408480 0.503495 0.676286 1.019258
C13   C     C_R   0.841316 0.518709 0.067182 -0.100203
C14   C     C_R   0.797296 0.511486 0.163873 0.277501
C15   C     C_R   0.544642 0.550297 0.180592 0.553446
C16   C     C_R   0.420805 0.880104 0.353075 0.285462
C17   C     C_R   0.459617 0.927304 0.265271 -0.191731
C18   C     C_R   0.539448 0.029761 0.245361 -0.143150
C19   C     C_R   0.569141 0.094361 0.315825 0.277100
C20   C     C_R   0.522161 0.053139 0.407848 -0.035902
C21   C     C_R   0.469425 0.934161 0.421267 -0.100311
C22   C     C_R   0.474666 0.875015 0.500235 -0.258314
C23   C     C_R   0.509517 0.259502 0.492937 0.963576
C24   C     C_R   0.487910 0.943694 0.575577 0.629248
C25   C     C_R   0.507986 0.069768 0.570870 0.138330
C26   C     C_R   0.525593 0.124445 0.487207 -0.191815
C27   C     C_R   0.781883 0.693956 0.613996 0.767948
C28   C     C_R   0.818828 0.795813 0.656719 -0.258850
C29   C     C_R   0.956258 0.794740 0.655686 -0.311252
C30   C     C_R   0.058378 0.692110 0.611466 0.691942
C31   C     C_R   0.033172 0.594921 0.554118 -0.021077
C32   C     C_R   0.888513 0.595399 0.554438 -0.087483
C33   C     C_R   0.967358 0.407627 0.451059 0.340486
C34   C     C_R   0.590728 0.505922 0.323824 0.945460
C35   C     C_R   0.109473 0.409115 0.450105 -0.036020
C36   C     C_R   0.351216 0.533138 0.778454 -0.157119
C37   C     C_R   0.646684 0.522320 0.221667 -0.274553
C38   C     C_R   0.177789 0.654731 0.919520 0.648661
C39   C     C_R   0.214345 0.600386 0.827796 -0.242581
C40   C     C_R   0.449141 0.517538 0.822136 -0.076500
H1    H     H_    0.956080 0.501209 0.022782 0.185642
H2    H     H_    0.424697 0.886523 0.212651 0.178054
H3    H     H_    0.575511 0.060974 0.175175 0.196126
H4    H     H_    0.735769 0.870570 0.699265 0.249228
H5    H     H_    0.980278 0.869010 0.696687 0.227261
H6    H     H_    0.193599 0.334201 0.409506 0.173497
H7    H     H_    0.899132 0.526100 0.884627 0.173280
H8    H     H_    0.137288 0.614789 0.794577 0.221234
H9    H     H_    0.548701 0.455590 0.785918 0.225992
H10   H     H_    0.320426 0.707824 0.168376 0.231101
N1    N     N_R   0.856800 0.501200 0.500850 -0.119562
N2    N     N_R   0.142390 0.501280 0.500880 -0.096865
O1    O     O_R   0.385310 0.683220 0.500000 -0.535107
O2    O     O_R   0.614640 0.683250 0.500010 -0.577155
O3    O     O_R   0.319840 0.499980 0.632240 -0.565572
O4    O     O_R   0.549160 0.500000 0.632250 -0.538759
O5    O     O_R   0.385360 0.316750 0.499990 -0.634162
O6    O     O_R   0.614690 0.316780 0.500000 -0.556051
O7    O     O_R   0.450840 0.500000 0.367750 -0.531351
O8    O     O_R   0.680160 0.500020 0.367760 -0.567472
Zn1   Zn    Zn3+2 0.346880 0.499980 0.499990 1.079567
Zn2   Zn    Zn3+2 0.653120 0.500020 0.500010 1.110861
Br1   Br    Br    0.069010 0.794015 0.134578 -0.305497
F1    F     F_    0.473340 0.889220 0.655808 -0.585548
Br2   Br    Br    0.258656 0.782349 0.382205 -0.421262
Br3   Br    Br    0.705590 0.213842 0.272511 -0.419885
Br4   Br    Br    0.509102 0.164218 0.680826 -0.437489
Br5   Br    Br    0.935131 0.264550 0.385334 -0.324280
F2    F     F_    0.638583 0.689542 0.646049 -0.581150
F3    F     F_    0.401033 0.542573 0.230593 -0.623954
F4    F     F_    0.173219 0.687173 0.635406 -0.639145
Br6   Br    Br    0.951815 0.479327 0.207657 -0.338809
F5    F     F_    0.044142 0.720097 0.963221 -0.631090
F6    F     F_    0.734291 0.557064 0.793914 -0.684337

loop_
_geom_bond_atom_site_label_1
_geom_bond_atom_site_label_2
_ccdc_geom_bond_type
O6    Zn2   S    
C23   O6    A    
C16   C21   A    
C34   C37   S    
C19   C20   A    
C25   Br4   S    
C31   N2    A    
C4    C8    A    
C13   H1    S    
C30   F4    S    
C28   C29   A    
C5    C11   A    
C3    C7    A    
N2    Zn1   S    
C38   C39   A    
C40   H9    S    
C19   Br3   S    
O8    Zn2   S    
C18   C19   A    
C23   C26   S    
C1    O1    A    
C17   H2    S    
C15   C37   A    
O1    Zn1   S    
C3    C38   A    
C16   C17   A    
C12   C36   S    
C9    C10   A    
C27   F2    S    
C1    C22   S    
C24   F1    S    
C21   C22   A    
C34   O8    A    
N1    Zn2   S    
C11   C15   A    
O7    Zn1   S    
C36   C40   A    
C24   C25   A    
C8    C9    A    
O2    Zn2   S    
C25   C26   A    
C28   H4    S    
C29   H5    S    
C2    C4    A    
C1    O2    A    
C32   N1    A    
C29   C30   A    
C31   C32   A    
C30   C31   A    
C8    F6    S    
C17   C18   A    
C6    H10   S    
C7    Br1   S    
C12   O4    A    
C9    H7    S    
C34   O7    A    
C22   C24   A    
C35   N2    A    
C23   O5    A    
C15   F3    S    
C27   C32   A    
C14   Br6   S    
C36   C39   A    
C4    C5    A    
C10   C13   A    
O5    Zn1   S    
C6    C7    A    
C33   N1    A    
C2    C3    A    
C18   H3    S    
C14   C37   A    
C5    C6    A    
C20   C26   A    
O3    Zn1   S    
C33   C35   A    
O4    Zn2   S    
C12   O3    A    
C10   C11   A    
C2    C40   A    
C20   C21   A    
C27   C28   A    
C16   Br2   S    
C13   C14   A    
C35   H6    S    
C33   Br5   S    
C39   H8    S    
C38   F5    S    
