data_mof_unit_17837.cif
_audit_creation_date              2013-03-05T15:47:08-0500
_audit_creation_method            fapswitch 2.2
_symmetry_space_group_name_H-M    P1
_symmetry_Int_Tables_number       1
_space_group_crystal_system       triclinic
_cell_length_a                    19.564869
_cell_length_b                    11.359252
_cell_length_c                    18.711634
_cell_angle_alpha                 90.794405
_cell_angle_beta                  90.547712
_cell_angle_gamma                 89.964524
_cell_volume                      4157.9259681

loop_
_atom_site_label
_atom_site_type_symbol
_atom_site_description
_atom_site_fract_x
_atom_site_fract_y
_atom_site_fract_z
_atom_type_partial_charge
O1    O     O_R   0.957210 0.449410 0.665480 -0.532439
O2    O     O_R   0.042790 0.449410 0.334520 -0.531872
O3    O     O_R   0.457210 0.949410 0.665480 -0.532439
O4    O     O_R   0.542790 0.949410 0.334520 -0.531868
O5    O     O_R   0.820730 0.541240 0.668250 -0.509464
O6    O     O_R   0.179270 0.541240 0.331750 -0.508013
O7    O     O_R   0.320730 0.041240 0.668250 -0.509464
O8    O     O_R   0.679270 0.041240 0.331750 -0.508017
C1    C     C_R   0.761215 0.522767 0.639020 0.541470
C2    C     C_R   0.238996 0.524495 0.360595 0.545781
C3    C     C_R   0.261215 0.022766 0.639020 0.541473
C4    C     C_R   0.738996 0.024496 0.360595 0.545779
O9    O     O_R   0.714240 0.455060 0.663710 -0.530911
O10   O     O_R   0.285760 0.455060 0.336290 -0.527966
O11   O     O_R   0.214240 0.955060 0.663710 -0.530911
O12   O     O_R   0.785760 0.955060 0.336290 -0.527975
O13   O     O_R   0.736780 0.204870 0.675910 -0.516574
O14   O     O_R   0.263220 0.204870 0.324090 -0.517305
O15   O     O_R   0.236780 0.704870 0.675910 -0.516578
O16   O     O_R   0.763220 0.704870 0.324090 -0.517298
C5    C     C_R   0.773734 0.120473 0.649615 0.543093
C6    C     C_R   0.226099 0.121413 0.350604 0.536615
C7    C     C_R   0.273734 0.620472 0.649616 0.543090
C8    C     C_R   0.726099 0.621413 0.350604 0.536637
O17   O     O_R   0.833070 0.087590 0.673490 -0.516593
O18   O     O_R   0.166930 0.087590 0.326510 -0.521330
O19   O     O_R   0.333070 0.587590 0.673490 -0.516594
O20   O     O_R   0.666930 0.587590 0.326510 -0.521314
O21   O     O_R   0.946890 0.246800 0.676300 -0.514033
O22   O     O_R   0.053110 0.246800 0.323700 -0.513820
O23   O     O_R   0.446890 0.746800 0.676300 -0.514033
O24   O     O_R   0.553110 0.746800 0.323700 -0.513813
C9    C     C_R   0.968919 0.341850 0.644960 0.530127
C10   C     C_R   0.031256 0.342676 0.355075 0.531787
C11   C     C_R   0.468919 0.841850 0.644960 0.530125
C12   C     C_R   0.531257 0.842676 0.355075 0.531793
O25   O     O_R   0.956650 0.457120 0.827980 -0.522526
O26   O     O_R   0.043350 0.457120 0.172020 -0.529117
O27   O     O_R   0.456650 0.957120 0.827980 -0.522525
O28   O     O_R   0.543350 0.957120 0.172020 -0.529123
O29   O     O_R   0.820220 0.548390 0.818890 -0.483736
O30   O     O_R   0.179780 0.548390 0.181110 -0.484955
O31   O     O_R   0.320220 0.048390 0.818890 -0.483735
O32   O     O_R   0.679780 0.048390 0.181110 -0.485088
C13   C     C_R   0.761032 0.531565 0.849826 0.548200
C14   C     C_R   0.227817 0.492373 0.143026 0.537011
C15   C     C_R   0.261032 0.031573 0.849823 0.548211
C16   C     C_R   0.727787 0.992272 0.143086 0.537308
O33   O     O_R   0.713680 0.462770 0.826210 -0.530622
O34   O     O_R   0.286320 0.462770 0.173790 -0.521686
O35   O     O_R   0.213680 0.962770 0.826210 -0.530620
O36   O     O_R   0.786320 0.962770 0.173790 -0.521829
O37   O     O_R   0.736260 0.212010 0.826560 -0.519824
O38   O     O_R   0.263740 0.212010 0.173440 -0.532737
O39   O     O_R   0.236260 0.712010 0.826560 -0.519852
O40   O     O_R   0.763740 0.712010 0.173440 -0.532772
C17   C     C_R   0.775790 0.136770 0.860013 0.552642
C18   C     C_R   0.228667 0.122925 0.144842 0.542458
C19   C     C_R   0.275780 0.636749 0.859999 0.552723
C20   C     C_R   0.728666 0.622926 0.144842 0.542490
O41   O     O_R   0.832520 0.095300 0.836000 -0.451622
O42   O     O_R   0.167480 0.095300 0.164000 -0.452800
O43   O     O_R   0.332520 0.595300 0.836000 -0.451661
O44   O     O_R   0.667480 0.595300 0.164000 -0.452871
O45   O     O_R   0.946380 0.253940 0.826940 -0.512552
O46   O     O_R   0.053620 0.253940 0.173060 -0.505582
O47   O     O_R   0.446380 0.753940 0.826940 -0.512554
O48   O     O_R   0.553620 0.753940 0.173060 -0.505614
C21   C     C_R   0.968953 0.354087 0.853695 0.528347
C22   C     C_R   0.029994 0.353172 0.146720 0.526779
C23   C     C_R   0.468959 0.854086 0.853692 0.528331
C24   C     C_R   0.529990 0.853172 0.146722 0.526761
Cr1   Cr    Cr6+3 0.885690 0.492860 0.745310 1.031401
Cr2   Cr    Cr6+3 0.114310 0.492860 0.254690 1.023649
Cr3   Cr    Cr6+3 0.385690 0.992860 0.745310 1.031402
Cr4   Cr    Cr6+3 0.614310 0.992860 0.254690 1.023620
Cr5   Cr    Cr6+3 0.729880 0.332270 0.748190 1.007837
Cr6   Cr    Cr6+3 0.270120 0.332270 0.251810 1.002576
Cr7   Cr    Cr6+3 0.229880 0.832270 0.748190 1.007832
Cr8   Cr    Cr6+3 0.770120 0.832270 0.251810 1.002534
Cr9   Cr    Cr6+3 0.888120 0.178590 0.753010 1.045500
Cr10  Cr    Cr6+3 0.111880 0.178590 0.246990 1.044880
Cr11  Cr    Cr6+3 0.388120 0.678590 0.753010 1.045492
Cr12  Cr    Cr6+3 0.611880 0.678590 0.246990 1.044822
O49   O     O_3   0.834560 0.334570 0.748840 -0.293644
O50   O     O_3   0.165440 0.334570 0.251160 -0.300385
O51   O     O_3   0.334560 0.834570 0.748840 -0.293639
O52   O     O_3   0.665440 0.834570 0.251160 -0.300467
C25   C     C_3   0.687051 0.132931 0.464936 -0.234847
C26   C     C_3   0.312645 0.131679 0.535926 -0.231571
C27   C     C_3   0.187051 0.632930 0.464936 -0.234848
C28   C     C_3   0.812645 0.631679 0.535926 -0.231571
H1    H     H_    0.637793 0.096802 0.448927 0.133305
H2    H     H_    0.361970 0.096055 0.551246 0.131886
H3    H     H_    0.137793 0.596803 0.448927 0.133303
H4    H     H_    0.861970 0.596053 0.551245 0.131886
H5    H     H_    0.687690 0.221130 0.440426 0.109757
H6    H     H_    0.311837 0.219739 0.562023 0.111677
H7    H     H_    0.187690 0.721130 0.440427 0.109754
H8    H     H_    0.811838 0.719739 0.562023 0.111676
C29   C     C_3   0.692096 0.145975 0.546218 -0.232640
C30   C     C_3   0.307753 0.145149 0.454778 -0.233080
C31   C     C_3   0.192096 0.645974 0.546218 -0.232638
C32   C     C_3   0.807753 0.645150 0.454778 -0.233081
H9    H     H_    0.687418 0.238241 0.562288 0.139952
H10   H     H_    0.312884 0.237033 0.440192 0.136041
H11   H     H_    0.187417 0.738240 0.562288 0.139952
H12   H     H_    0.812884 0.737034 0.440193 0.136042
H13   H     H_    0.647681 0.102963 0.571128 0.108739
H14   H     H_    0.351970 0.101692 0.429072 0.108755
H15   H     H_    0.147681 0.602961 0.571128 0.108739
H16   H     H_    0.851970 0.601693 0.429071 0.108757
H17   H     H_    0.722848 0.869631 0.460757 0.108541
H18   H     H_    0.277478 0.868515 0.534499 0.106808
H19   H     H_    0.222847 0.369630 0.460757 0.108540
H20   H     H_    0.777477 0.368516 0.534500 0.106808
H21   H     H_    0.704371 0.924870 0.581841 0.107871
H22   H     H_    0.295110 0.924647 0.414663 0.106416
H23   H     H_    0.204371 0.424869 0.581841 0.107872
H24   H     H_    0.795110 0.424648 0.414664 0.106420
C33   C     C_3   0.756730 0.940166 0.479235 -0.219605
C34   C     C_3   0.243178 0.938940 0.518010 -0.221901
C35   C     C_3   0.256729 0.440165 0.479235 -0.219605
C36   C     C_3   0.743177 0.438941 0.518010 -0.221903
C37   C     C_3   0.811193 0.131177 0.450215 -0.261454
C38   C     C_3   0.188726 0.129508 0.551086 -0.259396
C39   C     C_3   0.311193 0.631175 0.450215 -0.261456
C40   C     C_3   0.688726 0.629510 0.551086 -0.259396
C41   C     C_3   0.747225 0.057540 0.436568 0.064723
C42   C     C_3   0.252670 0.055749 0.563189 0.064906
C43   C     C_3   0.247225 0.557539 0.436568 0.064718
C44   C     C_3   0.752670 0.555750 0.563189 0.064906
H25   H     H_    0.855664 0.090717 0.422900 0.124701
H26   H     H_    0.144281 0.088577 0.577504 0.124672
H27   H     H_    0.355664 0.590714 0.422901 0.124699
H28   H     H_    0.644281 0.588581 0.577505 0.124671
H29   H     H_    0.804747 0.221271 0.429366 0.106737
H30   H     H_    0.195130 0.219242 0.574083 0.107266
H31   H     H_    0.304747 0.721269 0.429366 0.106735
H32   H     H_    0.695131 0.719244 0.574083 0.107265
C45   C     C_3   0.759704 0.090602 0.574156 0.063505
C46   C     C_3   0.240157 0.090904 0.425858 0.064390
C47   C     C_3   0.259704 0.590601 0.574156 0.063507
C48   C     C_3   0.740157 0.590905 0.425859 0.064385
C49   C     C_3   0.753045 0.958634 0.560548 -0.261740
C50   C     C_3   0.246594 0.958592 0.436941 -0.259135
C51   C     C_3   0.253044 0.458633 0.560548 -0.261739
C52   C     C_3   0.746594 0.458592 0.436941 -0.259134
C53   C     C_3   0.823111 0.133727 0.531325 -0.217771
C54   C     C_3   0.176845 0.133573 0.469978 -0.217286
C55   C     C_3   0.323111 0.633725 0.531325 -0.217769
C56   C     C_3   0.676845 0.633574 0.469979 -0.217287
H33   H     H_    0.841720 0.219496 0.550329 0.112153
H34   H     H_    0.158260 0.219744 0.453294 0.111126
H35   H     H_    0.341720 0.719494 0.550329 0.112153
H36   H     H_    0.658260 0.719745 0.453294 0.111127
H37   H     H_    0.863709 0.068034 0.541683 0.128186
H38   H     H_    0.136071 0.068375 0.458329 0.128509
H39   H     H_    0.363708 0.568032 0.541683 0.128185
H40   H     H_    0.636071 0.568377 0.458330 0.128509
H41   H     H_    0.809656 0.910510 0.468793 0.126480
H42   H     H_    0.190452 0.908374 0.527971 0.124214
H43   H     H_    0.309656 0.410509 0.468793 0.126479
H44   H     H_    0.690451 0.408377 0.527971 0.124215
H45   H     H_    0.795192 0.910561 0.587639 0.127143
H46   H     H_    0.204333 0.910808 0.409022 0.127542
H47   H     H_    0.295192 0.410560 0.587639 0.127144
H48   H     H_    0.704333 0.410809 0.409022 0.127547
C57   C     C_3   0.003977 0.206079 0.457748 -0.230380
C58   C     C_3   0.996443 0.205404 0.539687 -0.233289
C59   C     C_3   0.503976 0.706079 0.457748 -0.230381
C60   C     C_3   0.496442 0.705404 0.539687 -0.233289
H49   H     H_    0.046376 0.151631 0.440542 0.131721
H50   H     H_    0.954141 0.150774 0.555715 0.128952
H51   H     H_    0.546376 0.651630 0.440542 0.131721
H52   H     H_    0.454139 0.650776 0.555714 0.128953
H53   H     H_    0.959156 0.162972 0.432314 0.109400
H54   H     H_    0.041357 0.162207 0.564173 0.108872
H55   H     H_    0.459156 0.662973 0.432313 0.109399
H56   H     H_    0.541355 0.662204 0.564173 0.108872
H57   H     H_    0.616991 0.891727 0.457393 0.110495
H58   H     H_    0.383059 0.890537 0.543320 0.110400
H59   H     H_    0.116991 0.391726 0.457394 0.110494
H60   H     H_    0.883059 0.390537 0.543320 0.110399
H61   H     H_    0.600605 0.834937 0.577489 0.105260
H62   H     H_    0.399698 0.835861 0.421884 0.105406
H63   H     H_    0.100605 0.334939 0.577490 0.105261
H64   H     H_    0.899698 0.335859 0.421884 0.105408
C61   C     C_3   0.064911 0.406543 0.475580 -0.215523
C62   C     C_3   0.935165 0.405513 0.525546 -0.213045
C63   C     C_3   0.564911 0.906543 0.475580 -0.215522
C64   C     C_3   0.435165 0.905514 0.525547 -0.213044
C65   C     C_3   0.941545 0.390885 0.444340 -0.261668
C66   C     C_3   0.058649 0.390255 0.556475 -0.260299
C67   C     C_3   0.441545 0.890886 0.444341 -0.261669
C68   C     C_3   0.558649 0.890254 0.556475 -0.260299
C69   C     C_3   0.010764 0.334107 0.430895 0.063860
C70   C     C_3   0.989452 0.332829 0.568956 0.063644
C71   C     C_3   0.510764 0.834107 0.430895 0.063859
C72   C     C_3   0.489452 0.832829 0.568956 0.063644
H65   H     H_    0.938451 0.477946 0.418294 0.123048
H66   H     H_    0.061935 0.476867 0.584531 0.124795
H67   H     H_    0.438452 0.977947 0.418294 0.123047
H68   H     H_    0.561936 0.976865 0.584532 0.124794
H69   H     H_    0.947413 0.499026 0.536947 0.131924
H70   H     H_    0.052647 0.500230 0.466236 0.128889
H71   H     H_    0.447413 0.999027 0.536948 0.131925
H72   H     H_    0.552647 0.000229 0.466236 0.128889
C73   C     C_3   0.810851 0.996942 0.042255 -0.201765
C74   C     C_3   0.180781 0.027045 0.951920 -0.203300
C75   C     C_3   0.310864 0.496994 0.042233 -0.201852
C76   C     C_3   0.680779 0.527000 0.951929 -0.203315
H73   H     H_    0.824291 0.905043 0.053697 0.160965
H74   H     H_    0.167049 0.935212 0.936950 0.184179
H75   H     H_    0.324295 0.405086 0.053681 0.160948
H76   H     H_    0.667055 0.435170 0.936943 0.184199
H77   H     H_    0.848431 0.050652 0.073827 0.119245
H78   H     H_    0.143513 0.083578 0.923616 0.100680
H79   H     H_    0.348455 0.550701 0.073798 0.119174
H80   H     H_    0.643501 0.583534 0.923640 0.100665
C77   C     C_3   0.820298 0.021878 0.963734 0.124524
C78   C     C_3   0.174412 0.041728 0.031842 0.115426
C79   C     C_3   0.320295 0.521891 0.963709 0.124532
C80   C     C_3   0.674416 0.541642 0.031857 0.115444
H81   H     H_    0.865333 0.077618 0.961779 0.112921
H82   H     H_    0.140141 0.112883 0.039694 0.108479
H83   H     H_    0.365334 0.577620 0.961739 0.112961
H84   H     H_    0.640093 0.612733 0.039726 0.108559
H85   H     H_    0.690695 0.886029 0.001857 0.109701
H86   H     H_    0.294715 0.893828 0.948129 0.110223
H87   H     H_    0.190744 0.386088 0.001845 0.109767
H88   H     H_    0.794713 0.393823 0.948164 0.110205
H89   H     H_    0.690961 0.958208 0.893987 0.154423
H90   H     H_    0.280690 0.903697 0.075348 0.164354
H91   H     H_    0.190908 0.458255 0.893981 0.154407
H92   H     H_    0.780760 0.403735 0.075374 0.164340
C81   C     C_3   0.684755 0.978233 0.011319 -0.274680
C82   C     C_3   0.304241 0.980146 0.970125 -0.244384
C83   C     C_3   0.184767 0.478257 0.011313 -0.274787
C84   C     C_3   0.804250 0.480161 0.970130 -0.244374
C85   C     C_3   0.728326 0.163139 0.061469 -0.208675
C86   C     C_3   0.268610 0.183896 0.948730 -0.238364
C87   C     C_3   0.228333 0.663201 0.061446 -0.208787
C88   C     C_3   0.768580 0.683901 0.948725 -0.238364
C89   C     C_3   0.737303 0.030240 0.066550 -0.007177
C90   C     C_3   0.253818 0.057790 0.928105 -0.013455
C91   C     C_3   0.237318 0.530320 0.066520 -0.007234
C92   C     C_3   0.753812 0.557782 0.928108 -0.013438
H93   H     H_    0.673629 0.185852 0.069585 0.217028
H94   H     H_    0.319646 0.203174 0.927341 0.236246
H95   H     H_    0.173632 0.685854 0.069561 0.216941
H96   H     H_    0.819616 0.703192 0.927341 0.236257
H97   H     H_    0.759144 0.208793 0.103853 0.152449
H98   H     H_    0.229050 0.242708 0.925735 0.148791
H99   H     H_    0.259152 0.708871 0.103827 0.152339
H100  H     H_    0.729021 0.742706 0.925719 0.148724
C93   C     C_3   0.758954 0.096577 0.933720 0.038641
C94   C     C_3   0.242933 0.084837 0.068349 0.036585
C95   C     C_3   0.258945 0.596587 0.933699 0.038739
C96   C     C_3   0.742930 0.584835 0.068351 0.036612
C97   C     C_3   0.692287 0.028655 0.935726 -0.230408
C98   C     C_3   0.295646 0.989190 0.053357 -0.250268
C99   C     C_3   0.192266 0.528681 0.935724 -0.230470
C100  C     C_3   0.795675 0.489238 0.053362 -0.250236
C101  C     C_3   0.749956 0.201686 0.986881 -0.293422
C102  C     C_3   0.271515 0.194717 0.030736 -0.268010
C103  C     C_3   0.249961 0.701720 0.986851 -0.293422
C104  C     C_3   0.771476 0.694735 0.030728 -0.267984
H101  H     H_    0.800057 0.238977 0.997721 0.086162
H102  H     H_    0.244685 0.270458 0.051437 0.110153
H103  H     H_    0.300072 0.738979 0.997694 0.086190
H104  H     H_    0.744619 0.770446 0.051423 0.110088
H105  H     H_    0.712708 0.266101 0.966024 0.160424
H106  H     H_    0.325824 0.208402 0.047357 0.158159
H107  H     H_    0.212717 0.766139 0.965991 0.160390
H108  H     H_    0.825779 0.708483 0.047352 0.158174
H109  H     H_    0.633534 0.993897 0.030692 0.128948
H110  H     H_    0.356343 0.004146 0.956455 0.136704
H111  H     H_    0.133564 0.493824 0.030697 0.128929
H112  H     H_    0.856346 0.504160 0.956438 0.136726
H113  H     H_    0.649282 0.089380 0.923648 0.129281
H114  H     H_    0.343947 0.014695 0.080266 0.101409
H115  H     H_    0.149267 0.589421 0.923683 0.129297
H116  H     H_    0.843977 0.514807 0.080250 0.101428
C105  C     C_3   0.999723 0.481738 0.041911 -0.218227
C106  C     C_3   0.996729 0.482352 0.960983 -0.219802
C107  C     C_3   0.499707 0.981735 0.041912 -0.218234
C108  C     C_3   0.496725 0.982351 0.960984 -0.219808
H117  H     H_    0.952189 0.520696 0.063094 0.121961
H118  H     H_    0.044171 0.521752 0.940337 0.124264
H119  H     H_    0.452161 0.020667 0.063083 0.121931
H120  H     H_    0.544165 0.021763 0.940342 0.124274
H121  H     H_    0.613949 0.795565 0.049889 0.093488
H122  H     H_    0.384658 0.802738 0.949446 0.099252
H123  H     H_    0.113955 0.295613 0.049861 0.093467
H124  H     H_    0.884645 0.302711 0.949462 0.099216
H125  H     H_    0.600391 0.842548 0.923904 0.107942
H126  H     H_    0.396581 0.840037 0.076598 0.108435
H127  H     H_    0.100389 0.342537 0.923909 0.107945
H128  H     H_    0.896594 0.340078 0.076605 0.108440
C109  C     C_3   0.062464 0.280722 0.028025 -0.222820
C110  C     C_3   0.934422 0.282003 0.970799 -0.222845
C111  C     C_3   0.562464 0.780717 0.028028 -0.222794
C112  C     C_3   0.434428 0.781996 0.970792 -0.222851
C113  C     C_3   0.939950 0.291545 0.053457 -0.269650
C114  C     C_3   0.057047 0.293159 0.945883 -0.269986
C115  C     C_3   0.439948 0.791528 0.053452 -0.269656
C116  C     C_3   0.557054 0.793165 0.945884 -0.269971
C117  C     C_3   0.008014 0.352908 0.070023 0.057430
C118  C     C_3   0.989324 0.354346 0.930632 0.055802
C119  C     C_3   0.508009 0.852905 0.070025 0.057461
C120  C     C_3   0.489330 0.854344 0.930630 0.055790
H129  H     H_    0.938593 0.202305 0.077182 0.125667
H130  H     H_    0.057239 0.205169 0.919434 0.127886
H131  H     H_    0.438598 0.702285 0.077172 0.125638
H132  H     H_    0.557251 0.705178 0.919431 0.127850
H133  H     H_    0.944638 0.189228 0.956237 0.147526
H134  H     H_    0.049014 0.187871 0.038880 0.157575
H135  H     H_    0.444643 0.689220 0.956225 0.147508
H136  H     H_    0.549006 0.687867 0.038871 0.157450
N1    N     N_R   0.838622 0.915599 0.922616 0.058402
O53   O     O_R   0.898191 0.868224 0.934703 -0.361551
O54   O     O_R   0.805195 0.884152 0.864890 -0.368912
N2    N     N_R   0.142079 0.936464 0.062693 0.065975
O55   O     O_R   0.081883 0.904322 0.039493 -0.351848
O56   O     O_R   0.167217 0.884448 0.118629 -0.366289
N3    N     N_R   0.338598 0.415598 0.922595 0.058395
O57   O     O_R   0.398184 0.368259 0.934634 -0.361551
O58   O     O_R   0.305142 0.384147 0.864888 -0.368958
N4    N     N_R   0.642152 0.436305 0.062705 0.065893
O59   O     O_R   0.581984 0.404027 0.039490 -0.351952
O60   O     O_R   0.667304 0.384376 0.118666 -0.366348
H137  H     H_    0.038467 0.545808 0.060922 0.156687
H138  H     H_    0.957081 0.544815 0.943401 0.155983
H139  H     H_    0.538429 0.045836 0.060931 0.156705
H140  H     H_    0.457074 0.044805 0.943398 0.155973

loop_
_geom_bond_atom_site_label_1
_geom_bond_atom_site_label_2
_geom_bond_distance
_ccdc_geom_bond_type
O4    C12   1.297585 A    
O25   C21   1.293181 A    
C46   C50   1.525021 S    
C21   C118  1.490053 S    
C96   C100  1.522651 S    
C59   H55   1.105133 S    
Cr7   O51   2.048153 S    
C103  H107  1.104804 S    
C114  C118  1.522243 S    
C58   H54   1.104929 S    
C93   C97   1.516878 S    
H89   C97   1.110545 S    
C87   C103  1.532047 S    
O39   C19   1.313380 A    
C27   C43   1.548960 S    
O21   C9    1.310857 A    
C25   C41   1.548960 S    
C1    O9    1.291688 A    
C2    C43   1.472620 S    
O44   Cr12  2.116641 S    
C3    O11   1.291688 A    
C61   C66   1.533559 S    
C112  C115  1.551727 S    
C4    O12   1.289631 A    
C108  C120  1.559998 S    
N2    O55   1.301981 A    
C55   H35   1.093874 S    
C68   H68   1.110317 S    
H20   C36   1.089819 S    
H125  C116  1.102895 S    
C45   C49   1.522494 S    
O2    C10   1.297587 A    
C47   C55   1.565850 S    
C36   H44   1.106959 S    
C7    C47   1.470905 S    
H58   C64   1.089529 S    
H59   C61   1.089581 S    
O31   Cr3   1.985659 S    
H19   C35   1.090657 S    
N4    O59   1.302011 A    
O16   Cr8   1.999930 S    
C114  H130  1.109173 S    
C64   C67   1.532535 S    
C93   C101  1.554416 S    
C76   H80   1.107250 S    
C73   H73   1.099772 S    
O28   Cr4   2.104128 S    
O12   Cr8   2.113774 S    
O22   Cr10  1.995580 S    
O15   C7    1.294891 A    
O46   Cr10  1.986705 S    
C35   H43   1.107045 S    
C61   H70   1.106670 S    
O14   Cr6   1.999930 S    
C33   H41   1.107046 S    
C81   C89   1.561254 S    
C17   O41   1.287912 A    
C51   H47   1.110980 S    
H24   C52   1.107280 S    
C85   C89   1.523879 S    
H85   C81   1.066269 S    
C111  C119  1.556281 S    
C58   H50   1.081924 S    
C61   C69   1.569555 S    
C112  C120  1.558069 S    
C25   C29   1.528330 S    
Cr12  O52   2.059225 S    
C27   C31   1.528331 S    
C100  H116  1.103509 S    
C31   C47   1.553527 S    
C6    C46   1.478037 S    
C107  H139  1.104144 S    
C19   O43   1.287902 A    
C20   O44   1.292989 A    
C73   H77   1.115383 S    
C20   C96   1.517883 S    
Cr8   O52   2.048121 S    
C79   C95   1.573221 S    
O46   C22   1.318169 A    
C105  C117  1.569711 S    
C17   C93   1.498463 S    
C64   C72   1.571804 S    
C39   C43   1.523296 S    
C28   C32   1.530294 S    
C106  H138  1.101959 S    
C37   C41   1.523296 S    
C16   O36   1.321405 A    
C67   H67   1.109930 S    
C38   H26   1.109840 S    
N1    O53   1.302547 A    
C88   H100  1.109734 S    
C95   C99   1.517029 S    
O27   C23   1.293189 A    
C31   H11   1.090378 S    
H23   C51   1.106643 S    
C75   C79   1.513169 S    
O32   C16   1.339496 A    
H128  C113  1.100410 S    
O47   Cr11  1.970722 S    
C74   C78   1.508779 S    
C77   H81   1.086520 S    
C12   C71   1.482468 S    
C76   C92   1.542640 S    
C87   H99   1.114181 S    
H124  C110  1.076135 S    
C18   C94   1.517906 S    
O24   C12   1.303863 A    
C31   H15   1.107096 S    
C28   C44   1.551113 S    
C8    C48   1.478038 S    
C79   H83   1.086526 S    
C105  H117  1.104311 S    
C28   H4    1.083814 S    
C36   C44   1.573492 S    
C75   C91   1.557998 S    
O32   Cr4   1.998250 S    
C26   C30   1.530293 S    
C53   H33   1.093874 S    
C39   C55   1.533196 S    
C63   C68   1.533558 S    
C40   C56   1.534467 S    
O11   Cr7   2.142257 S    
C104  H104  1.076930 S    
O27   Cr3   2.112058 S    
C96   C104  1.548784 S    
O3    Cr3   2.109866 S    
C22   C117  1.494187 S    
C115  C119  1.530580 S    
H126  C115  1.100419 S    
C34   C50   1.538422 S    
Cr5   O49   2.048153 S    
C83   C99   1.541639 S    
C94   C98   1.522641 S    
C84   C100  1.569968 S    
C13   C92   1.498688 S    
C57   H53   1.105135 S    
C67   C71   1.521260 S    
C87   H95   1.111902 S    
O22   C10   1.303863 A    
C81   C97   1.541766 S    
C56   H36   1.092546 S    
C2    O10   1.289630 A    
C111  H136  1.109147 S    
N3    O58   1.303112 A    
C112  H135  1.103493 S    
C55   H39   1.107081 S    
O5    C1    1.297679 A    
C108  H140  1.101958 S    
O3    C11   1.296548 A    
O8    C4    1.297484 A    
C104  H108  1.114646 S    
Cr1   O49   2.060304 S    
C97   H113  1.111210 S    
C101  H105  1.104803 S    
H64   C65   1.106493 S    
H21   C49   1.106643 S    
H60   C62   1.089530 S    
C115  H131  1.112700 S    
C74   C90   1.542581 S    
C94   C102  1.548773 S    
C57   C69   1.551413 S    
O26   Cr2   2.104128 S    
Cr3   O51   2.060304 S    
C5    O17   1.296523 A    
H91   C99   1.110428 S    
O28   C24   1.291953 A    
O14   C6    1.301192 A    
C8    O20   1.294899 A    
C82   H110  1.089076 S    
C111  C116  1.548106 S    
C75   H79   1.115429 S    
C45   C53   1.565851 S    
O40   Cr8   1.993314 S    
C40   H32   1.107629 S    
C48   C56   1.567972 S    
O41   Cr9   2.136400 S    
C38   C54   1.534469 S    
C66   C70   1.524571 S    
O31   C15   1.314782 A    
C9    C70   1.483656 S    
C113  C117  1.530546 S    
C64   H71   1.106503 S    
O33   Cr5   2.092230 S    
C60   C72   1.546926 S    
C33   C49   1.535373 S    
C86   C102  1.538186 S    
O5    Cr1   1.995617 S    
O35   Cr7   2.092230 S    
O29   Cr1   1.985659 S    
H90   C98   1.100810 S    
C85   H97   1.114137 S    
N2    O56   1.301312 A    
C57   H49   1.083185 S    
C30   C46   1.549071 S    
C27   H7    1.107749 S    
C23   C120  1.490078 S    
Cr9   O49   2.059970 S    
C60   H52   1.081921 S    
C24   C119  1.494206 S    
C18   O42   1.293004 A    
Cr11  O51   2.059970 S    
O26   C22   1.291942 A    
O20   Cr12  2.110254 S    
C73   C77   1.513244 S    
C49   H45   1.110982 S    
C106  C118  1.559997 S    
C86   C90   1.505885 S    
N4    O60   1.301331 A    
C108  H120  1.106002 S    
C39   H27   1.109497 S    
C40   H28   1.109841 S    
C76   C80   1.508842 S    
C38   C42   1.522158 S    
C29   H13   1.107097 S    
C66   H66   1.110319 S    
C80   H84   1.059556 S    
C113  H129  1.112698 S    
C83   C91   1.561245 S    
O30   C14   1.339953 A    
C101  H101  1.084304 S    
C62   C65   1.532535 S    
C103  H103  1.084357 S    
C83   H111  1.082290 S    
C84   H112  1.089087 S    
C26   H2    1.083814 S    
H121  C111  1.095832 S    
C88   H96   1.102493 S    
H122  C112  1.076153 S    
C48   C52   1.525021 S    
H123  C109  1.095850 S    
C60   H56   1.104929 S    
O42   Cr10  2.116641 S    
O18   Cr10  2.110254 S    
C19   C95   1.498237 S    
O34   Cr6   2.120992 S    
O6    Cr2   1.985012 S    
C47   C51   1.522495 S    
O24   Cr12  1.995580 S    
O30   Cr2   1.998250 S    
C4    C41   1.472620 S    
C106  H118  1.106006 S    
O1    C9    1.296548 A    
O48   Cr12  1.986705 S    
C79   N3    1.468638 S    
O37   C17   1.313476 A    
C15   O35   1.283668 A    
C37   H29   1.106983 S    
Cr10  O50   2.059225 S    
C88   C92   1.505906 S    
O43   Cr11  2.136400 S    
C86   H94   1.102503 S    
O37   Cr5   2.020884 S    
O21   Cr9   2.011521 S    
C105  C106  1.514981 S    
O39   Cr7   2.020884 S    
C62   H69   1.106502 S    
O45   Cr9   1.970722 S    
C107  C108  1.514978 S    
C13   O33   1.283638 A    
C82   C90   1.540343 S    
O13   Cr5   1.972484 S    
C85   H93   1.111979 S    
O15   Cr7   1.972484 S    
C78   N2    1.479947 S    
H92   C100  1.100854 S    
C87   C91   1.523689 S    
H63   C66   1.106033 S    
C52   H48   1.111583 S    
O23   C11   1.310857 A    
C82   C98   1.569994 S    
H61   C68   1.106033 S    
C3    C42   1.480471 S    
C73   C89   1.558016 S    
C32   H12   1.087426 S    
C62   C70   1.571804 S    
C1    C44   1.480470 S    
C54   H38   1.106943 S    
C35   C43   1.573528 S    
C33   C41   1.573528 S    
C34   H42   1.106961 S    
O6    C2    1.297486 A    
O1    Cr1   2.109866 S    
C46   C54   1.567972 S    
O19   Cr11  2.090605 S    
C5    C45   1.470905 S    
N3    O57   1.302513 A    
O29   C13   1.314813 A    
H57   C63   1.089581 S    
C98   H114  1.103498 S    
C65   H65   1.109929 S    
C109  C114  1.548059 S    
C102  H106  1.114651 S    
O45   C21   1.311640 A    
O47   C23   1.311649 A    
O13   C5    1.294890 A    
C95   C103  1.554483 S    
C26   C42   1.551114 S    
O40   C20   1.326675 A    
C105  H137  1.104154 S    
C6    O18   1.294900 A    
C84   C92   1.540381 S    
O36   Cr8   2.120992 S    
C53   H37   1.107079 S    
C15   C90   1.498678 S    
O38   Cr6   1.993314 S    
C75   H75   1.099855 S    
C59   C60   1.541802 S    
C56   H40   1.106941 S    
C57   C58   1.541801 S    
C81   H109  1.082721 S    
O8    Cr4   1.985012 S    
C68   C72   1.524570 S    
O23   Cr11  2.011521 S    
O7    C3    1.297678 A    
C110  C113  1.551706 S    
C16   C89   1.514568 S    
C63   C71   1.569556 S    
C14   C91   1.513936 S    
C78   H82   1.059425 S    
C109  H134  1.109167 S    
C99   H115  1.111076 S    
H87   C83   1.065983 S    
C59   C71   1.551413 S    
C116  H132  1.109170 S    
C32   H16   1.106477 S    
O16   C8    1.301192 A    
N1    O54   1.303120 A    
C32   C48   1.549072 S    
C7    O19   1.296524 A    
Cr4   O52   2.057623 S    
O2    Cr2   2.119938 S    
O48   C24   1.318175 A    
C80   C96   1.574138 S    
Cr6   O50   2.048121 S    
C50   H46   1.111582 S    
C109  C117  1.556225 S    
C80   N4    1.480010 S    
C25   H1    1.085576 S    
C39   H31   1.106982 S    
C77   C93   1.573186 S    
C40   C44   1.522159 S    
C11   C72   1.483658 S    
C29   H9    1.090378 S    
O9    Cr5   2.142257 S    
C110  H133  1.103464 S    
C76   H76   1.108886 S    
H62   C67   1.106494 S    
H22   C50   1.107279 S    
C102  H102  1.077002 S    
O7    Cr3   1.995617 S    
C74   H74   1.108879 S    
C59   H51   1.083184 S    
C25   H5    1.107748 S    
C88   C104  1.538148 S    
C110  C118  1.558091 S    
H17   C33   1.090657 S    
Cr2   O50   2.057623 S    
C78   C94   1.574057 S    
C37   C53   1.533196 S    
C35   C51   1.535375 S    
C86   H98   1.109703 S    
C107  H119  1.104308 S    
H86   C82   1.073822 S    
C58   C70   1.546926 S    
C28   H8    1.107191 S    
O38   C18   1.326679 A    
C37   H25   1.109498 S    
O25   Cr1   2.112058 S    
C38   H30   1.107629 S    
C36   C52   1.538420 S    
C29   C45   1.553527 S    
C77   N1    1.468638 S    
O17   Cr9   2.090605 S    
H127  C114  1.102904 S    
C14   O34   1.321684 A    
C74   H78   1.107243 S    
C10   C69   1.482467 S    
C65   C69   1.521261 S    
C26   H6    1.107191 S    
C30   H10   1.087427 S    
C85   C101  1.532045 S    
C63   H72   1.106670 S    
O10   Cr6   2.113774 S    
O4    Cr4   2.119938 S    
C30   H14   1.106475 S    
H18   C34   1.089817 S    
C116  C120  1.522238 S    
C27   H3    1.085576 S    
C54   H34   1.092545 S    
H88   C84   1.073859 S    
C107  C119  1.569746 S    
C34   C42   1.573492 S    
