data_mof_unit_54478.cif
_audit_creation_date              2012-12-10T19:12:30-0500
_audit_creation_method            fapswitch 2.2
_symmetry_space_group_name_H-M    P1
_symmetry_Int_Tables_number       1
_space_group_crystal_system       triclinic
_cell_length_a                    15.709929
_cell_length_b                    10.625314
_cell_length_c                    9.722181
_cell_angle_alpha                 89.861187
_cell_angle_beta                  89.747372
_cell_angle_gamma                 90.119738
_cell_volume                      1622.8308065

loop_
_atom_site_label
_atom_site_type_symbol
_atom_type_description
_atom_site_fract_x
_atom_site_fract_y
_atom_site_fract_z
_atom_type_partial_charge
C1    C     C_R   0.498759 0.257574 0.499939 0.826781
C2    C     C_3   0.583185 0.927781 0.556325 -0.403575
C3    C     C_3   0.422865 0.071856 0.588809 -0.404422
C4    C     C_R   0.337817 0.500429 0.500176 0.904720
C5    C     C_3   0.486642 0.071806 0.350000 -0.399415
C6    C     C_3   0.497766 0.121221 0.499250 0.197086
C7    C     C_3   0.497561 0.878732 0.498831 0.192003
C8    C     C_3   0.423175 0.927314 0.589516 -0.402713
C9    C     C_3   0.485440 0.928951 0.350063 -0.399888
C10   C     C_3   0.458197 0.383224 0.082780 -0.356823
C11   C     C_3   0.459093 0.381211 0.920310 -0.261711
C12   C     C_3   0.082555 0.500777 0.499723 0.145882
C13   C     C_3   0.448923 0.606258 0.079946 -0.270401
C14   C     C_3   0.586521 0.505456 0.079402 0.497425
C15   C     C_3   0.450435 0.605540 0.917657 -0.257534
C16   C     C_R   0.498565 0.742402 0.499628 0.834237
C17   C     C_3   0.586567 0.504436 0.915996 -0.331566
C18   C     C_R   0.662121 0.500024 0.499798 0.920331
C19   C     C_3   0.971681 0.385690 0.538870 -0.129973
C20   C     C_3   0.028342 0.412378 0.411170 -0.231987
C21   C     C_1   0.248839 0.501286 0.500383 -0.204714
C22   C     C_1   0.750981 0.499557 0.499421 -0.198071
C23   C     C_3   0.971012 0.588006 0.589135 -0.271945
C24   C     C_3   0.027638 0.474035 0.627432 -0.221216
C25   C     C_3   0.647100 0.716424 0.081889 0.077498
C26   C     C_3   0.736660 0.728529 0.020106 -0.354399
C27   C     C_3   0.748310 0.854205 0.946097 -0.987769
C28   C     C_3   0.995689 0.816196 0.390868 0.064243
C29   C     C_3   0.995154 0.843642 0.236330 -0.332978
C30   C     C_3   0.927275 0.940508 0.199603 -0.985280
C31   C     C_3   0.917046 0.499573 0.499679 0.147411
C32   C     C_3   0.026612 0.612123 0.461305 0.559369
C33   C     C_3   0.971674 0.525893 0.371155 -0.251298
C34   C     C_1   0.173485 0.501598 0.500021 -0.034495
C35   C     C_1   0.826265 0.499255 0.499514 -0.063826
C36   C     C_3   0.583003 0.072138 0.557749 -0.407061
H1    H     H_    0.053955 0.340452 0.339523 0.146024
H2    H     H_    0.361337 0.891390 0.549984 0.161848
H3    H     H_    0.391600 0.374691 0.121140 0.175207
H4    H     H_    0.946469 0.292340 0.570749 0.131238
H5    H     H_    0.492202 0.298806 0.121678 0.146862
H6    H     H_    0.494142 0.296523 0.884338 0.149852
H7    H     H_    0.392926 0.371374 0.881443 0.162461
H8    H     H_    0.381818 0.601108 0.116643 0.158781
H9    H     H_    0.384019 0.602948 0.878593 0.161620
H10   H     H_    0.618005 0.415414 0.108396 0.072934
H11   H     H_    0.623416 0.421437 0.879631 0.128077
H12   H     H_    0.593269 0.892041 0.662746 0.166792
H13   H     H_    0.619349 0.585210 0.867427 0.169710
H14   H     H_    0.473475 0.697108 0.119331 0.150048
H15   H     H_    0.946291 0.547067 0.267327 0.133455
H16   H     H_    0.478118 0.695141 0.878878 0.143425
H17   H     H_    0.945606 0.660336 0.660513 0.135434
H18   H     H_    0.052665 0.452205 0.731383 0.145645
H19   H     H_    0.592021 0.105866 0.665074 0.170263
H20   H     H_    0.637323 0.108269 0.495059 0.154629
H21   H     H_    0.637013 0.893537 0.491673 0.157023
H22   H     H_    0.641189 0.788863 0.163171 0.151983
H23   H     H_    0.428559 0.106549 0.696359 0.169875
H24   H     H_    0.597365 0.739244 0.005790 0.104756
H25   H     H_    0.784430 0.721067 0.103756 0.229136
H26   H     H_    0.748943 0.650942 0.946427 0.213682
H27   H     H_    0.702452 0.862336 0.859918 0.259424
H28   H     H_    0.813920 0.860491 0.903660 0.267180
H29   H     H_    0.738370 0.933412 0.018758 0.263420
H30   H     H_    0.009719 0.904982 0.446566 0.160575
H31   H     H_    0.930770 0.785771 0.424594 0.121861
H32   H     H_    0.058593 0.880019 0.204139 0.228316
H33   H     H_    0.982379 0.755433 0.178897 0.211553
H34   H     H_    0.429979 0.893159 0.697264 0.170275
H35   H     H_    0.863113 0.905410 0.229352 0.267263
H36   H     H_    0.928212 0.957829 0.086938 0.268921
H37   H     H_    0.939911 0.030810 0.253208 0.262794
H38   H     H_    0.426156 0.107499 0.305151 0.166735
H39   H     H_    0.539990 0.105116 0.283233 0.168337
H40   H     H_    0.537235 0.894866 0.281681 0.162509
H41   H     H_    0.423924 0.894913 0.307216 0.166652
H42   H     H_    0.361254 0.106666 0.547450 0.156437
N1    N     N_3   0.498170 0.499750 0.138610 -0.060135
N2    N     N_3   0.498850 0.496730 0.861320 -0.043000
O1    O     O_R   0.499980 0.314910 0.616040 -0.632454
O2    O     O_3   0.061247 0.729457 0.421662 -0.655752
O3    O     O_R   0.500040 0.314680 0.383960 -0.644446
O4    O     O_R   0.376750 0.500100 0.616020 -0.620714
O5    O     O_R   0.376810 0.499870 0.383940 -0.621214
O6    O     O_R   0.499960 0.685320 0.616040 -0.637215
O7    O     O_R   0.500020 0.685090 0.383960 -0.617729
O8    O     O_R   0.623190 0.500130 0.616060 -0.630613
O9    O     O_R   0.623250 0.499900 0.383980 -0.557320
O10   O     O_3   0.637900 0.597757 0.146407 -0.618222
Zn1   Zn    Zn3+2 0.499960 0.500150 0.654960 0.900611
Zn2   Zn    Zn3+2 0.500040 0.499850 0.345040 0.941267

loop_
_geom_bond_atom_site_label_1
_geom_bond_atom_site_label_2
_ccdc_geom_bond_type
C13   N1    S    
C20   H1    S    
C19   C20   S    
C3    C6    S    
C19   C31   S    
C30   H35   S    
C2    H21   S    
C7    C8    S    
C14   H10   S    
O3    Zn2   S    
C26   C27   S    
C27   H29   S    
C28   C29   S    
C26   H25   S    
O6    Zn1   S    
C5    C6    S    
C1    O1    A    
C11   H6    S    
C5    H38   S    
C14   O10   S    
C2    C7    S    
C16   O7    A    
C23   C24   S    
C31   C33   S    
C11   H7    S    
C25   H24   S    
O7    Zn2   S    
C12   C32   S    
C10   H5    S    
C16   O6    A    
C14   C17   S    
C8    H2    S    
O5    Zn2   S    
C23   H17   S    
C29   H33   S    
C19   H4    S    
C28   O2    S    
C1    C6    S    
C28   H31   S    
C3    C8    S    
C11   N2    S    
C17   H13   S    
C30   H37   S    
C4    O5    A    
C2    H12   S    
C25   C26   S    
C15   H16   S    
C17   N2    S    
C18   O8    A    
C10   H3    S    
C23   C31   S    
C5    H39   S    
C28   H30   S    
C5    C9    S    
C29   C30   S    
C36   H20   S    
C29   H32   S    
C15   N2    S    
C4    O4    A    
O8    Zn1   S    
C12   C20   S    
C25   O10   S    
C9    H41   S    
C14   N1    S    
O9    Zn2   S    
N1    Zn2   S    
C27   H27   S    
C20   C33   S    
C7    C16   S    
O4    Zn1   S    
C10   C11   S    
C13   C15   S    
C31   C35   S    
C1    O3    A    
C25   H22   S    
C15   H9    S    
C12   C34   S    
C2    C36   S    
C7    C9    S    
C18   C22   S    
C18   O9    A    
C17   H11   S    
C30   H36   S    
C10   N1    S    
C9    H40   S    
C21   C34   T    
C33   H15   S    
C32   O2    S    
C12   C24   S    
C8    H34   S    
C23   C32   S    
N2    Zn1   S    
C22   C35   T    
C19   C24   S    
C26   H26   S    
C36   H19   S    
C32   C33   S    
C4    C21   S    
C6    C36   S    
C27   H28   S    
C13   H14   S    
O1    Zn1   S    
C3    H42   S    
C24   H18   S    
C13   H8    S    
C3    H23   S    
