data_mof_unit_10866.cif
_audit_creation_date              2012-12-10T17:23:40-0500
_audit_creation_method            fapswitch 2.2
_symmetry_space_group_name_H-M    P1
_symmetry_Int_Tables_number       1
_space_group_crystal_system       triclinic
_cell_length_a                    9.577495
_cell_length_b                    10.856353
_cell_length_c                    17.276977
_cell_angle_alpha                 92.415786
_cell_angle_beta                  86.191081
_cell_angle_gamma                 88.890412
_cell_volume                      1790.39876491

loop_
_atom_site_label
_atom_site_type_symbol
_atom_type_description
_atom_site_fract_x
_atom_site_fract_y
_atom_site_fract_z
_atom_type_partial_charge
C1    C     C_R   0.497613 0.738046 0.497398 0.807217
C2    C     C_R   0.348572 0.496156 0.778070 -0.194831
C3    C     C_R   0.408087 0.484732 0.145433 -0.156571
C4    C     C_R   0.402432 0.487551 0.225876 -0.197404
C5    C     C_R   0.656194 0.488758 0.222191 -0.206157
C6    C     C_R   0.661708 0.485811 0.141329 -0.136968
C7    C     C_R   0.537685 0.486985 0.102737 0.180487
C8    C     C_2   0.449158 0.553520 0.981013 -0.150326
C9    C     C_2   0.545580 0.492009 0.017954 -0.164967
C10   C     C_R   0.526221 0.491677 0.264972 -0.026397
C11   C     C_R   0.226507 0.894914 0.509460 -0.245130
C12   C     C_R   0.481929 0.503775 0.649978 0.796450
C13   C     C_R   0.107070 0.962280 0.539658 0.156043
C14   C     C_R   0.122685 0.079617 0.574379 0.198556
C15   C     C_R   0.254416 0.131878 0.572039 -0.180981
C16   C     C_R   0.372395 0.069473 0.533918 0.041195
C17   C     C_R   0.362847 0.943292 0.513170 0.070506
C18   C     C_R   0.490203 0.873216 0.496089 -0.108683
C19   C     C_R   0.617036 0.934315 0.485252 -0.188687
C20   C     C_R   0.620421 0.061397 0.491172 -0.184242
C21   C     C_R   0.498746 0.130034 0.514135 -0.101466
C22   C     C_R   0.871170 0.334582 0.398028 -0.183640
C23   C     C_R   0.500053 0.263323 0.506206 0.783996
C24   C     C_R   0.950322 0.252868 0.347773 0.156727
C25   C     C_R   0.095034 0.253640 0.347710 -0.241209
C26   C     C_R   0.159629 0.335330 0.397087 -0.186531
C27   C     C_R   0.082502 0.418896 0.449520 0.220507
C28   C     C_R   0.932881 0.418711 0.449746 0.166462
C29   C     C_R   0.918581 0.576715 0.548230 -0.062628
C30   C     C_R   0.066624 0.576660 0.548226 -0.086734
C31   C     C_R   0.518013 0.497606 0.349936 0.779510
C32   C     C_R   0.473057 0.519473 0.734612 -0.025124
C33   C     C_R   0.588294 0.565024 0.771954 -0.287297
C34   C     C_R   0.581232 0.586176 0.852356 0.041949
C35   C     C_R   0.457758 0.554584 0.896170 0.155334
C36   C     C_R   0.341334 0.513230 0.858426 -0.198033
Cu1   Cu    Cu3+1 0.359340 0.500010 0.500010 0.927797
Cu2   Cu    Cu3+1 0.640660 0.499990 0.499990 0.935243
H1    H     H_    0.682821 0.588123 0.738060 0.141968
H2    H     H_    0.762530 0.485853 0.108930 0.133467
H3    H     H_    0.714095 0.883700 0.469872 0.183548
H4    H     H_    0.207918 0.808918 0.479178 0.182192
H5    H     H_    0.262993 0.221876 0.600447 0.179059
H6    H     H_    0.718498 0.105903 0.476819 0.180519
H7    H     H_    0.857119 0.639684 0.587679 0.129884
H8    H     H_    0.761737 0.327985 0.393739 0.211419
H9    H     H_    0.300752 0.487059 0.257297 0.157798
H10   H     H_    0.158815 0.191147 0.308915 0.152017
H11   H     H_    0.270412 0.328620 0.391134 0.210759
H12   H     H_    0.115956 0.639652 0.587626 0.139566
H13   H     H_    0.753192 0.489935 0.251050 0.153460
H14   H     H_    0.636024 0.449290 0.985220 0.144490
H15   H     H_    0.246037 0.490166 0.891553 0.135984
H16   H     H_    0.310946 0.480468 0.116891 0.123052
H17   H     H_    0.257895 0.462530 0.750135 0.154485
H18   H     H_    0.357883 0.596708 0.012448 0.139427
N1    N     N_R   0.852190 0.498790 0.499250 -0.189017
N2    N     N_R   0.148060 0.498710 0.499220 -0.193924
O1    O     O_R   0.381190 0.680360 0.500010 -0.592999
O2    O     O_R   0.618760 0.680340 0.500000 -0.581166
O3    O     O_R   0.367440 0.500030 0.613600 -0.588515
O4    O     O_R   0.605010 0.500010 0.613590 -0.578656
O5    O     O_R   0.381240 0.319660 0.500000 -0.603075
O6    O     O_R   0.618810 0.319640 0.499990 -0.600685
O7    O     O_R   0.394990 0.499990 0.386410 -0.604369
O8    O     O_R   0.632560 0.499970 0.386400 -0.601001
N3    N     N_3   0.969862 0.912388 0.535462 -0.614510
H19   H     H_    0.973580 0.832264 0.499594 0.214015
H20   H     H_    0.936353 0.886625 0.591166 0.205283
N4    N     N_3   0.004776 0.149911 0.608850 -0.592192
H21   H     H_    0.933147 0.161563 0.566477 0.243843
H22   H     H_    0.956979 0.099241 0.652998 0.220175
N5    N     N_3   0.880944 0.169175 0.297271 -0.588978
H23   H     H_    0.830478 0.221870 0.257735 0.213506
H24   H     H_    0.954122 0.112076 0.264691 0.224863
C37   C     C_2   0.702665 0.645314 0.886762 0.318742
H25   H     H_    0.803342 0.644412 0.853884 0.060470
O9    O     O_2   0.691061 0.699974 0.950147 -0.528879

loop_
_geom_bond_atom_site_label_1
_geom_bond_atom_site_label_2
_ccdc_geom_bond_type
C31   O8    A    
C16   C21   A    
N5    H24   S    
N5    H23   S    
C35   C36   A    
C8    H18   S    
C28   N1    A    
C1    C18   S    
C33   H1    S    
Cu1   Cu2   S    
C37   O9    D    
C34   C35   A    
C3    C7    A    
C2    H17   S    
C1    O1    A    
C5    C6    A    
C3    H16   S    
C24   N5    S    
C15   C16   A    
C11   H4    S    
C2    C32   A    
C18   C19   A    
C36   H15   S    
C20   H6    S    
C10   C31   S    
Cu2   O8    S    
C8    C9    D    
Cu1   O7    S    
N4    H21   S    
Cu1   N2    S    
C23   O5    A    
C30   H12   S    
C22   C28   A    
C13   C14   A    
C12   C32   S    
C14   N4    S    
C9    H14   S    
Cu1   O5    S    
C33   C34   A    
Cu2   O6    S    
N3    H19   S    
C37   H25   S    
C26   H11   S    
C31   O7    A    
C16   C17   A    
C25   C26   A    
C29   H7    S    
N3    H20   S    
C8    C35   S    
C29   C30   A    
Cu2   N1    S    
C12   O4    A    
C17   C18   A    
C26   C27   A    
C24   C25   A    
C25   H10   S    
Cu1   O1    S    
Cu2   O2    S    
C23   O6    A    
C22   H8    S    
C29   N1    A    
C21   C23   S    
C22   C24   A    
C1    O2    A    
C4    C10   A    
C3    C4    A    
C13   N3    S    
C2    C36   A    
C7    C9    S    
C11   C17   A    
C27   N2    A    
Cu1   O3    S    
C6    C7    A    
C32   C33   A    
C19   C20   A    
C15   H5    S    
C5    C10   A    
C12   O3    A    
C11   C13   A    
C30   N2    A    
C6    H2    S    
C20   C21   A    
C27   C28   A    
C14   C15   A    
C5    H13   S    
N4    H22   S    
C19   H3    S    
C34   C37   S    
Cu2   O4    S    
C4    H9    S    
