data_mof_unit_14391.cif
_audit_creation_date              2013-03-05T15:42:10-0500
_audit_creation_method            fapswitch 2.2
_symmetry_space_group_name_H-M    P1
_symmetry_Int_Tables_number       1
_space_group_crystal_system       triclinic
_cell_length_a                    15.314003
_cell_length_b                    15.546986
_cell_length_c                    9.730578
_cell_angle_alpha                 89.911024
_cell_angle_beta                  90.219866
_cell_angle_gamma                 90.08824
_cell_volume                      2316.69755999

loop_
_atom_site_label
_atom_site_type_symbol
_atom_site_description
_atom_site_fract_x
_atom_site_fract_y
_atom_site_fract_z
_atom_type_partial_charge
O1    O     O_R   0.410990 0.910970 0.617040 -0.556192
O2    O     O_R   0.410990 0.089030 0.617040 -0.508304
O3    O     O_R   0.910990 0.410970 0.617040 -0.556325
O4    O     O_R   0.910990 0.589030 0.617040 -0.508346
O5    O     O_R   0.410950 0.910970 0.382900 -0.579512
O6    O     O_R   0.410950 0.089030 0.382900 -0.560360
O7    O     O_R   0.910950 0.410970 0.382900 -0.580289
O8    O     O_R   0.910950 0.589030 0.382900 -0.560304
C1    C     C_R   0.381720 0.883349 0.499144 0.816300
C2    C     C_R   0.384400 0.119358 0.499434 0.836863
C3    C     C_R   0.881701 0.383367 0.499121 0.817004
C4    C     C_R   0.884378 0.619336 0.499433 0.837020
Cu1   Cu    Cu3+1 0.500020 0.000000 0.638630 1.131807
Cu2   Cu    Cu3+1 0.000020 0.500000 0.638630 1.131691
Cu3   Cu    Cu3+1 0.499980 0.000000 0.361370 1.004933
Cu4   Cu    Cu3+1 0.999980 0.500000 0.361370 1.004508
O9    O     O_R   0.589050 0.089030 0.617100 -0.516781
O10   O     O_R   0.589050 0.910970 0.617100 -0.563784
O11   O     O_R   0.089050 0.589030 0.617100 -0.516624
O12   O     O_R   0.089050 0.410970 0.617100 -0.563881
O13   O     O_R   0.589010 0.089030 0.382960 -0.575082
O14   O     O_R   0.589010 0.910970 0.382960 -0.596868
O15   O     O_R   0.089010 0.589030 0.382960 -0.575304
O16   O     O_R   0.089010 0.410970 0.382960 -0.596944
C5    C     C_R   0.620279 0.114239 0.500363 0.866531
C6    C     C_R   0.615758 0.881368 0.500294 0.845909
C7    C     C_R   0.120286 0.614225 0.500345 0.866523
C8    C     C_R   0.115764 0.381373 0.500293 0.846000
C9    C     C_2   0.723023 0.791976 0.389773 -0.209835
C10   C     C_2   0.732248 0.200961 0.389045 -0.184628
C11   C     C_2   0.223100 0.292066 0.389762 -0.209263
C12   C     C_2   0.231742 0.701438 0.388815 -0.186012
C13   C     C_2   0.675369 0.809552 0.500852 -0.248395
C14   C     C_2   0.694824 0.171440 0.503726 -0.246655
C15   C     C_2   0.175422 0.309590 0.500841 -0.248322
C16   C     C_2   0.194929 0.671295 0.503582 -0.246562
H1    H     H_    0.716905 0.831986 0.298778 0.162618
H2    H     H_    0.710804 0.178444 0.288860 0.180899
H3    H     H_    0.216941 0.332077 0.298776 0.162420
H4    H     H_    0.209615 0.679616 0.288600 0.180937
H5    H     H_    0.678903 0.769748 0.592587 0.171449
H6    H     H_    0.721036 0.188156 0.604109 0.189312
H7    H     H_    0.178979 0.269784 0.592570 0.171275
H8    H     H_    0.221712 0.687393 0.603850 0.189388
C17   C     C_2   0.280281 0.215758 0.386163 0.359038
C18   C     C_2   0.305880 0.761830 0.396772 0.334479
C19   C     C_2   0.780130 0.715612 0.386217 0.359097
C20   C     C_2   0.806273 0.261485 0.397162 0.334394
C21   C     C_2   0.331382 0.197454 0.497130 0.101060
C22   C     C_2   0.307551 0.824914 0.492970 0.084156
C23   C     C_2   0.831318 0.697395 0.497119 0.101268
C24   C     C_2   0.807529 0.324934 0.492771 0.083764
C25   C     C_2   0.429464 0.993742 0.925688 0.390106
C26   C     C_2   0.929471 0.493770 0.925680 0.390398
N1    N     N_2   0.498660 0.000000 0.846910 -0.120306
N2    N     N_2   0.998660 0.500000 0.846910 -0.120322
C27   C     C_2   0.430152 0.009357 0.078322 -0.084295
C28   C     C_2   0.930153 0.509371 0.078315 -0.084330
N3    N     N_2   0.498630 0.000000 0.153040 -0.286160
N4    N     N_2   0.998630 0.500000 0.153040 -0.286438
H9    H     H_    0.368750 0.022825 0.128864 0.190356
H10   H     H_    0.868753 0.522867 0.128844 0.190313
H11   H     H_    0.552478 0.972488 0.108304 0.225228
H12   H     H_    0.052468 0.472465 0.108312 0.225183
O17   O     O_3   0.271944 0.154968 0.280888 -0.607522
C29   C     C_3   0.258583 0.192278 0.149469 0.118943
H13   H     H_    0.294345 0.152594 0.073571 0.189451
H14   H     H_    0.287215 0.257875 0.139215 0.143054
C30   C     C_3   0.161452 0.190126 0.110146 -0.372342
H15   H     H_    0.138789 0.122198 0.106900 0.253871
H16   H     H_    0.121831 0.224443 0.187954 0.228380
C31   C     C_3   0.145722 0.231606 0.969949 -0.819967
H17   H     H_    0.166210 0.300182 0.971664 0.267753
H18   H     H_    0.075100 0.228544 0.944105 0.244840
H19   H     H_    0.182818 0.197052 0.889200 0.295396
O18   O     O_3   0.378819 0.746939 0.315607 -0.613103
C32   C     C_3   0.359221 0.760989 0.174900 0.103397
H20   H     H_    0.405500 0.810313 0.135689 0.181632
H21   H     H_    0.292109 0.786299 0.154631 0.171862
C33   C     C_3   0.373186 0.677798 0.094268 -0.380385
H22   H     H_    0.441714 0.655856 0.108295 0.235928
H23   H     H_    0.328971 0.626929 0.134240 0.240050
C34   C     C_3   0.355174 0.690778 0.941183 -0.752655
H24   H     H_    0.286259 0.710545 0.924398 0.302304
H25   H     H_    0.366606 0.629544 0.885534 0.266210
H26   H     H_    0.399344 0.740791 0.898414 0.249489
O19   O     O_3   0.771688 0.654701 0.281123 -0.607508
C35   C     C_3   0.757704 0.691810 0.149718 0.118657
H27   H     H_    0.793126 0.652017 0.073565 0.189531
H28   H     H_    0.786297 0.757385 0.138909 0.143193
C36   C     C_3   0.660399 0.689575 0.111473 -0.371235
H29   H     H_    0.637790 0.621626 0.108432 0.253813
H30   H     H_    0.621084 0.723829 0.189735 0.228869
C37   C     C_3   0.643999 0.731083 0.971484 -0.821140
H31   H     H_    0.664363 0.799697 0.973071 0.267328
H32   H     H_    0.573273 0.727906 0.946376 0.244939
H33   H     H_    0.680828 0.696642 0.890308 0.294968
O20   O     O_3   0.879438 0.246414 0.316625 -0.613194
C38   C     C_3   0.860402 0.260968 0.175849 0.102690
H34   H     H_    0.906440 0.310842 0.137736 0.181614
H35   H     H_    0.793149 0.285745 0.155004 0.171740
C39   C     C_3   0.875432 0.178253 0.094486 -0.378506
H36   H     H_    0.944007 0.156671 0.109367 0.235852
H37   H     H_    0.831267 0.126946 0.133163 0.240140
C40   C     C_3   0.858340 0.191837 0.941274 -0.756154
H38   H     H_    0.789389 0.211176 0.923584 0.301798
H39   H     H_    0.870621 0.130965 0.885079 0.266153
H40   H     H_    0.902403 0.242382 0.899857 0.249107
N5    N     N_R   0.344923 0.258990 0.606198 0.099043
O21   O     O_R   0.347724 0.233719 0.733691 -0.316732
O22   O     O_R   0.364452 0.338477 0.577217 -0.312843
N6    N     N_R   0.230325 0.848265 0.567454 0.103698
O23   O     O_R   0.230776 0.848349 0.700854 -0.257933
O24   O     O_R   0.158961 0.868146 0.501728 -0.309386
N7    N     N_R   0.844885 0.758977 0.606107 0.099100
O25   O     O_R   0.847588 0.733773 0.733639 -0.315957
O26   O     O_R   0.864490 0.838433 0.577032 -0.312754
N8    N     N_R   0.729871 0.348769 0.565775 0.102596
O27   O     O_R   0.729855 0.350810 0.699121 -0.255467
O28   O     O_R   0.658757 0.367798 0.498745 -0.310137
N9    N     N_R   0.347411 0.966683 0.869861 0.128860
O29   O     O_R   0.304534 0.906773 0.934331 -0.374165
O30   O     O_R   0.304046 0.018609 0.790318 -0.292476
N10   N     N_R   0.847424 0.466795 0.869788 0.128816
O31   O     O_R   0.804721 0.406542 0.933739 -0.373960
O32   O     O_R   0.803901 0.519003 0.790919 -0.292454
N11   N     N_R   0.568553 0.047592 0.898629 0.197672
O33   O     O_R   0.647739 0.021079 0.876438 -0.346965
O34   O     O_R   0.556616 0.126396 0.939705 -0.316626
N12   N     N_R   0.068589 0.547541 0.898635 0.197675
O35   O     O_R   0.147755 0.520987 0.876410 -0.347763
O36   O     O_R   0.056706 0.626346 0.939743 -0.316880

loop_
_geom_bond_atom_site_label_1
_geom_bond_atom_site_label_2
_geom_bond_distance
_ccdc_geom_bond_type
C28   H10   1.083676 S    
C29   H14   1.113967 S    
O19   C35   1.417618 S    
Cu2   N2    2.026872 S    
O10   C6    1.294869 A    
C18   O18   1.390373 S    
C32   H20   1.111471 S    
O7    C3    1.290548 A    
C40   H39   1.110383 S    
Cu1   O10   1.956410 S    
C9    C19   1.476170 S    
C12   C16   1.336772 D    
C10   C20   1.474105 S    
N5    O22   1.301755 A    
C27   N3    1.282091 D    
C29   C30   1.534785 S    
C28   N4    1.282148 D    
N7    O25   1.301301 A    
C9    C13   1.335324 D    
C10   H2    1.085815 S    
C39   C40   1.527065 S    
Cu4   N4    2.027197 S    
C30   H16   1.109872 S    
O2    Cu1   1.954887 S    
N8    O27   1.297970 A    
O13   C5    1.297915 A    
C3    C24   1.454566 S    
O6    Cu3   1.956409 S    
Cu3   O14   1.954888 S    
C38   H34   1.111422 S    
C8    C15   1.443332 S    
N7    O26   1.301745 A    
C14   H6    1.086394 S    
O15   C7    1.297747 A    
O4    C4    1.301162 A    
O11   C7    1.294284 A    
C5    C14   1.446315 S    
C37   H32   1.110435 S    
C32   H21   1.117798 S    
C29   H13   1.109767 S    
Cu4   O16   1.954888 S    
C30   H15   1.111596 S    
Cu3   N3    2.027197 S    
C31   H19   1.111020 S    
N6    O24   1.301533 A    
N6    O23   1.298049 A    
C25   N1    1.313641 D    
C40   H40   1.111177 S    
C26   N2    1.313482 D    
N9    O30   1.299071 A    
C10   C14   1.336739 D    
C39   H36   1.111832 S    
Cu2   O12   1.956410 S    
O1    C1    1.303215 A    
O18   C32   1.417222 S    
C31   H18   1.110381 S    
C36   H29   1.111602 S    
C25   C27   1.505292 S    
C31   H17   1.111037 S    
C19   C23   1.361055 D    
O12   C8    1.294887 A    
C37   H33   1.111028 S    
C23   N7    1.444076 S    
C19   O19   1.400310 S    
C30   C31   1.526490 S    
N12   O36   1.302662 A    
N11   O34   1.302682 A    
O5    C1    1.290740 A    
C36   H30   1.109855 S    
C6    C13   1.443297 S    
C34   H24   1.111052 S    
C35   C36   1.534861 S    
C17   C21   1.361077 D    
O8    C4    1.295836 A    
C38   C39   1.529368 S    
C22   N6    1.436812 S    
C39   H37   1.111174 S    
N9    O29   1.300661 A    
O3    Cu2   1.952375 S    
C33   H23   1.111144 S    
O7    Cu4   1.952976 S    
C34   H25   1.110417 S    
N1    N11   1.393183 S    
O20   C38   1.417323 S    
Cu4   O15   1.952374 S    
Cu1   Cu3   2.697897 S    
C17   O17   1.400189 S    
C11   C15   1.335359 D    
C16   H8    1.086347 S    
O1    Cu1   1.952375 S    
N11   O33   1.300343 A    
O2    C2    1.301183 A    
C4    C23   1.461638 S    
C15   H7    1.086593 S    
N10   O32   1.299161 A    
C26   C28   1.505274 S    
C32   C33   1.529512 S    
C26   N10   1.429756 S    
C38   H35   1.117860 S    
C12   C18   1.474053 S    
Cu2   O11   1.952975 S    
C1    C22   1.454483 S    
O16   C8    1.295567 A    
C35   H28   1.113919 S    
C33   H22   1.111838 S    
O6    C2    1.295858 A    
C27   H9    1.083692 S    
C7    C16   1.446217 S    
C20   O20   1.390175 S    
C40   H38   1.111047 S    
C18   C22   1.356961 D    
N3    H11   1.028041 S    
Cu1   O9    1.952975 S    
N4    H12   1.028035 S    
C13   H5    1.086599 S    
N12   O35   1.300328 A    
C21   N5    1.444121 S    
O9    C5    1.294158 A    
C25   N9    1.429983 S    
N5    O21   1.301292 A    
C36   C37   1.526497 S    
Cu3   O13   1.952374 S    
C33   C34   1.527028 S    
C11   H3    1.085127 S    
Cu2   Cu4   2.697897 S    
C12   H4    1.085817 S    
O4    Cu2   1.954887 S    
C37   H31   1.111045 S    
N8    O28   1.301507 A    
O5    Cu3   1.952976 S    
O3    C3    1.303417 A    
O14   C6    1.295570 A    
C20   C24   1.357059 D    
C34   H26   1.111245 S    
C35   H27   1.109790 S    
O8    Cu4   1.956409 S    
O17   C29   1.417639 S    
C11   C17   1.476158 S    
C9    H1    1.085140 S    
C2    C21   1.461744 S    
N2    N12   1.393204 S    
N10   O31   1.300702 A    
Cu1   N1    2.026872 S    
C24   N8    1.436987 S    
