data_mof_unit_53909.cif
_audit_creation_date              2012-12-11T14:34:07-0500
_audit_creation_method            fapswitch 2.2
_symmetry_space_group_name_H-M    P1
_symmetry_Int_Tables_number       1
_space_group_crystal_system       triclinic
_cell_length_a                    13.938009
_cell_length_b                    13.956965
_cell_length_c                    27.303812
_cell_angle_alpha                 90.119553
_cell_angle_beta                  89.993952
_cell_angle_gamma                 119.696433
_cell_volume                      4613.86437393

loop_
_atom_site_label
_atom_site_type_symbol
_atom_type_description
_atom_site_fract_x
_atom_site_fract_y
_atom_site_fract_z
_atom_type_partial_charge
Br1   Br    Br    0.599194 0.596628 0.711855 -0.571653
Br2   Br    Br    0.403008 0.002754 0.711967 -0.572686
Br3   Br    Br    0.998064 0.402547 0.712002 -0.572242
C1    C     C_R   0.234360 0.787379 0.568864 0.541782
C2    C     C_1   0.710931 0.863447 0.859630 -0.073779
C3    C     C_1   0.136920 0.847554 0.859641 -0.073668
C4    C     C_1   0.151964 0.288675 0.859621 -0.074030
C5    C     C_1   0.631015 0.815446 0.658495 -0.013826
C6    C     C_1   0.184680 0.815723 0.658493 -0.013723
C7    C     C_1   0.185075 0.369429 0.658532 -0.013660
C8    C     C_1   0.602442 0.797328 0.616323 0.031394
C9    C     C_1   0.202749 0.805210 0.616314 0.031415
C10   C     C_1   0.195516 0.397939 0.616371 0.031336
C11   C     C_R   0.064878 0.150358 0.095792 0.576097
C12   C     C_R   0.212831 0.446999 0.568917 0.543464
C13   C     C_R   0.777465 0.883982 0.088323 0.543101
C14   C     C_R   0.116024 0.893597 0.088199 0.544075
C15   C     C_R   0.107047 0.220268 0.950787 0.568569
C16   C     C_R   0.779770 0.886993 0.950771 0.554713
C17   C     C_R   0.113164 0.893015 0.950759 0.553604
C18   C     C_R   0.618680 0.896075 0.361622 -0.132111
C19   C     C_R   0.097816 0.733307 0.363041 -0.133480
C20   C     C_R   0.263429 0.356595 0.363849 -0.134105
C21   C     C_R   0.645060 0.911677 0.311977 0.013932
C22   C     C_R   0.081051 0.744714 0.313391 0.013947
C23   C     C_R   0.553114 0.765684 0.568883 0.542653
C24   C     C_R   0.240247 0.305265 0.317764 0.013834
C25   C     C_R   0.681518 0.929485 0.210430 0.016792
C26   C     C_R   0.060276 0.760374 0.211747 0.016701
C27   C     C_R   0.199468 0.224280 0.220948 0.016202
C28   C     C_R   0.232824 0.788462 0.431828 0.545214
C29   C     C_R   0.211740 0.444496 0.431440 0.545867
C30   C     C_R   0.555562 0.767305 0.431924 0.546353
C31   C     C_R   0.654267 0.001444 0.234621 -0.138871
C32   C     C_R   0.977107 0.671908 0.238012 -0.128001
C33   C     C_R   0.301180 0.254884 0.243480 -0.124157
C34   C     C_3   0.715224 0.763049 0.785903 -0.178533
C35   C     C_R   0.635842 0.992440 0.285135 -0.131309
C36   C     C_R   0.988042 0.663397 0.288491 -0.128647
C37   C     C_R   0.321579 0.295446 0.291507 -0.128213
C38   C     C_R   0.704517 0.939848 0.160146 -0.150912
C39   C     C_R   0.050027 0.771392 0.161379 -0.135613
C40   C     C_R   0.181737 0.193861 0.171396 -0.129031
C41   C     C_R   0.728937 0.864793 0.137055 -0.002498
C42   C     C_R   0.134698 0.860991 0.136249 -0.003405
C43   C     C_R   0.082396 0.171819 0.148548 -0.006841
C44   C     C_R   0.658422 0.744904 0.364133 -0.130235
C45   C     C_3   0.236442 0.951782 0.786058 -0.178725
C46   C     C_R   0.267298 0.910748 0.361735 -0.127227
C47   C     C_R   0.076467 0.326971 0.368322 -0.128641
C48   C     C_R   0.682600 0.757705 0.314572 0.013071
C49   C     C_R   0.255260 0.920229 0.312032 0.013453
C50   C     C_R   0.052817 0.277659 0.322248 0.011407
C51   C     C_R   0.673446 0.839693 0.288061 0.063889
C52   C     C_R   0.162864 0.836072 0.287436 0.063173
C53   C     C_R   0.135621 0.268878 0.296298 0.062600
C54   C     C_R   0.707495 0.684183 0.290499 -0.126836
C55   C     C_R   0.338520 0.008805 0.286088 -0.127060
C56   C     C_3   0.048045 0.285412 0.785782 -0.178653
C57   C     C_R   0.949895 0.243782 0.300442 -0.128662
C58   C     C_R   0.719475 0.689211 0.239994 -0.127637
C59   C     C_R   0.332143 0.012320 0.235486 -0.129960
C60   C     C_R   0.930905 0.206624 0.252175 -0.122823
C61   C     C_R   0.709863 0.769814 0.213483 0.010871
C62   C     C_R   0.240618 0.929362 0.210738 0.014145
C63   C     C_R   0.013432 0.200368 0.225540 0.015969
C64   C     C_3   0.545748 0.801093 0.739586 -0.208723
C65   C     C_3   0.200583 0.745676 0.739480 -0.208798
C66   C     C_3   0.254960 0.454012 0.739898 -0.208721
C67   C     C_3   0.696835 0.751191 0.729604 0.059030
C68   C     C_R   0.688744 0.846769 0.237344 0.065400
C69   C     C_R   0.154365 0.841906 0.236639 0.063862
C70   C     C_R   0.115553 0.229291 0.247854 0.062044
C71   C     C_R   0.724407 0.776311 0.163461 -0.123264
C72   C     C_R   0.232247 0.935188 0.160569 -0.132577
C73   C     C_R   0.997352 0.170957 0.176234 -0.129720
C74   C     C_R   0.618562 0.808125 0.386788 -0.002088
C75   C     C_R   0.194346 0.813472 0.386406 -0.002256
C76   C     C_R   0.183082 0.371841 0.388278 -0.003800
C77   C     C_3   0.741435 0.948959 0.724006 -0.247079
C78   C     C_3   0.248079 0.945300 0.729741 0.058901
C79   C     C_3   0.050767 0.792193 0.723979 -0.246950
C80   C     C_3   0.207961 0.258306 0.723871 -0.246820
C81   C     C_3   0.763416 0.961906 0.780029 -0.227293
C82   C     C_3   0.037927 0.801327 0.780005 -0.227245
C83   C     C_3   0.198544 0.236063 0.779850 -0.227357
C84   C     C_1   0.736586 0.873514 0.902193 -0.018417
C85   C     C_1   0.126789 0.863186 0.902202 -0.018080
C86   C     C_1   0.136433 0.263116 0.902179 -0.019792
C87   C     C_3   0.653391 0.828509 0.711431 0.068026
C88   C     C_3   0.171694 0.825029 0.711432 0.068176
C89   C     C_3   0.054990 0.304136 0.729520 0.059092
C90   C     C_3   0.175475 0.346865 0.711460 0.067752
C91   C     C_3   0.566802 0.814211 0.795579 -0.221809
C92   C     C_3   0.187426 0.753487 0.795480 -0.221743
C93   C     C_3   0.246608 0.432699 0.795851 -0.221334
C94   C     C_3   0.689145 0.851150 0.806686 0.040539
C95   C     C_3   0.149193 0.838085 0.806696 0.040560
C96   C     C_3   0.161709 0.310640 0.806681 0.040471
Cr1   Cr    Cr6+3 0.164410 0.584450 0.499910 1.041357
Cr2   Cr    Cr6+3 0.415550 0.579960 0.499910 1.042407
Cr3   Cr    Cr6+3 0.420040 0.835590 0.499910 1.039539
Cr4   Cr    Cr6+3 0.155170 0.075460 0.019960 1.021013
Cr5   Cr    Cr6+3 0.924540 0.079710 0.019960 1.018955
Cr6   Cr    Cr6+3 0.920290 0.844830 0.019960 1.016109
H1    H     H_    0.545767 0.876077 0.810140 0.134251
H2    H     H_    0.802433 0.786825 0.794147 0.093861
H3    H     H_    0.211805 0.014668 0.794433 0.093707
H4    H     H_    0.984985 0.198392 0.793781 0.093837
H5    H     H_    0.706991 0.007357 0.139551 0.103842
H6    H     H_    0.974769 0.714097 0.142393 0.113286
H7    H     H_    0.246541 0.191762 0.150271 0.122638
H8    H     H_    0.589212 0.946212 0.379340 0.128655
H9    H     H_    0.040154 0.659004 0.382336 0.125139
H10   H     H_    0.345526 0.389955 0.379283 0.126506
H11   H     H_    0.647240 0.064542 0.214512 0.098097
H12   H     H_    0.126148 0.670932 0.809904 0.134692
H13   H     H_    0.904619 0.608587 0.219415 0.098029
H14   H     H_    0.366268 0.251104 0.223401 0.100688
H15   H     H_    0.613188 0.047688 0.303092 0.100455
H16   H     H_    0.924403 0.592923 0.307945 0.102040
H17   H     H_    0.402050 0.322215 0.307565 0.103260
H18   H     H_    0.741383 0.716608 0.145757 0.128903
H19   H     H_    0.298269 0.003939 0.141079 0.122913
H20   H     H_    0.919731 0.151105 0.158800 0.118426
H21   H     H_    0.736410 0.630281 0.221651 0.097936
H22   H     H_    0.398157 0.080350 0.215757 0.094392
H23   H     H_    0.329129 0.453130 0.810502 0.134470
H24   H     H_    0.853351 0.186962 0.235048 0.110999
H25   H     H_    0.714181 0.620724 0.310495 0.102424
H26   H     H_    0.410148 0.073375 0.304741 0.098131
H27   H     H_    0.885781 0.250510 0.319976 0.104934
H28   H     H_    0.515002 0.857070 0.727400 0.161460
H29   H     H_    0.145345 0.659313 0.727162 0.161052
H30   H     H_    0.341492 0.484229 0.727824 0.161405
H31   H     H_    0.660406 0.678476 0.383824 0.130503
H32   H     H_    0.340526 0.974546 0.379827 0.133382
H33   H     H_    0.013256 0.336461 0.387239 0.133110
H34   H     H_    0.479403 0.715541 0.731269 0.147590
H35   H     H_    0.819818 0.972063 0.704284 0.104253
H36   H     H_    0.026567 0.846769 0.704297 0.104104
H37   H     H_    0.153221 0.180240 0.703950 0.104530
H38   H     H_    0.712710 0.006595 0.711780 0.163133
H39   H     H_    0.993792 0.706137 0.711694 0.163798
H40   H     H_    0.294129 0.286502 0.711747 0.163492
H41   H     H_    0.747106 0.027101 0.794479 0.143317
H42   H     H_    0.973273 0.720222 0.794387 0.143718
H43   H     H_    0.279669 0.251685 0.794370 0.143616
H44   H     H_    0.851981 0.989315 0.787108 0.107415
H45   H     H_    0.286562 0.765293 0.731204 0.147189
H46   H     H_    0.009704 0.862010 0.787126 0.107297
H47   H     H_    0.137696 0.147725 0.786694 0.107129
H48   H     H_    0.777309 0.775738 0.711494 0.131272
H49   H     H_    0.222377 0.000554 0.711744 0.131121
H50   H     H_    0.999571 0.223995 0.711194 0.131539
H51   H     H_    0.662310 0.682841 0.804446 0.167001
H52   H     H_    0.317036 0.979209 0.804593 0.166720
H53   H     H_    0.020447 0.338509 0.804448 0.167061
H54   H     H_    0.235696 0.520714 0.731715 0.147334
H55   H     H_    0.511822 0.734365 0.814037 0.120319
H56   H     H_    0.267617 0.778525 0.813993 0.119873
H57   H     H_    0.221456 0.487903 0.814408 0.120571
O1    O     O_R   0.137150 0.468200 0.553200 -0.488463
O2    O     O_R   0.140110 0.470540 0.446010 -0.521031
O3    O     O_R   0.529460 0.669570 0.446010 -0.521339
O4    O     O_R   0.330430 0.859890 0.446010 -0.524266
O5    O     O_R   0.176710 0.690910 0.450560 -0.503036
O6    O     O_R   0.309090 0.485800 0.450560 -0.502710
O7    O     O_R   0.514200 0.823290 0.450560 -0.505894
O8    O     O_3   0.333333 0.666667 0.499990 -0.275487
O9    O     O_R   0.176750 0.985260 0.074180 -0.534594
O10   O     O_R   0.014740 0.191490 0.074180 -0.507145
O11   O     O_R   0.808510 0.823250 0.074180 -0.520897
O12   O     O_R   0.531800 0.668950 0.553200 -0.489071
O13   O     O_R   0.146100 0.172630 0.068980 -0.492995
O14   O     O_R   0.827370 0.973470 0.068980 -0.520485
O15   O     O_R   0.026530 0.853900 0.068980 -0.499128
O16   O     O_3   1.000000 1.000000 0.020040 -0.244438
O17   O     O_R   0.148270 0.170520 0.969620 -0.488196
O18   O     O_R   0.829480 0.977750 0.969620 -0.494959
O19   O     O_R   0.022250 0.851730 0.969620 -0.492167
O20   O     O_R   0.331050 0.862850 0.553200 -0.487766
O21   O     O_R   0.179100 0.982980 0.967000 -0.508232
O22   O     O_R   0.017020 0.196120 0.967000 -0.502235
O23   O     O_R   0.803880 0.820900 0.967000 -0.505612
O24   O     O_R   0.173970 0.688730 0.549930 -0.496421
O25   O     O_R   0.311270 0.485240 0.549930 -0.496076
O26   O     O_R   0.514760 0.826030 0.549930 -0.495706

loop_
_geom_bond_atom_site_label_1
_geom_bond_atom_site_label_2
_ccdc_geom_bond_type
C13   O11   A    
C55   C59   A    
Cr3   O8    S    
C46   H32   S    
C44   H31   S    
Cr2   O6    S    
C67   H48   S    
C56   C96   S    
Cr1   O24   S    
Cr6   O16   S    
C77   C81   S    
C66   C93   S    
C30   O7    A    
C47   C76   A    
C6    C88   S    
C43   C73   A    
C92   C95   S    
Cr5   O14   S    
Cr5   O18   S    
C92   H12   S    
C47   C50   A    
C4    C96   S    
C57   C60   A    
Cr4   O21   S    
C81   C94   S    
C3    C95   S    
C12   O1    A    
C64   H28   S    
C14   C42   S    
C34   H2    S    
C66   C90   S    
C92   H56   S    
C59   H22   S    
C26   C39   A    
C56   H53   S    
C23   O12   A    
C21   C51   A    
C80   C90   S    
C93   C96   S    
C29   O2    A    
C25   C38   A    
C65   C88   S    
C3    C85   T    
C45   C78   S    
C93   H23   S    
C61   C68   A    
C1    O24   A    
C33   H14   S    
C82   C95   S    
C56   H4    S    
C80   H40   S    
C23   O26   A    
Cr5   O16   S    
C51   C68   A    
C19   C22   A    
C64   C91   S    
C21   C35   A    
C58   H21   S    
C48   C54   A    
C20   C24   A    
C1    C9    S    
C64   H34   S    
C13   C41   S    
C52   C69   A    
C49   C52   A    
Cr5   O10   S    
C26   C69   A    
C35   H15   S    
C81   H44   S    
C13   O14   A    
Cr3   O7    S    
C71   H18   S    
C60   C63   A    
C25   C31   A    
C66   H30   S    
Cr6   O11   S    
C34   C67   S    
Cr4   O9    S    
C73   H20   S    
C34   H51   S    
C57   H27   S    
Cr2   O12   S    
C67   C87   S    
C79   H36   S    
C34   C94   S    
C6    C9    T    
C50   C57   A    
C65   C92   S    
C46   C75   A    
Cr1   O8    S    
C72   H19   S    
Cr3   O20   S    
C22   C52   A    
C54   H25   S    
C33   C37   A    
C62   C72   A    
C19   C75   A    
C79   H39   S    
C27   C70   A    
C24   C53   A    
C44   C48   A    
C91   C94   S    
C77   H35   S    
C63   C70   A    
C12   O25   A    
C64   C87   S    
Cr3   O26   S    
C79   C88   S    
Br3   C89   S    
C11   C43   S    
C39   C42   A    
C2    C84   T    
C58   C61   A    
C32   C36   A    
C39   H6    S    
C82   H46   S    
C11   O13   A    
C83   H47   S    
C28   O4    A    
C15   O22   A    
C55   H26   S    
C77   H38   S    
C7    C90   S    
Cr4   O13   S    
Cr2   O8    S    
Cr1   O2    S    
Cr2   O3    S    
C83   C96   S    
C49   C55   A    
C17   O21   A    
C18   H8    S    
Cr5   O22   S    
C28   O5    A    
C2    C94   S    
C15   O17   A    
C38   H5    S    
C29   O6    A    
C10   C12   S    
C38   C41   A    
C27   C40   A    
C25   C68   A    
C5    C87   S    
C40   H7    S    
C44   C74   A    
C79   C82   S    
C37   H17   S    
C28   C75   S    
C50   C53   A    
C14   O15   A    
Cr6   O19   S    
C91   H1    S    
C91   H55   S    
C53   C70   A    
C59   C62   A    
C31   C35   A    
C15   C86   S    
C30   O3    A    
C82   H42   S    
C46   C49   A    
Cr6   O15   S    
C41   C71   A    
Br2   C78   S    
C7    C10   T    
C83   H43   S    
C80   H37   S    
C14   O9    A    
C54   C58   A    
C81   H41   S    
C62   C69   A    
C45   C95   S    
C45   H52   S    
C26   C32   A    
Cr6   O23   S    
Br1   C67   S    
C8    C23   S    
C27   C33   A    
C42   C72   A    
Cr4   O16   S    
C1    O20   A    
C48   C51   A    
C65   H29   S    
C16   C84   S    
C32   H13   S    
C16   O23   A    
C29   C76   S    
C24   C37   A    
C30   C74   S    
C45   H3    S    
C5    C8    T    
C17   C85   S    
Cr1   O5    S    
C89   C90   S    
C66   H54   S    
C93   H57   S    
Cr1   O1    S    
Cr4   O17   S    
C56   C89   S    
C60   H24   S    
C77   C87   S    
C40   C43   A    
C65   H45   S    
C78   H49   S    
C20   H10   S    
C78   C88   S    
C19   H9    S    
C80   C83   S    
Cr3   O4    S    
C89   H50   S    
C18   C21   A    
C18   C74   A    
C61   C71   A    
C47   H33   S    
C17   O19   A    
C11   O10   A    
C20   C76   A    
Cr2   O25   S    
C31   H11   S    
C16   O18   A    
C22   C36   A    
C63   C73   A    
C36   H16   S    
C4    C86   T    
