data_mof_unit_6904.cif
_audit_creation_date              2012-12-10T22:11:11-0500
_audit_creation_method            fapswitch 2.2
_symmetry_space_group_name_H-M    P1
_symmetry_Int_Tables_number       1
_space_group_crystal_system       triclinic
_cell_length_a                    12.126814
_cell_length_b                    12.427799
_cell_length_c                    23.197114
_cell_angle_alpha                 90.483132
_cell_angle_beta                  90.551478
_cell_angle_gamma                 91.139505
_cell_volume                      3495.04461683

loop_
_atom_site_label
_atom_site_type_symbol
_atom_type_description
_atom_site_fract_x
_atom_site_fract_y
_atom_site_fract_z
_atom_type_partial_charge
C1    C     C_R   0.653751 0.997998 0.580023 0.860626
C2    C     C_R   0.345760 0.001581 0.420171 0.851424
C3    C     C_R   0.919280 0.835364 0.111275 0.075314
C4    C     C_R   0.106778 0.204565 0.863985 0.011470
C5    C     C_R   0.089173 0.840608 0.193853 0.422791
C6    C     C_R   0.909084 0.087162 0.838590 0.348124
C7    C     C_R   0.066159 0.744608 0.164149 0.078313
C8    C     C_R   0.911896 0.169075 0.882347 -0.009020
C9    C     C_R   0.924565 0.193057 0.213497 -0.027817
C10   C     C_R   0.086691 0.889324 0.834652 -0.071856
C11   C     C_R   0.925904 0.278510 0.173999 0.046139
C12   C     C_R   0.087281 0.812107 0.877655 0.107036
C13   C     C_R   0.106619 0.919562 0.329359 -0.057528
C14   C     C_R   0.816109 0.066309 0.712585 0.117991
C15   C     C_R   0.186640 0.918783 0.371739 -0.121292
C16   C     C_R   0.734530 0.069510 0.670353 -0.137055
C17   C     C_R   0.896458 0.090932 0.336763 0.324761
C18   C     C_R   0.172080 0.898516 0.695917 0.372913
C19   C     C_R   0.811914 0.086256 0.376455 -0.247240
C20   C     C_R   0.262248 0.916729 0.661283 -0.186832
C21   C     C_3   0.001797 0.008197 0.248475 -0.058387
C22   C     C_3   0.001159 0.987051 0.750578 -0.049672
C23   C     C_R   0.651206 0.002474 0.419671 0.906212
C24   C     C_R   0.345793 0.997970 0.578369 0.904218
C25   C     C_R   0.103466 0.002127 0.287998 0.167856
C26   C     C_R   0.897525 0.985793 0.711248 0.164011
C27   C     C_R   0.265746 0.001032 0.374298 -0.025703
C28   C     C_R   0.734307 0.994342 0.625480 -0.019232
C29   C     C_R   0.904849 0.005262 0.293148 -0.212904
C30   C     C_R   0.095321 0.987439 0.704651 -0.186482
C31   C     C_R   0.732429 0.006319 0.374738 -0.163992
C32   C     C_R   0.261009 0.995598 0.620530 -0.190654
C33   C     C_R   0.003907 0.111693 0.211551 0.045688
C34   C     C_R   0.008914 0.887083 0.789202 0.077018
C35   C     C_R   0.999901 0.273441 0.127014 -0.255031
C36   C     C_R   0.007480 0.726725 0.873842 -0.196524
C37   C     C_R   0.999312 0.915883 0.201241 -0.062985
C38   C     C_R   0.001196 0.081881 0.797222 -0.050262
C39   C     C_R   0.990719 0.747623 0.118202 -0.150763
C40   C     C_R   0.008009 0.234972 0.889891 -0.132816
C41   C     C_R   0.992730 0.660307 0.075900 0.855419
C42   C     C_R   0.006967 0.333146 0.927215 1.001113
C43   C     C_R   0.998871 0.353656 0.081503 0.919480
C44   C     C_R   0.002033 0.646976 0.919050 0.926329
C45   C     C_R   0.187405 0.082983 0.290478 0.092467
C46   C     C_R   0.890904 0.908897 0.666022 -0.198776
C47   C     C_R   0.268083 0.081848 0.333075 -0.111905
C48   C     C_R   0.810635 0.912688 0.624159 -0.143458
C49   C     C_R   0.825797 0.915215 0.298265 0.389292
C50   C     C_R   0.097355 0.070288 0.659932 0.344158
C51   C     C_R   0.735007 0.926382 0.333735 -0.243347
C52   C     C_R   0.176794 0.067325 0.617535 -0.243104
C53   C     C_R   0.080490 0.116109 0.167031 -0.300103
C54   C     C_R   0.937386 0.796937 0.784610 -0.001758
C55   C     C_R   0.075653 0.189510 0.123517 0.424579
C56   C     C_R   0.937223 0.716021 0.825239 0.385337
C57   C     C_R   0.911867 0.912421 0.157078 0.176395
C58   C     C_R   0.102166 0.144106 0.812219 0.098295
H1    H     H_    0.331106 0.144892 0.334332 0.143335
H2    H     H_    0.810984 0.853869 0.589383 0.180110
H3    H     H_    0.135974 0.052046 0.161663 0.238098
H4    H     H_    0.879931 0.787705 0.749391 0.179050
H5    H     H_    0.860313 0.188907 0.244806 0.120190
H6    H     H_    0.146964 0.952997 0.836227 0.120132
H7    H     H_    0.042870 0.859261 0.332110 0.198813
H8    H     H_    0.815433 0.129270 0.744716 0.153420
H9    H     H_    0.669887 0.865318 0.334013 0.200376
H10   H     H_    0.176820 0.125263 0.582848 0.232408
H11   H     H_    0.184038 0.855990 0.403873 0.169362
H12   H     H_    0.673645 0.132099 0.671892 0.150783
H13   H     H_    0.809295 0.144132 0.411544 0.229638
H14   H     H_    0.331056 0.862473 0.661752 0.222706
H15   H     H_    0.192305 0.147943 0.260041 0.160361
H16   H     H_    0.952157 0.848490 0.660907 0.203829
O1    O     O_R   0.621380 0.090460 0.561410 -0.600739
O2    O     O_R   0.378620 0.909540 0.438590 -0.624695
O3    O     O_R   0.617150 0.909540 0.438590 -0.607140
O4    O     O_R   0.382850 0.090460 0.561410 -0.624339
O5    O     O_R   0.619720 0.093230 0.440890 -0.626326
O6    O     O_R   0.380280 0.906770 0.559110 -0.601943
O7    O     O_R   0.618800 0.906770 0.559110 -0.624333
O8    O     O_R   0.381200 0.093230 0.440890 -0.607102
O9    O     O_R   0.087590 0.627480 0.058790 -0.636624
O10   O     O_R   0.912410 0.372520 0.941210 -0.615074
O11   O     O_R   0.905660 0.383870 0.059980 -0.664971
O12   O     O_R   0.094340 0.616130 0.940020 -0.648130
O13   O     O_R   0.092570 0.390420 0.063230 -0.565815
O14   O     O_R   0.907430 0.609580 0.936770 -0.569167
O15   O     O_R   0.900680 0.620930 0.055550 -0.631554
O16   O     O_R   0.099320 0.379070 0.944450 -0.609765
Zn1   Zn    Zn3+2 0.501730 0.123520 0.501540 1.035115
Zn2   Zn    Zn3+2 0.498270 0.876480 0.498460 1.038650
Zn3   Zn    Zn3+2 0.125690 0.504390 0.002180 0.976013
Zn4   Zn    Zn3+2 0.874310 0.495610 0.997820 0.972849
S1    S     S_3+6 0.835338 0.777203 0.275498 -0.041216
O17   O     O_2   0.950767 0.738962 0.273121 -0.341785
O18   O     O_2   0.777286 0.706427 0.318463 -0.298449
O19   O     O_3   0.773046 0.755463 0.211436 -0.615856
H17   H     H_    0.693007 0.756699 0.219506 0.350096
S2    S     S_3+6 0.018217 0.190663 0.654367 0.027158
O20   O     O_2   0.923107 0.170375 0.613577 -0.237718
O21   O     O_2   0.976778 0.232873 0.710712 -0.321947
O22   O     O_3   0.097043 0.289047 0.625496 -0.480313
H18   H     H_    0.153039 0.307799 0.655474 0.348279
C59   C     C_3   0.804770 0.978314 0.162063 -0.352011
C60   C     C_3   0.779715 0.062624 0.115300 -0.395662
C61   C     C_3   0.687379 0.137057 0.133969 -0.873184
H19   H     H_    0.608704 0.090367 0.137669 0.274999
H20   H     H_    0.705861 0.175676 0.176181 0.259137
H21   H     H_    0.676135 0.200675 0.101225 0.254103
H22   H     H_    0.854868 0.109542 0.104470 0.248241
H23   H     H_    0.746775 0.025634 0.075332 0.231602
H24   H     H_    0.733012 0.922727 0.164464 0.216163
H25   H     H_    0.800687 0.020285 0.203341 0.196064
C62   C     C_3   0.204216 0.162998 0.774277 -0.327770
C63   C     C_3   0.302754 0.086727 0.780961 -0.406611
C64   C     C_3   0.397537 0.120017 0.741510 -0.831422
H26   H     H_    0.462666 0.058466 0.742837 0.271226
H27   H     H_    0.368541 0.128469 0.696387 0.264092
H28   H     H_    0.434132 0.198317 0.756156 0.260162
H29   H     H_    0.337582 0.086943 0.824802 0.227628
H30   H     H_    0.278450 0.002737 0.771799 0.233759
H31   H     H_    0.184194 0.175421 0.729816 0.210212
H32   H     H_    0.234770 0.246218 0.781314 0.193042
S3    S     S_3+6 0.236174 0.861251 0.204208 -0.049666
O23   O     O_2   0.292973 0.810821 0.153696 -0.340234
O24   O     O_2   0.278728 0.974935 0.206748 -0.369194
O25   O     O_3   0.275741 0.798064 0.264561 -0.582119
H33   H     H_    0.357233 0.805278 0.265472 0.381205
S4    S     S_3+6 0.795522 0.986914 0.844868 -0.056646
O26   O     O_2   0.688991 0.036326 0.861903 -0.327904
O27   O     O_2   0.764451 0.919886 0.793288 -0.356235
O28   O     O_3   0.833005 0.904111 0.898160 -0.610581
H34   H     H_    0.788337 0.837521 0.891693 0.390411
S5    S     S_3+6 0.989825 0.201416 0.354715 0.010364
O29   O     O_2   0.073643 0.161207 0.396986 -0.247892
O30   O     O_2   0.048399 0.254054 0.305558 -0.340631
O31   O     O_3   0.920798 0.299283 0.388652 -0.479829
H35   H     H_    0.858625 0.316244 0.362534 0.332135
S6    S     S_3+6 0.164641 0.756898 0.713197 0.002163
O32   O     O_2   0.199274 0.737385 0.774390 -0.328670
O33   O     O_2   0.053363 0.706661 0.701131 -0.290033
O34   O     O_3   0.252805 0.688797 0.671409 -0.532758
H36   H     H_    0.247798 0.613363 0.684774 0.400685
S7    S     S_3+6 0.148688 0.156868 0.060386 -0.031005
O35   O     O_2   0.067899 0.153898 0.011007 -0.381884
O36   O     O_2   0.238540 0.239166 0.049759 -0.334910
O37   O     O_3   0.205433 0.034968 0.065437 -0.556049
H37   H     H_    0.276979 0.047707 0.085576 0.385127
S8    S     S_3+6 0.850508 0.601256 0.811818 0.069364
O38   O     O_2   0.911124 0.500337 0.825879 -0.261738
O39   O     O_2   0.749768 0.607213 0.848912 -0.325159
O40   O     O_3   0.810986 0.595153 0.742075 -0.479451
H38   H     H_    0.743318 0.638327 0.739665 0.364651
C65   C     C_3   0.854039 0.844799 0.054696 -0.341748
C66   C     C_3   0.734453 0.800035 0.058756 -0.321739
C67   C     C_3   0.681333 0.783416 0.999463 -0.814594
H39   H     H_    0.675565 0.861731 0.977068 0.286984
H40   H     H_    0.729650 0.726330 0.973276 0.288939
H41   H     H_    0.596610 0.749362 0.004346 0.238424
H42   H     H_    0.732942 0.722126 0.081820 0.260650
H43   H     H_    0.681119 0.855003 0.082882 0.214862
H44   H     H_    0.859825 0.927362 0.037903 0.197543
H45   H     H_    0.896408 0.802265 0.019288 0.207498
C68   C     C_3   0.216310 0.218257 0.897863 -0.324726
C69   C     C_3   0.291680 0.314487 0.881028 -0.338804
C70   C     C_3   0.359762 0.357214 0.932375 -0.785197
H46   H     H_    0.406888 0.290900 0.952017 0.262976
H47   H     H_    0.418547 0.420636 0.917653 0.231523
H48   H     H_    0.306016 0.392892 0.965578 0.290194
H49   H     H_    0.351868 0.288660 0.848246 0.216889
H50   H     H_    0.242393 0.380879 0.862922 0.250813
H51   H     H_    0.199199 0.223013 0.944082 0.303535
H52   H     H_    0.262627 0.143347 0.897372 0.158348
C71   C     C_3   0.101541 0.636304 0.189877 -0.280321
C72   C     C_3   0.214787 0.592343 0.172711 -0.299750
C73   C     C_3   0.224778 0.474337 0.189591 -0.847627
H53   H     H_    0.218178 0.465854 0.237081 0.283443
H54   H     H_    0.158973 0.424499 0.168685 0.272508
H55   H     H_    0.305989 0.443891 0.175869 0.256153
H56   H     H_    0.230604 0.600397 0.126108 0.262217
H57   H     H_    0.281594 0.636014 0.196415 0.283267
H58   H     H_    0.103051 0.642622 0.237572 0.259237
H59   H     H_    0.036493 0.574788 0.179577 0.170559
C74   C     C_3   0.821751 0.175317 0.928829 -0.257242
C75   C     C_3   0.725839 0.250922 0.912521 -0.246395
C76   C     C_3   0.663888 0.287246 0.966041 -0.886089
H60   H     H_    0.622836 0.217019 0.986721 0.258190
H61   H     H_    0.720898 0.327156 0.997616 0.281532
H62   H     H_    0.600584 0.346012 0.953527 0.245087
H63   H     H_    0.755740 0.322642 0.888766 0.263809
H64   H     H_    0.665161 0.212866 0.882702 0.252428
H65   H     H_    0.790001 0.095715 0.942461 0.247264
H66   H     H_    0.859745 0.200798 0.970608 0.198226
C77   C     C_3   0.844764 0.370372 0.178846 -0.377476
C78   C     C_3   0.792396 0.385774 0.238337 -0.410642
C79   C     C_3   0.720568 0.484832 0.239192 -0.730521
H67   H     H_    0.771020 0.556664 0.228081 0.327659
H68   H     H_    0.651489 0.475354 0.207639 0.236294
H69   H     H_    0.685978 0.496296 0.282909 0.271779
H70   H     H_    0.738809 0.315648 0.249351 0.208203
H71   H     H_    0.858717 0.396145 0.271361 0.274418
H72   H     H_    0.889328 0.446661 0.168589 0.204422
H73   H     H_    0.778177 0.358044 0.146143 0.220226
C80   C     C_3   0.175405 0.816830 0.925651 -0.353031
C81   C     C_3   0.249983 0.917943 0.929952 -0.393040
C82   C     C_3   0.339647 0.904712 0.975964 -0.732687
H74   H     H_    0.303464 0.877898 0.017329 0.299649
H75   H     H_    0.399711 0.843890 0.961654 0.241880
H76   H     H_    0.384407 0.982622 0.983009 0.257985
H77   H     H_    0.293027 0.932229 0.888630 0.219099
H78   H     H_    0.198737 0.988000 0.941187 0.274550
H79   H     H_    0.133468 0.808445 0.967879 0.216826
H80   H     H_    0.231035 0.747932 0.918995 0.244213

loop_
_geom_bond_atom_site_label_1
_geom_bond_atom_site_label_2
_ccdc_geom_bond_type
C16   C28   A    
S5    O31   S    
C41   O15   A    
O3    Zn2   S    
C69   H50   S    
C67   H39   S    
C5    C37   A    
C17   C29   A    
C53   C55   A    
C19   H13   S    
S1    O17   D    
S6    O34   S    
C74   H66   S    
C6    S4    S    
C19   C31   A    
O25   H33   S    
C49   C51   A    
S7    O35   D    
S1    O19   S    
S5    O29   D    
C70   H47   S    
C60   H23   S    
C80   C81   S    
C4    C68   S    
C22   C34   S    
C72   H57   S    
C68   C69   S    
C63   H30   S    
C59   H24   S    
C66   C67   S    
C11   C77   S    
O10   Zn4   S    
C64   H27   S    
O19   H17   S    
C55   S7    S    
C77   H72   S    
C60   C61   S    
C68   H51   S    
O34   H36   S    
C41   O9    A    
C75   H63   S    
C63   C64   S    
C18   C20   A    
C45   H15   S    
O15   Zn4   S    
C79   H68   S    
C32   C52   A    
C76   H62   S    
C38   C58   A    
O7    Zn2   S    
C53   H3    S    
C81   H77   S    
C24   O6    A    
C4    C40   A    
C73   H54   S    
S8    O40   S    
C7    C71   S    
C17   S5    S    
C1    C28   S    
C50   C52   A    
C61   H19   S    
C6    C38   A    
C2    C27   S    
C18   C30   A    
C12   C36   A    
C35   C43   S    
O5    Zn1   S    
C52   H10   S    
O1    Zn1   S    
C40   C42   S    
C30   C50   A    
C66   H43   S    
C69   H49   S    
C67   H40   S    
C9    C33   A    
C61   H20   S    
C13   C25   A    
C69   C70   S    
C44   O12   A    
S2    O21   D    
S7    O36   D    
C48   H2    S    
C70   H48   S    
C46   C48   A    
C60   H22   S    
C45   C47   A    
C33   C53   A    
C72   H56   S    
C15   H11   S    
C54   C56   A    
C65   C66   S    
C62   H31   S    
C63   H29   S    
C35   C55   A    
C82   H74   S    
C43   O11   A    
C59   H25   S    
C42   O10   A    
S6    O32   D    
C39   C41   S    
C64   H28   S    
C31   C51   A    
C70   H46   S    
C5    C7    A    
C81   C82   S    
C29   C49   A    
C77   H73   S    
C54   H4    S    
C65   H44   S    
C68   H52   S    
C21   C29   S    
C80   H79   S    
S2    O22   S    
C23   O3    A    
O8    Zn1   S    
C58   C62   S    
C42   O16   A    
C23   C31   S    
O6    Zn2   S    
C79   H69   S    
S4    O27   D    
C24   C32   S    
C36   C56   A    
O12   Zn3   S    
S3    O24   D    
C82   H76   S    
O11   Zn4   S    
C15   C27   A    
C71   C72   S    
C73   H55   S    
C14   C26   A    
C3    C65   S    
C14   H8    S    
C1    O7    A    
C16   H12   S    
C10   C34   A    
C51   H9    S    
C49   S1    S    
C18   S6    S    
C9    C11   A    
C1    O1    A    
C10   C12   A    
O2    Zn2   S    
C3    C57   A    
C24   O4    A    
C72   C73   S    
C5    S3    S    
C80   H80   S    
C34   C54   A    
C67   H41   S    
C13   C15   A    
S3    O23   D    
C65   H45   S    
C61   H21   S    
C14   C16   A    
C2    O8    A    
S4    O28   S    
C56   S8    S    
C25   C45   A    
C46   H16   S    
S7    O37   S    
C2    O2    A    
O16   Zn3   S    
C71   H58   S    
C20   C32   A    
C27   C47   A    
S5    O30   D    
C21   C25   S    
C28   C48   A    
C8    C74   S    
C62   H32   S    
C22   C30   S    
C9    H5    S    
C10   H6    S    
C74   H65   S    
C78   C79   S    
C21   C37   S    
C66   H42   S    
C6    C8    A    
S1    O18   D    
S6    O33   D    
O4    Zn1   S    
C59   C60   S    
C50   S2    S    
C43   O13   A    
C12   C80   S    
C11   C35   A    
S4    O26   D    
C78   H70   S    
C76   H60   S    
C64   H26   S    
C74   C75   S    
O28   H34   S    
C57   C59   S    
S3    O25   S    
O13   Zn3   S    
S2    O20   D    
C17   C19   A    
S8    O39   D    
O37   H37   S    
C75   H64   S    
C79   H67   S    
C13   H7    S    
C76   H61   S    
C36   C44   S    
O31   H35   S    
C26   C46   A    
C47   H1    S    
C77   C78   S    
C81   H78   S    
C21   C33   S    
C73   H53   S    
C22   C26   S    
C4    C58   A    
O22   H18   S    
C82   H75   S    
O14   Zn4   S    
C7    C39   A    
S8    O38   D    
C20   H14   S    
C8    C40   A    
C23   O5    A    
C75   C76   S    
C44   O14   A    
C78   H71   S    
C37   C57   A    
C3    C39   A    
C62   C63   S    
C71   H59   S    
O40   H38   S    
C22   C38   S    
O9    Zn3   S    
