data_mof_unit_67081.cif
_audit_creation_date              2013-03-05T15:58:17-0500
_audit_creation_method            fapswitch 2.2
_symmetry_space_group_name_H-M    P1
_symmetry_Int_Tables_number       1
_space_group_crystal_system       triclinic
_cell_length_a                    8.250431
_cell_length_b                    12.837804
_cell_length_c                    14.233784
_cell_angle_alpha                 93.186319
_cell_angle_beta                  91.165543
_cell_angle_gamma                 98.495631
_cell_volume                      1488.13532558

loop_
_atom_site_label
_atom_site_type_symbol
_atom_site_description
_atom_site_fract_x
_atom_site_fract_y
_atom_site_fract_z
_atom_type_partial_charge
P1    P     P_3+3 0.054400 0.427280 0.286870 0.476569
O1    O     O_2   0.887370 0.460630 0.272300 -0.407376
O2    O     O_3   0.129410 0.451380 0.388510 -0.356038
O3    O     O_3   0.670210 0.653170 0.329170 -0.367172
O4    O     O_2   0.799309 0.591115 0.168526 -0.320283
O5    O     O_3   0.028236 0.289839 0.271208 -0.559261
O6    O     O_3   0.701738 0.773025 0.168301 -0.466145
H1    H     H_    0.547949 0.846509 0.253465 0.109567
C1    C     C_3   0.583030 0.920439 0.120315 -0.846502
H2    H     H_    0.508732 0.979633 0.148520 0.215208
H3    H     H_    0.713376 0.956280 0.119212 0.273104
P2    P     P_3+3 0.668300 0.742890 0.573060 0.461396
P3    P     P_3+3 0.135941 0.841471 0.381900 0.478524
O7    O     O_2   0.845380 0.761330 0.544970 -0.374327
O8    O     O_3   0.088930 0.704860 0.376040 -0.368722
O9    O     O_2   0.032966 0.883228 0.460549 -0.373504
O10   O     O_3   0.678107 0.773114 0.694185 -0.599104
O11   O     O_3   0.058090 0.888185 0.280201 -0.483995
C2    C     C_3   0.154129 0.865116 0.204281 0.311989
H4    H     H_    0.146899 0.778107 0.191646 0.116898
H5    H     H_    0.282245 0.902617 0.218877 -0.003929
C3    C     C_3   0.089185 0.912185 0.117415 -0.588674
H6    H     H_    0.956747 0.882810 0.106733 0.241074
H7    H     H_    0.105248 0.999508 0.128835 0.169477
C4    C     C_3   0.225548 0.759893 0.656358 0.398122
H8    H     H_    0.345917 0.739267 0.636231 0.100617
H9    H     H_    0.135501 0.738235 0.597008 0.138086
C5    C     C_3   0.241014 0.878297 0.677208 -0.895079
H10   H     H_    0.326779 0.902097 0.737940 0.266188
H11   H     H_    0.288163 0.920814 0.615438 0.227081
H12   H     H_    0.119387 0.900333 0.694422 0.270138
Ba1   Ba    Ba6+2 0.855630 0.555280 0.454520 1.579798
C6    C     C_3   0.862024 0.249612 0.263248 0.380857
H13   H     H_    0.796480 0.289087 0.210190 0.065381
H14   H     H_    0.808822 0.258073 0.333141 0.089547
C7    C     C_3   0.843003 0.135305 0.228372 -0.806635
H15   H     H_    0.714054 0.111791 0.203908 0.198677
H16   H     H_    0.923485 0.125715 0.167843 0.190998
C8    C     C_3   0.739592 0.697120 0.745751 0.207667
H17   H     H_    0.841651 0.666045 0.709683 0.102220
H18   H     H_    0.639220 0.631077 0.755707 0.143166
C9    C     C_3   0.802598 0.750980 0.841955 -0.188743
H19   H     H_    0.929178 0.793213 0.835085 0.159889
P4    P     P_3+3 0.135310 0.572810 0.713130 0.464698
O12   O     O_2   0.302330 0.539400 0.727760 -0.360504
O13   O     O_3   0.060300 0.548700 0.611500 -0.411461
O14   O     O_3   0.519500 0.346920 0.670840 -0.378127
O15   O     O_3   0.175117 0.709442 0.737830 -0.562863
P5    P     P_3+3 0.061372 0.157214 0.624718 0.483865
O16   O     O_3   0.614310 0.373510 0.452640 -0.400996
O17   O     O_3   0.100780 0.295230 0.623970 -0.385825
O18   O     O_2   0.195917 0.113566 0.567062 -0.356556
O19   O     O_3   0.095838 0.120161 0.739140 -0.523992
Ba2   Ba    Ba6+2 0.334200 0.444810 0.545490 1.583403
P6    P     P_3+3 0.656711 0.645357 0.206332 0.526967
C10   C     C_3   0.562704 0.823675 0.178243 0.402777
H20   H     H_    0.447883 0.773899 0.151868 0.011175
H21   H     H_    0.540670 0.897233 0.047155 0.260755
O20   O     O_3   0.575400 0.626570 0.547370 -0.388621
C11   C     C_3   0.459795 0.303540 0.258797 0.400398
H22   H     H_    0.349029 0.327583 0.291088 0.143466
H23   H     H_    0.562133 0.370518 0.266175 0.083711
C12   C     C_3   0.422409 0.274994 0.154495 -0.993174
H24   H     H_    0.313994 0.212345 0.145578 0.280177
H25   H     H_    0.396216 0.345060 0.118198 0.225215
H26   H     H_    0.529038 0.245962 0.121089 0.252973
P7    P     P_3+3 0.525107 0.241148 0.422668 0.429948
O21   O     O_2   0.344320 0.238700 0.455090 -0.310098
O22   O     O_3   0.503604 0.215079 0.300691 -0.594522
C13   C     C_3   0.045743 0.195439 0.803352 0.446167
H27   H     H_    0.124447 0.273052 0.799241 0.138511
H28   H     H_    0.915598 0.204246 0.789680 0.002500
C14   C     C_3   0.062947 0.159915 0.902819 -0.887569
H29   H     H_    0.193479 0.155588 0.920189 0.303335
H30   H     H_    0.018487 0.216810 0.954082 0.194947
H31   H     H_    0.989792 0.080965 0.908973 0.290600
P8    P     P_3+3 0.536312 0.346869 0.792487 0.463874
C15   C     C_3   0.534971 0.148397 0.757676 0.432911
H32   H     H_    0.646227 0.183950 0.721359 0.021669
O23   O     O_2   0.408656 0.410952 0.834848 -0.395756
O24   O     O_3   0.471884 0.217942 0.822367 -0.510220
H33   H     H_    0.438641 0.117167 0.703565 0.145864
H34   H     H_    0.685382 0.088695 0.860634 0.280621
C16   C     C_3   0.582367 0.058327 0.810455 -0.963784
H35   H     H_    0.620332 0.997754 0.760227 0.234411
H36   H     H_    0.476505 0.023394 0.850783 0.295145
C17   C     C_R   0.991492 0.433541 0.058091 -0.134241
C18   C     C_R   0.186138 0.490307 0.194875 0.248128
C19   C     C_R   0.342654 0.537983 0.225085 -0.519998
C20   C     C_R   0.457323 0.578059 0.161173 0.198288
C21   C     C_R   0.413263 0.579416 0.066251 -0.270622
C22   C     C_R   0.256134 0.535110 0.033080 0.090589
C23   C     C_R   0.142728 0.485183 0.096219 0.007489
H37   H     H_    0.377395 0.541549 0.299065 0.171528
C24   C     C_R   0.060769 0.490793 0.899274 0.017111
C25   C     C_R   0.950273 0.435357 0.961486 0.102327
C26   C     C_R   0.011104 0.496630 0.802458 0.252931
C27   C     C_R   0.854836 0.447668 0.772242 -0.497392
C28   C     C_R   0.745282 0.397811 0.834768 0.281601
C29   C     C_R   0.793486 0.388981 0.928075 -0.273931
C30   C     C_R   0.212596 0.541274 0.937461 -0.052015
H38   H     H_    0.499770 0.618092 0.018876 0.203848
H39   H     H_    0.706456 0.349373 0.975285 0.147812
H40   H     H_    0.814746 0.452939 0.700026 0.173214
H41   H     H_    0.902520 0.393569 0.102972 0.129076
H42   H     H_    0.298803 0.586656 0.893892 0.180562
C31   C     C_R   0.768478 0.174664 0.531246 -0.456791
C32   C     C_R   0.437163 0.813305 0.457049 -0.481858
C33   C     C_R   0.409053 0.993095 0.426663 -0.154810
C34   C     C_R   0.349102 0.885896 0.418742 0.157907
C35   C     C_R   0.580274 0.846544 0.510893 0.302345
C36   C     C_R   0.642432 0.957208 0.522121 -0.079367
C37   C     C_R   0.556083 0.030796 0.477195 -0.009597
C38   C     C_R   0.619700 0.140063 0.483594 0.200883
C39   C     C_R   0.856339 0.104325 0.573315 0.259467
C40   C     C_R   0.791326 0.996749 0.572116 -0.223981
H43   H     H_    0.336137 0.046088 0.395506 0.207715
H44   H     H_    0.860629 0.945191 0.607974 0.187737
H45   H     H_    0.819346 0.257466 0.532890 0.173382
H46   H     H_    0.386254 0.730445 0.451576 0.162594
C41   C     C_2   0.880812 0.066760 0.304490 1.201862
O25   O     O_2   0.009667 0.086675 0.350424 -0.577262
O26   O     O_R   0.767640 0.978597 0.320904 -0.816553
H47   H     H_    0.807791 0.932644 0.368751 0.362882
Br1   Br    Br    0.805713 0.653683 0.938819 -0.559589
C42   C     C_2   0.694230 0.826620 0.878309 1.161784
O27   O     O_2   0.754893 0.912170 0.914871 -0.692079
O28   O     O_R   0.524253 0.797061 0.872144 -0.800491
H48   H     H_    0.462903 0.855670 0.894606 0.320007
C43   C     C_2   0.173303 0.882131 0.030128 1.045658
O29   O     O_2   0.243687 0.950643 0.982896 -0.663784
O30   O     O_R   0.165381 0.775751 0.001401 -0.772779
H49   H     H_    0.213938 0.765107 0.937508 0.345651

loop_
_geom_bond_atom_site_label_1
_geom_bond_atom_site_label_2
_geom_bond_distance
_ccdc_geom_bond_type
P4    O15   1.750631 S    
C12   H25   1.107808 S    
C42   O27   1.221066 D    
C14   H29   1.110132 S    
C32   H46   1.082344 S    
C24   C25   1.425786 A    
O6    P6    1.744762 S    
O28   H48   1.008427 S    
H1    C10   1.108198 S    
C26   C27   1.396515 A    
C33   H43   1.079368 S    
O26   H47   1.007386 S    
C8    H18   1.111478 S    
C4    C5    1.518528 S    
O16   Ba2   2.922351 S    
P3    O11   1.743593 S    
C11   C12   1.523488 S    
O1    Ba1   2.836110 S    
C5    H10   1.105981 S    
C2    H5    1.105358 S    
P7    C38   1.855263 S    
C16   H36   1.107580 S    
O11   C2    1.397101 S    
P6    C20   1.827854 S    
O2    Ba2   2.786392 S    
P5    O19   1.751261 S    
Ba2   O21   2.890524 S    
C39   C40   1.404785 A    
C25   C29   1.403520 A    
C6    C7    1.507412 S    
C10   H20   1.107560 S    
C11   H23   1.111353 S    
P1    O1    1.515904 D    
O10   C8    1.399468 S    
C31   H45   1.082430 S    
C19   H37   1.082398 S    
C9    Br1   1.913449 S    
P2    O20   1.593996 S    
C35   C36   1.436331 A    
C32   C34   1.390703 A    
O30   H49   1.011638 S    
P5    O17   1.754198 S    
P2    O10   1.743609 S    
P8    C28   1.828458 S    
C13   H27   1.111174 S    
C32   C35   1.393396 A    
C1    H2    1.108213 S    
C21   C22   1.398006 A    
C33   C37   1.405501 A    
P1    C18   1.861854 S    
C12   H26   1.110473 S    
C3    C43   1.495003 S    
C14   H30   1.109640 S    
O6    C10   1.405494 S    
O19   C13   1.405456 S    
Ba1   Ba2   4.574765 S    
C36   C37   1.434015 A    
P4    O13   1.558395 S    
C8    C9    1.543701 S    
Ba2   O20   2.832751 S    
P7    O21   1.566686 D    
O8    Ba1   2.806080 S    
C2    C3    1.527350 S    
C16   H35   1.110500 S    
C8    H17   1.107161 S    
C15   H32   1.113487 S    
C4    H8    1.104202 S    
C29   H39   1.084159 S    
P1    O5    1.746799 S    
C11   H22   1.107391 S    
P1    O2    1.558514 S    
C43   O30   1.395355 S    
C31   C38   1.391254 A    
P3    C34   1.823752 S    
C15   C16   1.507483 S    
P4    C26   1.875730 S    
C15   H33   1.110056 S    
C28   C29   1.394084 A    
C17   H41   1.074470 S    
P8    O24   1.740814 S    
P5    O18   1.545777 D    
C31   C39   1.391154 A    
C17   C25   1.412048 A    
O13   Ba2   2.933575 S    
C13   C14   1.521616 S    
C6    H13   1.107481 S    
C1    C10   1.519564 S    
C1    H3    1.106227 S    
C4    O15   1.400324 S    
Ba1   O16   2.833417 S    
C41   O25   1.223057 D    
O3    Ba1   2.794492 S    
C22   C30   1.410018 A    
O14   Ba2   2.793896 S    
P5    C39   1.847409 S    
P2    O7    1.510789 D    
O12   Ba2   2.836629 S    
P3    O8    1.736265 S    
O3    P6    1.746086 S    
C14   H31   1.109276 S    
C3    H7    1.111599 S    
H34   C16   1.109477 S    
C9    H19   1.112159 S    
O14   P8    1.734276 S    
C21   H38   1.078304 S    
C36   C40   1.418858 A    
P4    O12   1.516266 D    
C37   C38   1.420502 A    
O16   P7    1.774312 S    
P8    O23   1.541532 D    
C30   H42   1.079608 S    
C18   C23   1.437642 A    
C1    H21   1.102374 S    
C42   O28   1.397293 S    
Ba1   O13   2.785825 S    
O4    P6    1.544275 D    
C5    H12   1.110497 S    
O7    Ba1   2.890303 S    
C24   C26   1.438798 A    
C4    H9    1.109141 S    
O5    C6    1.392110 S    
O17   Ba2   2.806668 S    
C2    H4    1.114062 S    
C5    H11   1.107610 S    
C43   O29   1.222088 D    
C33   C34   1.389466 A    
C15   O24   1.407580 S    
C20   C21   1.393714 A    
C11   O22   1.401324 S    
C27   H40   1.082169 S    
C17   C23   1.406763 A    
C7    H16   1.110848 S    
C22   C23   1.419514 A    
C6    H14   1.101819 S    
C40   H44   1.078443 S    
C7    C41   1.489582 S    
P1    Ba1   3.406399 S    
O2    Ba1   2.932809 S    
C41   O26   1.390478 S    
C9    C42   1.493178 S    
C12   H24   1.111092 S    
P4    Ba2   3.406863 S    
C18   C19   1.393432 A    
C7    H15   1.105703 S    
C27   C28   1.394212 A    
P3    O9    1.539122 D    
C3    H6    1.106513 S    
C13   H28   1.110590 S    
Ba1   O20   2.923137 S    
P7    O22   1.750196 S    
C19   C20   1.389435 A    
P2    C35   1.863188 S    
P2    Ba1   3.433760 S    
C24   C30   1.406353 A    
