data_mof_unit_67332.cif
_audit_creation_date              2012-12-11T18:55:13-0500
_audit_creation_method            fapswitch 2.2
_symmetry_space_group_name_H-M    P1
_symmetry_Int_Tables_number       1
_space_group_crystal_system       triclinic
_cell_length_a                    8.242748
_cell_length_b                    15.016147
_cell_length_c                    16.40703
_cell_angle_alpha                 111.16921
_cell_angle_beta                  97.721833
_cell_angle_gamma                 81.521424
_cell_volume                      1865.77368692

loop_
_atom_site_label
_atom_site_type_symbol
_atom_type_description
_atom_site_fract_x
_atom_site_fract_y
_atom_site_fract_z
_atom_type_partial_charge
Ba1   Ba    Ba6+2 0.364200 0.465260 0.540910 1.660551
Ba2   Ba    Ba6+2 0.825640 0.534660 0.459080 1.669436
C1    C     C_3   0.442055 0.231733 0.816361 0.341492
C2    C     C_R   0.903445 0.544857 0.754801 -0.323192
C3    C     C_2   0.488426 0.397700 0.133294 -0.129624
C4    C     C_3   0.792686 0.327126 0.761596 0.284314
C5    C     C_2   0.454760 0.421941 0.217052 0.051647
C6    C     C_2   0.181235 0.503575 0.190403 -0.013864
C7    C     C_3   0.234970 0.503512 0.105307 -0.044790
C8    C     C_3   0.360320 0.417006 0.065071 -0.019960
C9    C     C_2   0.098468 0.515831 0.038216 -0.085531
C10   C     C_2   0.130526 0.540274 0.971249 -0.070398
C11   C     C_R   0.842553 0.596507 0.929847 -0.031074
C12   C     C_3   0.318545 0.270886 0.754513 0.742272
C13   C     C_R   0.000425 0.555758 0.904494 -0.025420
C14   C     C_R   0.717052 0.611768 0.868721 -0.140072
C15   C     C_R   0.747510 0.586094 0.781114 0.060382
C16   C     C_3   0.837363 0.332107 0.856364 -0.397131
C17   C     C_R   0.030720 0.529961 0.815540 0.039451
C18   C     C_R   0.849453 0.184918 0.547795 -0.007557
C19   C     C_R   0.070745 0.203473 0.474670 0.077642
C20   C     C_R   0.256253 0.764415 0.473253 -0.276886
C21   C     C_R   0.340540 0.816057 0.440412 -0.010476
C22   C     C_R   0.281285 0.910696 0.448363 -0.143167
C23   C     C_3   0.012553 0.737628 0.731965 0.318229
C24   C     C_R   0.136100 0.955894 0.490756 0.021691
C25   C     C_R   0.056699 0.903202 0.527997 -0.021129
C26   C     C_R   0.068285 0.051916 0.498914 0.043266
C27   C     C_R   0.919061 0.090776 0.540081 -0.012989
C28   C     C_3   0.560227 0.198366 0.278531 0.452836
C29   C     C_R   0.844613 0.036058 0.574818 -0.121301
C30   C     C_R   0.915597 0.946288 0.572128 -0.065448
C31   C     C_R   0.141819 0.110534 0.466642 -0.099379
C32   C     C_R   0.926863 0.240506 0.515989 -0.238846
C33   C     C_R   0.119724 0.808069 0.520118 0.020225
C34   C     C_3   0.984729 0.795380 0.827926 -0.042633
C35   C     C_3   0.508717 0.126011 0.185541 0.228460
C36   C     C_3   0.491674 0.766134 0.655024 0.290946
C37   C     C_3   0.466943 0.874812 0.680064 -0.377070
C38   C     C_3   0.123447 0.298001 0.270835 0.627428
C39   C     C_3   0.072634 0.258147 0.172327 0.304434
C40   C     C_3   0.441998 0.120648 0.031469 -0.288818
C41   C     C_3   0.380952 0.025215 0.246542 -0.191847
C42   C     C_3   0.623814 0.101494 0.823904 0.195636
C43   C     C_3   0.866321 0.204241 0.064524 0.178108
C44   C     C_3   0.138190 0.158315 0.744701 0.164578
C45   C     C_3   0.425664 0.730352 0.235244 0.425337
C46   C     C_3   0.126181 0.874826 0.970688 -0.258171
C47   C     C_3   0.544366 0.794601 0.059652 0.113495
C48   C     C_3   0.790600 0.087226 0.314663 -0.262321
C49   C     C_3   0.457476 0.717896 0.142324 0.342140
C50   C     C_3   0.972082 0.739934 0.274818 0.406243
C51   C     C_3   0.942016 0.827009 0.246151 -0.380916
C52   C     C_2   0.294714 0.475591 0.245574 -0.242277
H1    H     H_    0.392290 0.288773 0.712176 0.080934
H2    H     H_    0.150091 0.190193 0.142676 0.033062
H3    H     H_    0.094127 0.311511 0.143303 -0.071931
H4    H     H_    0.377570 0.223000 0.867960 -0.058345
H5    H     H_    0.895595 0.707594 0.699453 -0.008812
H6    H     H_    0.111632 0.677866 0.728557 0.043575
H7    H     H_    0.888268 0.856545 0.831260 0.077035
H8    H     H_    0.939795 0.748218 0.856923 0.036263
H9    H     H_    0.528178 0.286098 0.851010 -0.002260
H10   H     H_    0.953090 0.365772 0.882561 0.116362
H11   H     H_    0.398300 0.660131 0.235629 -0.123278
H12   H     H_    0.613100 0.071145 0.161072 0.079209
H13   H     H_    0.318396 0.785310 0.254497 -0.049434
H14   H     H_    0.564539 0.662304 0.122672 0.048478
H15   H     H_    0.346409 0.692859 0.097697 -0.060685
H16   H     H_    0.107028 0.723343 0.286767 -0.109955
H17   H     H_    0.914285 0.758161 0.337030 0.088856
H18   H     H_    0.999210 0.888232 0.297051 0.054586
H19   H     H_    0.807696 0.847647 0.236844 0.163734
H20   H     H_    0.720494 0.396210 0.763518 0.056077
H21   H     H_    0.997336 0.810344 0.183487 0.104848
H22   H     H_    0.603274 0.355682 0.111805 0.110044
H23   H     H_    0.371952 0.736945 0.632472 0.015265
H24   H     H_    0.596921 0.644343 0.889640 0.080782
H25   H     H_    0.265795 0.486646 0.311329 0.081106
H26   H     H_    0.925486 0.523690 0.686476 0.079210
H27   H     H_    0.974628 0.502369 0.042576 0.099223
H28   H     H_    0.256804 0.547732 0.964850 0.094339
H29   H     H_    0.872725 0.312488 0.521812 0.067612
H30   H     H_    0.732951 0.062799 0.607591 0.139196
H31   H     H_    0.253635 0.086144 0.434699 0.059339
H32   H     H_    0.908238 0.318633 0.730228 0.027499
H33   H     H_    0.304177 0.691558 0.467690 0.059929
H34   H     H_    0.574255 0.736401 0.601229 0.075107
H35   H     H_    0.351865 0.946567 0.421346 0.069460
H36   H     H_    0.854434 0.910875 0.604057 0.108855
H37   H     H_    0.739704 0.376702 0.898550 0.098674
H38   H     H_    0.855241 0.259286 0.860697 0.118186
H39   H     H_    0.449352 0.241076 0.307450 0.061460
H40   H     H_    0.390575 0.238605 0.143832 0.158298
H41   H     H_    0.317337 0.096013 0.016294 0.097830
H42   H     H_    0.536909 0.057905 0.011943 0.101946
H43   H     H_    0.449183 0.166347 0.992284 0.102368
H44   H     H_    0.322280 0.036380 0.124949 0.197109
H45   H     H_    0.381893 0.906848 0.732776 0.115726
H46   H     H_    0.277388 0.980230 0.230438 0.114766
H47   H     H_    0.371713 0.076090 0.314363 0.125775
H48   H     H_    0.498889 0.978240 0.242426 0.158548
H49   H     H_    0.720778 0.048638 0.787068 0.051402
H50   H     H_    0.545503 0.062492 0.846647 0.016638
H51   H     H_    0.687222 0.154229 0.881290 -0.021421
H52   H     H_    0.940090 0.134440 0.033293 -0.005065
H53   H     H_    0.881949 0.256947 0.033542 0.017371
H54   H     H_    0.735702 0.191076 0.051664 0.079403
H55   H     H_    0.119521 0.204636 0.813514 0.015394
H56   H     H_    0.414786 0.895294 0.622769 0.081203
H57   H     H_    0.210952 0.089458 0.743278 0.063147
H58   H     H_    0.014454 0.142532 0.712617 0.069159
H59   H     H_    0.187752 0.872755 0.851582 0.223212
H60   H     H_    0.247076 0.898923 0.002657 0.107133
H61   H     H_    0.095171 0.822017 0.997727 0.127754
H62   H     H_    0.031879 0.938248 0.985825 0.096885
H63   H     H_    0.455536 0.759297 0.003953 0.047374
H64   H     H_    0.668362 0.753379 0.053123 0.061234
H65   H     H_    0.556187 0.866300 0.057370 0.058293
H66   H     H_    0.641161 0.191930 0.401997 0.185500
H67   H     H_    0.587458 0.903951 0.703591 0.111490
H68   H     H_    0.833333 0.055286 0.365755 0.094486
H69   H     H_    0.886153 0.129119 0.309273 0.146890
H70   H     H_    0.774192 0.025497 0.253199 0.098328
H71   H     H_    0.241704 0.327207 0.280627 -0.415180
H72   H     H_    0.034624 0.358888 0.301968 0.074634
N1    N     N_2   0.469767 0.176948 0.123751 -0.422906
N2    N     N_2   0.368092 0.077308 0.186546 -0.441145
N3    N     N_2   0.135843 0.831032 0.876977 -0.416222
N4    N     N_2   0.637389 0.148041 0.337101 -0.451235
O1    O     O_2   0.428380 0.595290 0.716080 -0.459393
O2    O     O_2   0.680185 0.813790 0.454962 -0.487822
O3    O     O_3   0.565208 0.761774 0.291990 -0.578814
O4    O     O_3   0.649320 0.571640 0.606850 -0.497822
O5    O     O_3   0.067570 0.379360 0.450830 -0.496167
O6    O     O_2   0.850910 0.734710 0.551660 -0.469027
O7    O     O_3   0.057551 0.798294 0.692732 -0.664714
O8    O     O_2   0.844358 0.488288 0.187842 -0.481517
O9    O     O_3   0.901673 0.662432 0.209297 -0.587576
O10   O     O_3   0.202060 0.415890 0.655600 -0.478217
O11   O     O_2   0.377574 0.496792 0.810119 -0.518350
O12   O     O_3   0.139810 0.224878 0.306957 -0.659258
O13   O     O_3   0.560454 0.744399 0.729144 -0.642644
O14   O     O_3   0.222750 0.352799 0.805246 -0.695379
O15   O     O_2   0.338780 0.265250 0.448290 -0.482608
O16   O     O_3   0.612600 0.359160 0.609560 -0.490212
O17   O     O_2   0.510270 0.188050 0.566774 -0.470456
O18   O     O_3   0.528094 0.144170 0.767022 -0.616272
O19   O     O_3   0.906174 0.240572 0.156123 -0.607532
O20   O     O_3   0.214655 0.201684 0.698275 -0.648933
O21   O     O_3   0.487909 0.807198 0.140663 -0.651886
O22   O     O_3   0.699124 0.249842 0.715497 -0.594312
O23   O     O_2   0.761310 0.404670 0.283870 -0.427370
O24   O     O_3   0.540390 0.428280 0.393140 -0.493490
O25   O     O_3   0.987650 0.584030 0.344390 -0.488782
O26   O     O_3   0.672107 0.257540 0.272669 -0.587453
O27   O     O_3   0.122140 0.620560 0.549160 -0.478812
O28   O     O_3   0.577110 0.640760 0.390430 -0.471235
P1    P     P_3+3 0.592580 0.619730 0.703530 0.979528
P2    P     P_3+3 0.156500 0.273340 0.422460 0.985987
P3    P     P_3+3 0.664688 0.242403 0.605749 0.949838
P4    P     P_3+3 0.597130 0.380190 0.296460 1.029306
P5    P     P_3+3 0.538486 0.759958 0.395163 0.964430
P6    P     P_3+3 0.214458 0.451841 0.770575 0.923676
P7    P     P_3+3 0.040382 0.741535 0.578672 0.928777
P8    P     P_3+3 0.977886 0.557595 0.231213 0.956835

loop_
_geom_bond_atom_site_label_1
_geom_bond_atom_site_label_2
_ccdc_geom_bond_type
Ba2   O25   S    
C38   O12   S    
C36   O13   S    
Ba1   O15   S    
C48   H68   S    
C22   H35   S    
Ba2   P4    S    
O7    P7    S    
C42   H50   S    
C42   H51   S    
C9    H27   S    
C13   C17   A    
C20   C33   A    
C24   C25   A    
Ba2   O4    S    
H59   N3    S    
C40   H42   S    
C16   H37   S    
C26   C27   A    
C22   C24   A    
C2    H26   S    
C28   H39   S    
C44   H58   S    
C36   C37   S    
C19   C31   A    
O6    P7    D    
C38   H71   S    
O25   P8    S    
C50   O9    S    
Ba1   Ba2   S    
C31   H31   S    
C48   N4    S    
C33   P7    S    
C2    C17   A    
C37   H56   S    
C47   H63   S    
C29   C30   A    
C14   C15   A    
C21   C22   A    
C23   H6    S    
C7    C8    S    
C14   H24   S    
O22   P3    S    
C43   H54   S    
C46   H62   S    
C35   N2    S    
C18   C32   A    
H44   N2    S    
O4    P1    S    
O26   P4    S    
C1    O18   S    
Ba2   O24   S    
C44   H57   S    
C45   O3    S    
Ba1   O16   S    
C51   H21   S    
C34   H8    S    
O3    P5    S    
C45   H13   S    
C5    P4    S    
C42   H49   S    
C4    H20   S    
C21   P5    S    
C18   C27   A    
C4    C16   S    
O16   P3    S    
C12   O14   S    
C39   H3    S    
C47   O21   S    
C40   H41   S    
Ba1   P1    S    
C48   H70   S    
C41   H46   S    
O17   P3    D    
C40   H43   S    
O27   P7    S    
C3    C5    D    
O15   P2    D    
C6    C7    S    
C45   C49   S    
C19   C32   A    
C25   C33   A    
H40   N1    S    
C49   H14   S    
Ba2   O6    S    
C29   H30   S    
C28   C35   S    
C36   H34   S    
O9    P8    S    
C23   O7    S    
C41   H47   S    
C39   H2    S    
C37   H45   S    
C47   H64   S    
C10   C13   S    
Ba2   O28   S    
C38   H72   S    
C35   H12   S    
C12   O20   S    
C10   H28   S    
C20   H33   S    
O1    P1    D    
C7    C9    S    
C1    C12   S    
C6    P8    S    
C40   N1    S    
C46   H61   S    
C2    C15   A    
O28   P5    S    
C38   C39   S    
C44   O20   S    
C30   H36   S    
C26   C31   A    
Ba2   O23   S    
C11   C13   A    
C43   H52   S    
C19   P2    S    
H66   N4    S    
C46   N3    S    
C44   H55   S    
C32   H29   S    
C6    C52   D    
Ba1   O4    S    
C50   C51   S    
C46   H60   S    
C52   H25   S    
O5    P2    S    
C25   C30   A    
O24   P4    S    
Ba1   P2    S    
C51   H19   S    
C48   H69   S    
O12   P2    S    
Ba1   O1    S    
C4    H32   S    
C41   N2    S    
C9    C10   D    
O13   P1    S    
C36   H23   S    
C1    H9    S    
O10   P6    S    
C23   H5    S    
C24   C26   A    
Ba2   O5    S    
C37   H67   S    
O23   P4    D    
O8    P8    D    
C16   H38   S    
C3    H22   S    
Ba1   O27   S    
C41   H48   S    
C4    O22   S    
C3    C8    S    
C27   C29   A    
C50   H17   S    
C28   N4    S    
C34   N3    S    
C16   H10   S    
C47   H65   S    
Ba2   O27   S    
C18   P3    S    
C28   O26   S    
C42   O18   S    
C12   H1    S    
C43   O19   S    
C17   P6    S    
Ba1   O24   S    
C15   P1    S    
O2    P5    D    
C50   H16   S    
C23   C34   S    
C49   O21   S    
C1    H4    S    
C43   H53   S    
C39   O19   S    
O11   P6    D    
C11   C14   A    
C20   C21   A    
Ba1   O10   S    
C49   H15   S    
C5    C52   S    
Ba1   O5    S    
C51   H18   S    
C45   H11   S    
O14   P6    S    
C34   H7    S    
C35   N1    S    
