data_mof_unit_14963.cif
_audit_creation_date              2012-12-10T17:53:23-0500
_audit_creation_method            fapswitch 2.2
_symmetry_space_group_name_H-M    P1
_symmetry_Int_Tables_number       1
_space_group_crystal_system       triclinic
_cell_length_a                    23.411734
_cell_length_b                    10.715867
_cell_length_c                    9.86923
_cell_angle_alpha                 90.716994
_cell_angle_beta                  90.082235
_cell_angle_gamma                 91.699446
_cell_volume                      2474.67620983

loop_
_atom_site_label
_atom_site_type_symbol
_atom_type_description
_atom_site_fract_x
_atom_site_fract_y
_atom_site_fract_z
_atom_type_partial_charge
C1    C     C_R   0.505877 0.261101 0.499685 0.874014
C2    C     C_R   0.121144 0.600263 0.509069 0.504698
C3    C     C_R   0.237623 0.486376 0.376370 -0.103114
C4    C     C_R   0.389295 0.498887 0.499931 0.863029
C5    C     C_R   0.296936 0.489848 0.376348 -0.218156
C6    C     C_R   0.326983 0.495172 0.499705 -0.041087
C7    C     C_R   0.296985 0.495900 0.622861 -0.219115
C8    C     C_R   0.237675 0.492630 0.622421 -0.102431
C9    C     C_R   0.208190 0.488208 0.499287 0.327356
C10   C     C_R   0.761292 0.455059 0.612748 -0.094413
C11   C     C_R   0.702071 0.457782 0.613690 -0.229336
C12   C     C_R   0.966443 0.263778 0.477692 -0.156275
C13   C     C_R   0.672733 0.498453 0.499362 -0.036556
C14   C     C_R   0.703125 0.536255 0.383844 -0.212294
C15   C     C_R   0.762360 0.533637 0.383099 -0.093822
C16   C     C_R   0.496270 0.740200 0.501949 0.897955
C17   C     C_R   0.791341 0.493144 0.497545 0.317854
C18   C     C_R   0.550035 0.122634 0.736916 -0.286795
C19   C     C_R   0.547440 0.065419 0.865522 0.559991
C20   C     C_R   0.516594 0.952962 0.876599 -0.207430
C21   C     C_R   0.493834 0.892505 0.762341 -0.257209
C22   C     C_R   0.502573 0.942183 0.631462 0.106526
C23   C     C_R   0.025907 0.263043 0.477858 -0.158241
C24   C     C_R   0.522273 0.065877 0.622860 0.052262
C25   C     C_R   0.512647 0.128562 0.500005 -0.095292
C26   C     C_R   0.498587 0.062784 0.381041 -0.199757
C27   C     C_R   0.491120 0.935861 0.384274 -0.204948
C28   C     C_R   0.610620 0.500122 0.499938 0.876442
C29   C     C_R   0.493431 0.874281 0.507963 -0.114934
C30   C     C_R   0.425820 0.334717 0.138409 -0.175265
C31   C     C_R   0.389530 0.252565 0.066936 -0.196222
C32   C     C_R   0.389246 0.252859 0.926742 -0.185530
C33   C     C_R   0.425252 0.335290 0.857296 -0.160846
C34   C     C_R   0.057939 0.375615 0.488109 -0.015053
C35   C     C_R   0.462982 0.419187 0.926445 0.146883
C36   C     C_R   0.463228 0.418842 0.071324 0.155580
C37   C     C_R   0.534827 0.578417 0.072812 -0.125498
C38   C     C_R   0.534698 0.578608 0.929418 -0.151403
C39   C     C_R   0.882100 0.603233 0.507407 0.503905
C40   C     C_R   0.878448 0.380310 0.487580 0.503146
C41   C     C_R   0.938052 0.377101 0.487678 -0.015243
C42   C     C_R   0.969829 0.490609 0.497892 -0.021649
C43   C     C_R   0.941751 0.604880 0.507797 -0.015106
C44   C     C_3   0.587348 0.237649 0.989731 0.082432
C45   C     C_R   0.029827 0.489865 0.498260 -0.021686
C46   C     C_3   0.650806 0.266820 0.965030 -0.333707
C47   C     C_3   0.665922 0.403998 0.994021 -0.959901
C48   C     C_R   0.061575 0.603402 0.508793 -0.016201
C49   C     C_R   0.033205 0.716722 0.518653 -0.156721
C50   C     C_R   0.973769 0.717459 0.518120 -0.157468
C51   C     C_R   0.117626 0.377386 0.488600 0.503441
H1    H     H_    0.942863 0.175465 0.469721 0.194555
H2    H     H_    0.563378 0.642090 0.127856 0.156015
H3    H     H_    0.046632 0.174197 0.470005 0.192164
H4    H     H_    0.423205 0.329454 0.245735 0.208299
H5    H     H_    0.361327 0.188584 0.120844 0.161170
H6    H     H_    0.360831 0.189067 0.871251 0.161266
H7    H     H_    0.422107 0.330195 0.749908 0.210315
H8    H     H_    0.563116 0.642479 0.876171 0.163158
H9    H     H_    0.056779 0.805033 0.526776 0.194300
H10   H     H_    0.953056 0.806326 0.525859 0.192536
H11   H     H_    0.214451 0.483158 0.281261 0.137048
H12   H     H_    0.679210 0.426835 0.702677 0.164513
H13   H     H_    0.319126 0.488598 0.280122 0.167080
H14   H     H_    0.319215 0.499413 0.719252 0.166345
H15   H     H_    0.214540 0.494115 0.717362 0.136856
H16   H     H_    0.783903 0.423741 0.701245 0.140482
H17   H     H_    0.576822 0.267759 0.094692 0.183567
H18   H     H_    0.560122 0.293069 0.922816 0.131720
H19   H     H_    0.676783 0.208488 0.032477 0.251995
H20   H     H_    0.661774 0.243618 0.858427 0.210814
H21   H     H_    0.641499 0.464507 0.926070 0.266920
H22   H     H_    0.712259 0.421913 0.976493 0.268189
H23   H     H_    0.681198 0.569036 0.295048 0.155112
H24   H     H_    0.655987 0.428115 0.100926 0.272049
H25   H     H_    0.785831 0.563240 0.294098 0.141542
H26   H     H_    0.492404 0.109282 0.285436 0.180364
H27   H     H_    0.575073 0.207845 0.723123 0.152289
H28   H     H_    0.511652 0.909700 0.974704 0.156946
H29   H     H_    0.468337 0.808753 0.779882 0.194777
H30   H     H_    0.482918 0.886205 0.289550 0.172586
N1    N     N_R   0.852058 0.492152 0.497368 -0.361270
N2    N     N_R   0.147537 0.488514 0.499042 -0.361845
N3    N     N_R   0.499460 0.498800 0.142780 -0.124851
N4    N     N_R   0.499440 0.498720 0.857170 -0.128377
O1    O     O_R   0.500000 0.316780 0.614690 -0.646450
O2    O     O_R   0.583850 0.500050 0.614640 -0.623544
O3    O     O_R   0.583840 0.500030 0.385310 -0.621844
O4    O     O_2   0.854168 0.711357 0.517790 -0.546568
O5    O     O_3   0.576567 0.107341 0.981541 -0.658249
O6    O     O_2   0.846979 0.272997 0.477113 -0.547593
O7    O     O_2   0.145698 0.269409 0.479031 -0.549036
O8    O     O_2   0.152613 0.707631 0.518925 -0.546302
O9    O     O_R   0.500000 0.316750 0.385360 -0.645975
O10   O     O_R   0.416160 0.499970 0.614690 -0.640054
O11   O     O_R   0.416150 0.499950 0.385360 -0.636191
O12   O     O_R   0.500000 0.683250 0.614640 -0.624354
O13   O     O_R   0.500000 0.683220 0.385310 -0.615242
Zn1   Zn    Zn3+2 0.500000 0.500020 0.653130 0.923791
Zn2   Zn    Zn3+2 0.500000 0.499980 0.346870 0.932174

loop_
_geom_bond_atom_site_label_1
_geom_bond_atom_site_label_2
_ccdc_geom_bond_type
C8    H15   S    
C33   H7    S    
C22   C29   A    
C27   C29   A    
C11   C13   A    
C41   C42   A    
C35   C36   A    
C7    C8    A    
C10   H16   S    
C12   C23   A    
C26   C27   A    
C37   C38   A    
C49   H9    S    
C3    C9    A    
C14   H23   S    
C18   C19   A    
C11   H12   S    
C30   C31   A    
O10   Zn1   S    
C16   O12   A    
C45   C48   A    
C10   C17   A    
C17   N1    S    
O12   Zn1   S    
C4    O11   A    
C19   C20   A    
C8    C9    A    
C28   O3    A    
C37   N3    A    
C31   H5    S    
C37   H2    S    
C15   H25   S    
C21   C22   A    
C1    C25   S    
C2    N2    A    
C32   H6    S    
C12   H1    S    
C44   C46   S    
O2    Zn1   S    
C26   H26   S    
C38   N4    A    
N3    Zn2   S    
C40   N1    A    
C27   H30   S    
C24   C25   A    
C47   H22   S    
C4    C6    S    
C1    O9    A    
C39   C43   A    
C2    C48   A    
C25   C26   A    
C5    H13   S    
C42   C45   A    
C12   C41   A    
N4    Zn1   S    
C51   O7    S    
C7    H14   S    
C4    O10   A    
C31   C32   A    
O9    Zn2   S    
C18   H27   S    
C23   C34   A    
C28   O2    A    
C34   C51   A    
C44   H18   S    
C13   C28   S    
C34   C45   A    
O1    Zn1   S    
C46   H20   S    
O3    Zn2   S    
C9    N2    S    
C48   C49   A    
O13   Zn2   S    
C18   C24   A    
C44   H17   S    
C42   C43   A    
C51   N2    A    
C44   O5    S    
C23   H3    S    
C3    H11   S    
C1    O1    A    
C15   C17   A    
C46   C47   S    
C40   C41   A    
C20   H28   S    
C2    O8    S    
C39   N1    A    
C3    C5    A    
C43   C50   A    
C6    C7    A    
C30   H4    S    
C30   C36   A    
C32   C33   A    
C16   C29   S    
C47   H24   S    
C19   O5    S    
C35   N4    A    
C16   O13   A    
C5    C6    A    
C36   N3    A    
O11   Zn2   S    
C21   H29   S    
C33   C35   A    
C22   C24   A    
C40   O6    S    
C47   H21   S    
C46   H19   S    
C10   C11   A    
C38   H8    S    
C20   C21   A    
C49   C50   A    
C50   H10   S    
C14   C15   A    
C13   C14   A    
C39   O4    S    
