data_mof_unit_20800.cif
_audit_creation_date              2012-12-10T17:42:44-0500
_audit_creation_method            fapswitch 2.2
_symmetry_space_group_name_H-M    P1
_symmetry_Int_Tables_number       1
_space_group_crystal_system       triclinic
_cell_length_a                    9.894704
_cell_length_b                    10.722107
_cell_length_c                    13.075804
_cell_angle_alpha                 91.347872
_cell_angle_beta                  69.450996
_cell_angle_gamma                 89.530356
_cell_volume                      1298.41234712

loop_
_atom_site_label
_atom_site_type_symbol
_atom_type_description
_atom_site_fract_x
_atom_site_fract_y
_atom_site_fract_z
_atom_type_partial_charge
C1    C     C_R   0.501873 0.739916 0.492399 0.890125
C2    C     C_R   0.366224 0.489510 0.823363 -0.177984
C3    C     C_R   0.253010 0.890154 0.471445 -0.189367
C4    C     C_R   0.419356 0.495678 0.704491 0.855263
C5    C     C_R   0.119348 0.951894 0.505281 -0.188169
C6    C     C_R   0.100645 0.064711 0.563519 0.425938
C7    C     C_R   0.219335 0.121161 0.578037 -0.206421
C8    C     C_R   0.358616 0.064582 0.534014 0.032600
C9    C     C_R   0.370508 0.940667 0.496298 0.095957
C10   C     C_R   0.499513 0.873665 0.486131 -0.092093
C11   C     C_R   0.622009 0.935955 0.488218 -0.186538
C12   C     C_R   0.432043 0.480269 0.984778 0.055184
C13   C     C_R   0.617666 0.062881 0.502001 -0.147311
C14   C     C_R   0.487829 0.128075 0.522444 -0.119426
C15   C     C_R   0.794643 0.666987 0.641739 -0.159427
C16   C     C_R   0.495193 0.260857 0.510249 0.882003
C17   C     C_R   0.832590 0.746114 0.712772 -0.150508
C18   C     C_R   0.971511 0.742391 0.714629 -0.156059
C19   C     C_R   0.073740 0.660494 0.644557 -0.181574
C20   C     C_R   0.039524 0.580170 0.570739 0.155938
C21   C     C_R   0.895186 0.581656 0.569936 0.170932
C22   C     C_R   0.959955 0.421432 0.433829 -0.018299
C23   C     C_R   0.457139 0.442201 0.875906 0.065778
C24   C     C_R   0.103327 0.421969 0.433344 -0.061152
C25   C     C_R   0.580901 0.496945 0.295384 0.991529
C26   C     C_R   0.756746 0.339578 0.021458 -0.210583
C27   C     C_R   0.632128 0.474746 0.177584 -0.197958
C28   C     C_R   0.233253 0.545862 0.885201 -0.258922
C29   C     C_R   0.194944 0.561076 0.997950 0.466914
C30   C     C_R   0.294395 0.530439 0.047495 -0.154909
C31   C     C_R   0.542596 0.459606 0.028028 0.020520
C32   C     C_R   0.656521 0.373656 0.973433 0.028591
C33   C     C_R   0.667969 0.321451 0.872138 -0.149886
C34   C     C_R   0.571525 0.357407 0.822574 -0.139685
C35   C     C_R   0.546056 0.522624 0.122401 0.262387
C36   C     C_R   0.740747 0.384531 0.125779 0.384482
Cl1   Cl    Cl    0.853682 0.319352 0.189497 -0.597418
Cl2   Cl    Cl    0.930427 0.138843 0.613093 -0.721551
Cl3   Cl    Cl    0.464122 0.672331 0.164526 -0.603171
Cl4   Cl    Cl    0.025527 0.625524 0.076429 -0.559767
H1    H     H_    0.262983 0.805368 0.422971 0.219569
H2    H     H_    0.753310 0.254631 0.830268 0.200513
H3    H     H_    0.182946 0.358049 0.379021 0.159957
H4    H     H_    0.842107 0.272132 0.980787 0.189981
H5    H     H_    0.160728 0.579900 0.846008 0.183308
H6    H     H_    0.260855 0.541701 0.135276 0.205983
H7    H     H_    0.584270 0.314715 0.743822 0.177119
H8    H     H_    0.722292 0.886924 0.478158 0.184463
H9    H     H_    0.029847 0.910521 0.488088 0.178426
H10   H     H_    0.201160 0.208517 0.624333 0.189263
H11   H     H_    0.716893 0.109858 0.494961 0.219779
H12   H     H_    0.931575 0.356604 0.380510 0.199910
H13   H     H_    0.685635 0.676107 0.646305 0.205625
H14   H     H_    0.753312 0.810513 0.767003 0.179666
H15   H     H_    0.000626 0.803748 0.770246 0.176985
H16   H     H_    0.178405 0.662651 0.650262 0.206177
N1    N     N_R   0.856860 0.501200 0.500990 -0.122525
N2    N     N_R   0.142450 0.501280 0.501020 -0.125884
O1    O     O_R   0.385310 0.683220 0.500000 -0.646624
O2    O     O_R   0.614640 0.683250 0.500010 -0.640286
O3    O     O_R   0.328400 0.499950 0.653610 -0.635555
O4    O     O_R   0.557730 0.499970 0.653620 -0.631158
O5    O     O_R   0.385360 0.316750 0.499990 -0.626609
O6    O     O_R   0.614690 0.316780 0.500000 -0.602393
O7    O     O_R   0.442270 0.500030 0.346380 -0.599686
O8    O     O_R   0.671600 0.500050 0.346390 -0.548261
Zn1   Zn    Zn3+2 0.346880 0.499980 0.499990 0.952344
Zn2   Zn    Zn3+2 0.653120 0.500020 0.500010 0.993954

loop_
_geom_bond_atom_site_label_1
_geom_bond_atom_site_label_2
_ccdc_geom_bond_type
C19   H16   S    
O8    Zn2   S    
C6    Cl2   S    
C21   N1    A    
C6    C7    A    
C3    C9    A    
C16   O5    A    
C4    O4    A    
C27   C36   A    
C25   C27   S    
C2    C28   A    
C9    C10   A    
O3    Zn1   S    
C35   Cl3   S    
C19   C20   A    
O4    Zn2   S    
C17   H14   S    
C3    C5    A    
C23   C34   A    
O1    Zn1   S    
C32   C33   A    
C22   N1    A    
C17   C18   A    
C26   H4    S    
C7    C8    A    
C13   C14   A    
C26   C32   A    
C11   C13   A    
C12   C23   A    
C5    H9    S    
C11   H8    S    
C29   C30   A    
C18   H15   S    
C2    C4    S    
C15   H13   S    
C29   Cl4   S    
C26   C36   A    
C36   Cl1   S    
C33   C34   A    
C22   H12   S    
C31   C35   A    
C1    O1    A    
C12   C31   A    
C5    C6    A    
O5    Zn1   S    
C28   H5    S    
C1    O2    A    
C10   C11   A    
C33   H2    S    
N1    Zn2   S    
C20   N2    A    
O6    Zn2   S    
N2    Zn1   S    
C15   C21   A    
C25   O7    A    
C20   C21   A    
O2    Zn2   S    
C24   N2    A    
C18   C19   A    
C1    C10   S    
C22   C24   A    
C2    C23   A    
C15   C17   A    
C24   H3    S    
C28   C29   A    
C8    C14   A    
C34   H7    S    
C16   O6    A    
C27   C35   A    
C14   C16   S    
C13   H11   S    
C12   C30   A    
C4    O3    A    
C30   H6    S    
C3    H1    S    
C25   O8    A    
C31   C32   A    
C7    H10   S    
C8    C9    A    
O7    Zn1   S    
