data_mof_unit_49406.cif
_audit_creation_date              2012-12-10T20:31:06-0500
_audit_creation_method            fapswitch 2.2
_symmetry_space_group_name_H-M    P1
_symmetry_Int_Tables_number       1
_space_group_crystal_system       triclinic
_cell_length_a                    14.914219
_cell_length_b                    10.666133
_cell_length_c                    9.860997
_cell_angle_alpha                 89.863624
_cell_angle_beta                  90.084149
_cell_angle_gamma                 90.008295
_cell_volume                      1568.65209719

loop_
_atom_site_label
_atom_site_type_symbol
_atom_type_description
_atom_site_fract_x
_atom_site_fract_y
_atom_site_fract_z
_atom_type_partial_charge
C1    C     C_R   0.502467 0.259828 0.500070 0.967653
C2    C     C_R   0.906024 0.602150 0.539949 0.141578
C3    C     C_R   0.954223 0.274393 0.429487 -0.178774
C4    C     C_R   0.047161 0.275035 0.430495 -0.157580
C5    C     C_R   0.094359 0.384131 0.465460 0.054320
C6    C     C_R   0.046773 0.494017 0.501278 -0.047141
C7    C     C_R   0.092696 0.605862 0.535106 0.015966
C8    C     C_R   0.044764 0.713332 0.573055 -0.162791
C9    C     C_R   0.951942 0.711213 0.575951 -0.212379
C10   C     C_R   0.187960 0.386311 0.465982 0.254973
C11   C     C_R   0.231961 0.498056 0.498779 -0.268924
C12   C     C_R   0.327220 0.500442 0.499813 1.038239
C13   C     C_R   0.185885 0.608596 0.528703 0.347373
C14   C     C_R   0.524164 0.063584 0.622040 0.156631
C15   C     C_R   0.517303 0.128411 0.499831 -0.073008
C16   C     C_R   0.529579 0.064884 0.376820 -0.140945
C17   C     C_R   0.530865 0.935398 0.376848 -0.229389
C18   C     C_R   0.519907 0.871080 0.499907 -0.117582
C19   C     C_R   0.526079 0.935682 0.622265 0.126429
C20   C     C_3   0.470353 0.927062 0.748025 -0.474326
C21   C     C_3   0.467166 0.069166 0.746419 -0.495891
C22   C     C_R   0.458176 0.406181 0.071431 0.212022
C23   C     C_R   0.503664 0.739996 0.499903 0.882068
C24   C     C_R   0.547933 0.586124 0.071872 -0.118059
C25   C     C_R   0.547964 0.586109 0.927853 -0.117488
C26   C     C_R   0.458059 0.406295 0.928855 0.207564
C27   C     C_3   0.360764 0.374389 0.923412 -0.511543
C28   C     C_3   0.361055 0.373770 0.077403 -0.463930
C29   C     C_R   0.672820 0.498749 0.500117 0.958413
C30   C     C_R   0.813486 0.601330 0.540208 -0.329855
C31   C     C_R   0.767944 0.494028 0.500641 -0.127331
C32   C     C_R   0.812386 0.383925 0.462981 0.307020
C33   C     C_R   0.906162 0.382478 0.464629 0.046627
C34   C     C_R   0.953005 0.492677 0.502175 0.055123
H1    H     H_    0.776405 0.684744 0.568989 0.155268
H2    H     H_    0.533273 0.886827 0.280557 0.169365
H3    H     H_    0.403951 0.882417 0.731051 0.228797
H4    H     H_    0.508968 0.888525 0.835162 0.201888
H5    H     H_    0.399053 0.107093 0.725561 0.218389
H6    H     H_    0.502881 0.112602 0.833481 0.211490
H7    H     H_    0.585223 0.657128 0.126134 0.145493
H8    H     H_    0.585326 0.657040 0.873395 0.144811
H9    H     H_    0.319379 0.451007 0.879221 0.233094
H10   H     H_    0.348716 0.280265 0.879035 0.207529
H11   H     H_    0.319626 0.449778 0.122145 0.227316
H12   H     H_    0.349724 0.279157 0.121688 0.231389
H13   H     H_    0.920816 0.188387 0.400904 0.204329
H14   H     H_    0.081248 0.189374 0.402706 0.198861
H15   H     H_    0.078746 0.799394 0.600477 0.190520
H16   H     H_    0.916001 0.795239 0.605140 0.156522
H17   H     H_    0.531574 0.113880 0.280505 0.177128
N1    N     N_R   0.499390 0.499140 0.142800 -0.110006
N2    N     N_R   0.499390 0.499180 0.857150 -0.107604
O1    O     O_R   0.500010 0.316790 0.614690 -0.623356
O2    O     O_R   0.500000 0.316760 0.385350 -0.603106
O3    O     O_R   0.367850 0.499990 0.614680 -0.605068
O4    O     O_R   0.367840 0.499950 0.385340 -0.625715
O5    O     O_R   0.500000 0.683240 0.614650 -0.621154
O6    O     O_R   0.499990 0.683210 0.385310 -0.644584
O7    O     O_R   0.632160 0.500050 0.614660 -0.621697
O8    O     O_R   0.632150 0.500010 0.385320 -0.596922
Zn1   Zn    Zn3+2 0.500010 0.500020 0.653130 0.974384
Zn2   Zn    Zn3+2 0.499990 0.499980 0.346870 0.976025
Cl1   Cl    Cl    0.749464 0.249247 0.417128 -0.665430
Cl2   Cl    Cl    0.251609 0.250417 0.427171 -0.720546
O9    O     O_3   0.232313 0.718769 0.553985 -0.614516
C35   C     C_3   0.243995 0.783443 0.429802 0.022956
H18   H     H_    0.181450 0.785273 0.367494 0.147569
H19   H     H_    0.298451 0.739052 0.369819 0.162878
C36   C     C_3   0.269987 0.918623 0.458299 -0.729160
H20   H     H_    0.332692 0.922050 0.518333 0.250310
H21   H     H_    0.280894 0.969170 0.361146 0.239777
H22   H     H_    0.215748 0.966016 0.515733 0.267715

loop_
_geom_bond_atom_site_label_1
_geom_bond_atom_site_label_2
_ccdc_geom_bond_type
C24   N1    A    
C23   O5    A    
O5    Zn1   S    
C19   C20   S    
C16   H17   S    
C6    C34   A    
C7    C8    A    
C23   O6    A    
C28   H12   S    
C26   C27   S    
C30   H1    S    
C14   C21   S    
C25   N2    A    
C5    C6    A    
C3    C33   A    
C15   C16   A    
O7    Zn1   S    
C18   C19   A    
O8    Zn2   S    
C27   H10   S    
C16   C17   A    
O2    Zn2   S    
O4    Zn2   S    
C36   H20   S    
C1    C15   S    
C17   H2    S    
C2    C34   A    
O9    C35   S    
C22   C28   S    
C24   H7    S    
C33   C34   A    
C13   O9    S    
C29   O8    A    
C28   H11   S    
C35   H18   S    
C24   C25   A    
C32   Cl1   S    
C8    C9    A    
O1    Zn1   S    
C18   C23   S    
C35   H19   S    
C1    O1    A    
C20   H4    S    
N2    Zn1   S    
C31   C32   A    
C21   H5    S    
C29   O7    A    
C36   H22   S    
C17   C18   A    
C12   O3    A    
C12   O4    A    
O3    Zn1   S    
C3    C4    A    
C26   N2    A    
C22   N1    A    
C4    H14   S    
C10   Cl2   S    
C14   C19   A    
C9    H16   S    
C4    C5    A    
N1    Zn2   S    
C25   H8    S    
C11   C12   S    
C6    C7    A    
O6    Zn2   S    
C2    C30   A    
C35   C36   S    
C32   C33   A    
C1    O2    A    
C5    C10   A    
C29   C31   S    
C20   H3    S    
C11   C13   A    
C30   C31   A    
C21   H6    S    
C3    H13   S    
C10   C11   A    
C27   H9    S    
C7    C13   A    
C20   C21   S    
C22   C26   A    
C27   C28   S    
C14   C15   A    
C36   H21   S    
C2    C9    A    
C8    H15   S    
