data_mof_unit_29988.cif
_audit_creation_date              2012-12-10T19:01:24-0500
_audit_creation_method            fapswitch 2.2
_symmetry_space_group_name_H-M    P1
_symmetry_Int_Tables_number       1
_space_group_crystal_system       triclinic
_cell_length_a                    9.667608
_cell_length_b                    10.845601
_cell_length_c                    15.973605
_cell_angle_alpha                 88.907304
_cell_angle_beta                  71.061321
_cell_angle_gamma                 89.125151
_cell_volume                      1583.82221634

loop_
_atom_site_label
_atom_site_type_symbol
_atom_type_description
_atom_site_fract_x
_atom_site_fract_y
_atom_site_fract_z
_atom_type_partial_charge
C1    C     C_R   0.001484 0.262659 0.498989 0.775694
C2    C     C_R   0.667436 0.580569 0.903525 -0.074994
C3    C     C_R   0.774524 0.603268 0.943508 -0.021362
C4    C     C_R   0.519828 0.598469 0.954664 0.000813
C5    C     C_R   0.479860 0.599740 0.048153 0.003650
C6    C     C_R   0.587910 0.625325 0.086378 -0.291243
C7    C     C_R   0.732719 0.639453 0.032587 0.554963
C8    C     C_R   0.412839 0.629754 0.916138 -0.268250
C9    C     C_R   0.265409 0.636760 0.969457 0.478142
C10   C     C_R   0.228001 0.579291 0.053256 -0.047873
C11   C     C_R   0.332079 0.577807 0.098014 -0.014216
C12   C     C_R   0.914265 0.503580 0.671099 0.810357
C13   C     C_R   0.091000 0.523573 0.093809 0.569563
C14   C     C_R   0.046349 0.494797 0.183683 -0.274366
C15   C     C_R   0.285191 0.548798 0.188903 -0.232860
C16   C     C_R   0.128833 0.060963 0.494861 0.025975
C17   C     C_R   0.006308 0.129308 0.492124 -0.131779
C18   C     C_R   0.888080 0.066837 0.479722 -0.196317
C19   C     C_R   0.886004 0.938464 0.481002 -0.227977
C20   C     C_R   0.001802 0.870734 0.494481 -0.071075
C21   C     C_R   0.124153 0.933566 0.498386 0.032709
C22   C     C_3   0.199465 0.922477 0.566402 -0.491094
C23   C     C_R   0.999301 0.737254 0.499846 0.788701
C24   C     C_3   0.209637 0.062102 0.561563 0.347466
C25   C     C_R   0.579660 0.605742 0.482508 0.187860
C26   C     C_R   0.559400 0.400989 0.530200 -0.043215
C27   C     C_R   0.410657 0.401994 0.531481 -0.064949
C28   C     C_R   0.435401 0.604295 0.480070 0.168535
C29   C     C_3   0.471095 0.682019 0.398325 -0.529592
C30   C     C_3   0.624618 0.692128 0.404353 0.299852
C31   C     C_R   0.085745 0.501135 0.328917 0.828210
C32   C     C_R   0.862181 0.527402 0.766433 -0.137565
C33   C     C_R   0.139791 0.514286 0.232536 -0.147941
C34   C     C_R   0.921183 0.588643 0.894137 -0.132283
C35   C     C_R   0.965381 0.552567 0.807332 -0.339927
C36   C     C_R   0.711489 0.535903 0.815522 0.460418
Cu1   Cu    Cu3+1 0.140670 0.499980 0.500000 0.943441
Cu2   Cu    Cu3+1 0.859330 0.500020 0.500000 0.990639
H1    H     H_    0.794229 0.116522 0.472848 0.164417
H2    H     H_    0.791057 0.893118 0.475639 0.152032
H3    H     H_    0.306735 0.874152 0.541862 0.204457
H4    H     H_    0.126107 0.887228 0.631204 0.154384
H5    H     H_    0.144700 0.106517 0.624526 0.080117
H6    H     H_    0.342924 0.323441 0.557954 0.192275
H7    H     H_    0.466150 0.629450 0.340304 0.218070
H8    H     H_    0.360225 0.551474 0.226197 0.166424
H9    H     H_    0.410547 0.771089 0.408499 0.153538
H10   H     H_    0.646027 0.785504 0.424800 0.042963
H11   H     H_    0.938271 0.457147 0.214969 0.205375
H12   H     H_    0.003193 0.600688 0.922832 0.288161
H13   H     H_    0.081663 0.545072 0.772320 0.191884
H14   H     H_    0.561140 0.643683 0.156127 0.160508
H15   H     H_    0.446643 0.660428 0.847846 0.189095
N1    N     N_R   0.648210 0.500930 0.499430 -0.169809
N2    N     N_R   0.352300 0.500890 0.499430 -0.181809
O1    O     O_R   0.118810 0.319640 0.500000 -0.586027
O2    O     O_R   0.881230 0.319680 0.499990 -0.596997
O3    O     O_R   0.055580 0.499970 0.629840 -0.594936
O4    O     O_R   0.818000 0.500010 0.629830 -0.532094
O5    O     O_R   0.118770 0.680320 0.500010 -0.575449
O6    O     O_R   0.881190 0.680360 0.500000 -0.590480
O7    O     O_R   0.182000 0.499990 0.370170 -0.590297
O8    O     O_R   0.944420 0.500030 0.370160 -0.528451
O9    O     O_3   0.833350 0.684593 0.068448 -0.541023
C37   C     C_3   0.837072 0.813900 0.057067 -0.323490
H16   H     H_    0.730594 0.856803 0.095503 0.135246
H17   H     H_    0.867009 0.841309 0.985915 0.168090
H18   H     H_    0.922070 0.850719 0.082395 0.198897
O10   O     O_3   0.005138 0.485291 0.045597 -0.552354
C38   C     C_3   0.061509 0.372359 0.005452 -0.394725
H19   H     H_    0.064600 0.300543 0.055614 0.164189
H20   H     H_    0.172066 0.384140 0.955729 0.157935
H21   H     H_    0.988246 0.338926 0.969969 0.200573
O11   O     O_3   0.357778 0.102499 0.532831 -0.587790
C39   C     C_3   0.427329 0.100162 0.440141 -0.316049
H22   H     H_    0.378595 0.170648 0.406391 0.185270
H23   H     H_    0.424010 0.007054 0.413085 0.155268
H24   H     H_    0.544039 0.123897 0.425719 0.170274
H25   H     H_    0.601998 0.319593 0.553806 0.147362
O12   O     O_3   0.732489 0.641622 0.330423 -0.526253
C40   C     C_3   0.811376 0.739139 0.277407 -0.256768
H26   H     H_    0.876790 0.788093 0.312109 0.140297
H27   H     H_    0.737481 0.804909 0.257701 0.144148
H28   H     H_    0.889007 0.701184 0.216267 0.227343
O13   O     O_3   0.162806 0.717612 0.953693 -0.574994
C41   C     C_3   0.213619 0.785157 0.873287 -0.390684
H29   H     H_    0.242324 0.722750 0.815590 0.168889
H30   H     H_    0.306529 0.845257 0.871927 0.174677
H31   H     H_    0.123844 0.846453 0.868031 0.188196
O14   O     O_3   0.608742 0.497598 0.778367 -0.578341
C42   C     C_3   0.580316 0.371646 0.799430 -0.318948
H32   H     H_    0.680757 0.314158 0.771926 0.149090
H33   H     H_    0.498838 0.340785 0.769038 0.183493
H34   H     H_    0.532794 0.356158 0.872216 0.156715

loop_
_geom_bond_atom_site_label_1
_geom_bond_atom_site_label_2
_ccdc_geom_bond_type
C16   C21   A    
C19   C20   A    
C39   H22   S    
C14   C33   A    
Cu1   O7    S    
C22   H4    S    
O13   C41   S    
C25   C28   A    
C26   C27   A    
C29   C30   S    
C29   H9    S    
C32   C36   A    
C30   H10   S    
C28   C29   S    
C1    O1    A    
C5    C11   A    
C3    C7    A    
C5    C6    A    
C27   N2    A    
C22   H3    S    
C2    C36   A    
C34   C35   A    
C9    O13   S    
Cu1   O1    S    
C11   C15   A    
C27   H6    S    
C8    C9    A    
C37   H17   S    
C31   C33   S    
C38   H19   S    
C9    C10   A    
Cu1   O3    S    
C4    C8    A    
Cu2   O6    S    
C12   O3    A    
C16   C24   S    
C21   C22   S    
C12   C32   S    
C12   O4    A    
C31   O7    A    
C26   N1    A    
C40   H27   S    
C28   N2    A    
C40   H26   S    
C23   O5    A    
C34   H12   S    
O11   C39   S    
C32   C35   A    
C31   O8    A    
C25   N1    A    
C10   C11   A    
C42   H32   S    
C41   H29   S    
C18   C19   A    
C3    C34   A    
C10   C13   A    
C29   H7    S    
Cu1   N2    S    
C2    C4    A    
C18   H1    S    
Cu1   Cu2   S    
C1    O2    A    
C42   H33   S    
Cu2   O2    S    
Cu2   N1    S    
C20   C23   S    
C23   O6    A    
C37   H18   S    
C38   H21   S    
C17   C18   A    
C39   H23   S    
C35   H13   S    
C22   C24   S    
C40   H28   S    
Cu2   O8    S    
C36   O14   S    
C25   C30   S    
O12   C40   S    
C41   H31   S    
C8    H15   S    
C6    C7    A    
C1    C17   S    
C26   H25   S    
O9    C37   S    
C2    C3    A    
C30   O12   S    
C42   H34   S    
C24   O11   S    
O14   C42   S    
C16   C17   A    
C13   O10   S    
C41   H30   S    
O10   C38   S    
C39   H24   S    
C7    O9    S    
Cu1   O5    S    
C19   H2    S    
Cu2   O4    S    
C14   H11   S    
C4    C5    A    
C20   C21   A    
C37   H16   S    
C24   H5    S    
C38   H20   S    
C15   H8    S    
C6    H14   S    
C13   C14   A    
C15   C33   A    
