data_mof_unit_37554.cif
_audit_creation_date              2012-12-11T15:23:41-0500
_audit_creation_method            fapswitch 2.2
_symmetry_space_group_name_H-M    P1
_symmetry_Int_Tables_number       1
_space_group_crystal_system       triclinic
_cell_length_a                    6.938419
_cell_length_b                    17.450859
_cell_length_c                    19.415382
_cell_angle_alpha                 109.627822
_cell_angle_beta                  90.319205
_cell_angle_gamma                 90.392047
_cell_volume                      2214.11504923

loop_
_atom_site_label
_atom_site_type_symbol
_atom_type_description
_atom_site_fract_x
_atom_site_fract_y
_atom_site_fract_z
_atom_type_partial_charge
O1    O     O_R   0.505810 0.439670 0.562310 -0.509250
O2    O     O_R   0.169070 0.404920 0.411210 -0.540824
O3    O     O_R   0.005550 0.560330 0.437690 -0.538194
C1    C     C_R   0.338450 0.381238 0.383025 0.751324
O4    O     O_R   0.175650 0.430000 0.560110 -0.539528
O5    O     O_R   0.012170 0.585580 0.587650 -0.551524
C2    C     C_R   0.345423 0.412861 0.580097 0.750618
O6    O     O_R   0.499180 0.414420 0.412350 -0.521528
O7    O     O_3   0.341430 0.551020 0.508860 -0.379621
V1    V     V_3+5 0.063930 0.490540 0.498360 1.509744
O8    O     O_R   0.682850 0.595080 0.588790 -0.550074
C3    C     C_R   0.852946 0.619471 0.615742 0.668114
O9    O     O_R   0.676280 0.570000 0.439890 -0.519099
C4    C     C_R   0.844126 0.583400 0.416916 0.762105
V2    V     V_3+5 0.564760 0.509460 0.501640 1.530430
O10   O     O_3   0.837130 0.448980 0.491140 -0.341827
C5    C     C_R   0.044787 0.868169 0.181507 -0.274764
C6    C     C_R   0.910678 0.858114 0.124760 -0.111751
C7    C     C_R   0.762619 0.797777 0.112867 0.115792
C8    C     C_R   0.747059 0.752128 0.161330 0.016257
C9    C     C_R   0.882713 0.763791 0.218429 0.052601
C10   C     C_R   0.034520 0.820744 0.227108 0.124505
C11   C     C_R   0.597882 0.695187 0.154273 -0.237807
C12   C     C_R   0.573862 0.653605 0.203478 0.441747
C13   C     C_R   0.713077 0.661844 0.259889 -0.068072
C14   C     C_R   0.868554 0.717866 0.266576 -0.029940
C15   C     C_R   0.011281 0.728508 0.321438 0.160539
C16   C     C_R   0.163290 0.784038 0.328131 -0.127020
C17   C     C_R   0.174101 0.830027 0.281788 -0.176213
C18   C     C_R   0.706824 0.616534 0.309028 0.378632
C19   C     C_R   0.849933 0.628859 0.364322 -0.163911
C20   C     C_R   0.001123 0.683948 0.369229 -0.222928
H1    H     H_    0.157935 0.913763 0.190459 0.125868
H2    H     H_    0.492445 0.682607 0.110882 0.178247
H3    H     H_    0.110832 0.692863 0.411299 0.136179
H4    H     H_    0.273895 0.792286 0.369705 0.114948
H5    H     H_    0.292504 0.872845 0.288614 0.120651
C21   C     C_3   0.823139 0.817964 0.741657 0.171159
C22   C     C_3   0.991995 0.767061 0.698241 -0.166052
H6    H     H_    0.077344 0.781219 0.655762 0.111833
C23   C     C_3   0.868275 0.689539 0.686000 -0.097279
C24   C     C_3   0.698298 0.740426 0.728311 -0.159430
C25   C     C_3   0.781377 0.732060 0.799493 0.153953
C26   C     C_3   0.949661 0.680840 0.756875 0.163288
C27   C     C_3   0.073634 0.758838 0.770210 -0.200392
C28   C     C_3   0.903867 0.810077 0.812962 -0.130300
H7    H     H_    0.544822 0.733009 0.710651 0.113148
H8    H     H_    0.226979 0.766428 0.787999 0.128471
C29   C     C_3   0.479361 0.234460 0.305194 -0.135458
C30   C     C_3   0.318295 0.179781 0.257325 -0.136822
H9    H     H_    0.263827 0.122177 0.262856 0.106968
H10   H     H_    0.556194 0.222478 0.350800 0.143703
C31   C     C_3   0.414262 0.187919 0.188503 -0.028119
C32   C     C_3   0.575019 0.241615 0.235554 -0.140234
C33   C     C_3   0.452660 0.317916 0.243302 -0.090709
C34   C     C_3   0.291492 0.263470 0.195651 -0.120839
C35   C     C_3   0.195821 0.256269 0.265254 -0.114682
C36   C     C_3   0.356746 0.310225 0.312288 -0.027490
H11   H     H_    0.730674 0.235337 0.222539 0.116368
H12   H     H_    0.509266 0.373712 0.235444 0.195036
H13   H     H_    0.214735 0.275591 0.150099 0.128698
H14   H     H_    0.040160 0.262604 0.278248 0.114092
C37   C     C_R   0.564894 0.130728 0.819097 -0.218466
C38   C     C_R   0.416030 0.134240 0.868852 -0.083217
C39   C     C_R   0.254980 0.183322 0.869874 -0.182841
C40   C     C_R   0.243487 0.229228 0.822647 0.021804
C41   C     C_R   0.391862 0.224339 0.772041 0.084430
C42   C     C_R   0.552329 0.174320 0.770109 0.130551
C43   C     C_R   0.086395 0.280221 0.825525 -0.213621
C44   C     C_R   0.075028 0.326472 0.778992 0.398997
C45   C     C_R   0.220707 0.320850 0.726816 0.010165
C46   C     C_R   0.379857 0.269362 0.723375 -0.039016
C47   C     C_R   0.527312 0.262625 0.671517 0.092911
C48   C     C_R   0.684777 0.211239 0.670019 -0.086603
C49   C     C_R   0.697449 0.168284 0.718919 -0.213904
C50   C     C_R   0.212039 0.365837 0.678656 -0.196686
C51   C     C_R   0.357859 0.360745 0.627328 -0.160450
C52   C     C_R   0.514924 0.307533 0.622879 0.344952
H15   H     H_    0.688625 0.092500 0.817330 0.119380
H16   H     H_    0.139720 0.186712 0.908245 0.130538
H17   H     H_    0.972259 0.284717 0.864557 0.171873
H18   H     H_    0.092773 0.406346 0.681351 0.196862
H19   H     H_    0.801848 0.204553 0.631989 0.178975
H20   H     H_    0.821604 0.130161 0.716626 0.125565
O11   O     O_R   0.271890 0.085690 0.087580 -0.537203
O12   O     O_R   0.595690 0.070020 0.939870 -0.539728
O13   O     O_R   0.758900 0.914390 0.912370 -0.544489
C53   C     C_R   0.426557 0.085230 0.918308 0.711240
O14   O     O_R   0.602020 0.095100 0.088770 -0.537014
O15   O     O_R   0.765280 0.939660 0.062330 -0.536481
C54   C     C_R   0.432727 0.118021 0.117314 0.689719
O16   O     O_R   0.265520 0.060430 0.937620 -0.538507
O17   O     O_3   0.429560 0.949050 0.991100 -0.375741
V3    V     V_3+5 0.707160 0.009450 0.001650 1.395797
O18   O     O_R   0.094540 0.929890 0.060190 -0.548364
C55   C     C_R   0.924958 0.912673 0.079922 0.705713
O19   O     O_R   0.088200 0.904800 0.911290 -0.539571
C56   C     C_R   0.918307 0.880648 0.883726 0.680373
V4    V     V_3+5 0.206300 0.990390 0.998440 1.378505
O20   O     O_3   0.934030 0.050940 0.008900 -0.362337
C57   C     C_3   0.751547 0.897650 0.734564 -0.358057
C58   C     C_3   0.679288 0.885733 0.657327 -0.764330
H21   H     H_    0.796892 0.862849 0.617252 0.222630
H22   H     H_    0.556715 0.841795 0.642880 0.220801
H23   H     H_    0.629354 0.944849 0.654285 0.222841
H24   H     H_    0.632384 0.921390 0.773763 0.176801
H25   H     H_    0.871230 0.943015 0.748639 0.168079
C59   C     C_3   0.662361 0.713696 0.857630 -0.393991
C60   C     C_3   0.545048 0.635640 0.826315 -0.735125
H26   H     H_    0.437745 0.642872 0.786615 0.220734
H27   H     H_    0.637211 0.583033 0.798362 0.255180
H28   H     H_    0.470835 0.622740 0.871699 0.230144
H29   H     H_    0.762137 0.707623 0.900018 0.173608
H30   H     H_    0.562732 0.764963 0.882527 0.187859
C61   C     C_3   0.025618 0.599150 0.758795 -0.352560
C62   C     C_3   0.069237 0.599935 0.836155 -0.692345
H31   H     H_    0.137260 0.658500 0.869612 0.207592
H32   H     H_    0.935896 0.590123 0.863270 0.256524
H33   H     H_    0.167687 0.549148 0.833484 0.246998
H34   H     H_    0.919247 0.550082 0.732540 0.195783
H35   H     H_    0.158525 0.584302 0.725568 0.163540
C63   C     C_3   0.629381 0.778840 0.046597 -0.394789
C64   C     C_3   0.431221 0.816932 0.066511 -0.635890
H36   H     H_    0.351787 0.790104 0.102144 0.208422
H37   H     H_    0.445406 0.883339 0.095678 0.234968
H38   H     H_    0.344806 0.806077 0.015760 0.211694
H39   H     H_    0.691475 0.801178 0.004770 0.173517
H40   H     H_    0.615359 0.712142 0.018603 0.179016
Cl1   Cl    Cl    0.875575 0.391370 0.788990 -0.699206
Cl2   Cl    Cl    0.690972 0.293389 0.553847 -0.684021
Cl3   Cl    Cl    0.355482 0.597500 0.190095 -0.570396
Cl4   Cl    Cl    0.536070 0.537663 0.298990 -0.623463

loop_
_geom_bond_atom_site_label_1
_geom_bond_atom_site_label_2
_ccdc_geom_bond_type
C57   H25   S    
C9    C14   A    
C7    C63   S    
C57   C58   S    
C61   H35   S    
C10   C17   A    
C6    C55   S    
C23   C24   S    
O18   C55   A    
C48   H19   S    
C1    O6    A    
O19   C56   A    
O11   C54   A    
C35   H14   S    
C22   C23   S    
C37   H15   S    
C51   C52   A    
C62   H31   S    
C42   C49   A    
C14   C15   A    
O17   V3    S    
C16   C17   A    
C6    C7    A    
C21   C57   S    
C60   H27   S    
O5    C3    A    
C21   C22   S    
O12   C53   A    
C49   H20   S    
C64   H37   S    
C40   C43   A    
C61   C62   S    
O13   V3    S    
O14   V3    S    
C59   C60   S    
C58   H23   S    
C41   C46   A    
C47   C48   A    
C59   H30   S    
C63   H39   S    
O12   V3    S    
C37   C42   A    
O8    V2    S    
C53   O16   A    
C26   C61   S    
C31   C54   S    
C47   C52   A    
C44   C45   A    
O1    V2    S    
O9    C4    A    
C25   C59   S    
O14   C54   A    
O7    V1    S    
C4    C19   S    
C22   C27   S    
O13   C56   A    
C29   H10   S    
C40   C41   A    
C28   C56   S    
C39   H16   S    
C33   H12   S    
C43   C44   A    
C5    H1    S    
O19   V4    S    
O15   V3    S    
C32   H11   S    
C30   C31   S    
O7    V2    S    
C48   C49   A    
C41   C42   A    
C20   H3    S    
C64   H36   S    
C12   C13   A    
C60   H28   S    
C50   H18   S    
C22   H6    S    
O4    C2    A    
C13   C18   A    
C64   H38   S    
C27   H8    S    
C30   H9    S    
C13   C14   A    
C31   C32   S    
C44   Cl1   S    
C29   C36   S    
C59   H29   S    
O2    C1    A    
C25   C26   S    
C3    C23   S    
O11   V4    S    
V4    O20   S    
C8    C11   A    
V3    O20   S    
C18   C19   A    
C11   C12   A    
C11   H2    S    
C33   C34   S    
C5    C6    A    
C50   C51   A    
C58   H22   S    
O3    C4    A    
C39   C40   A    
O6    V2    S    
O9    V2    S    
C23   C26   S    
C34   C35   S    
C17   H5    S    
O2    V1    S    
C26   C27   S    
C31   C34   S    
C57   H24   S    
O17   V4    S    
C32   C33   S    
C29   C32   S    
C15   C20   A    
O1    C2    A    
C30   C35   S    
C19   C20   A    
C46   C47   A    
O5    V1    S    
O8    C3    A    
C61   H34   S    
O15   C55   A    
C5    C10   A    
C62   H33   S    
C2    C51   S    
C38   C39   A    
C7    C8    A    
C52   Cl2   S    
O4    V1    S    
O3    V1    S    
V1    O10   S    
C60   H26   S    
C12   Cl3   S    
C35   C36   S    
C45   C50   A    
C18   Cl4   S    
C62   H32   S    
O18   V4    S    
C24   H7    S    
C63   H40   S    
C58   H21   S    
C25   C28   S    
C21   C28   S    
C43   H17   S    
C37   C38   A    
C21   C24   S    
C27   C28   S    
C45   C46   A    
C8    C9    A    
C16   H4    S    
C29   C30   S    
C24   C25   S    
C33   C36   S    
C1    C36   S    
C15   C16   A    
C34   H13   S    
C63   C64   S    
C9    C10   A    
C38   C53   S    
V2    O10   S    
O16   V4    S    
