data_mof_unit_60542.cif
_audit_creation_date              2012-12-10T18:34:20-0500
_audit_creation_method            fapswitch 2.2
_symmetry_space_group_name_H-M    P1
_symmetry_Int_Tables_number       1
_space_group_crystal_system       triclinic
_cell_length_a                    36.12794
_cell_length_b                    36.149807
_cell_length_c                    25.55929
_cell_angle_alpha                 90.000618
_cell_angle_beta                  134.964335
_cell_angle_gamma                 90.006116
_cell_volume                      23618.5445684

loop_
_atom_site_label
_atom_site_type_symbol
_atom_type_description
_atom_site_fract_x
_atom_site_fract_y
_atom_site_fract_z
_atom_type_partial_charge
C1    C     C_R   0.849658 0.750052 0.699280 0.504211
C2    C     C_3   0.536548 0.249968 0.499968 0.069398
C3    C     C_3   0.290243 0.521550 0.584488 0.077870
C4    C     C_3   0.768736 0.978625 0.466218 -0.262184
C5    C     C_3   0.768261 0.021561 0.465684 -0.256414
C6    C     C_3   0.270113 0.478624 0.468100 -0.262192
C7    C     C_3   0.269634 0.521560 0.467545 -0.256403
C8    C     C_1   0.750351 0.110670 0.500449 -0.017571
C9    C     C_1   0.750251 0.889341 0.500316 -0.002501
C10   C     C_1   0.250337 0.610670 0.500437 -0.017618
C11   C     C_1   0.250240 0.389341 0.500305 -0.002511
C12   C     C_3   0.751125 0.963435 0.502647 0.063818
C13   C     C_3   0.036541 0.250034 0.499954 0.069310
C14   C     C_3   0.751473 0.036603 0.503284 0.060282
C15   C     C_3   0.251067 0.463436 0.502606 0.063828
C16   C     C_3   0.251407 0.536603 0.503243 0.060294
C17   C     C_3   0.695722 0.021438 0.458989 -0.220936
C18   C     C_3   0.695466 0.978594 0.458178 -0.218716
C19   C     C_3   0.195373 0.521438 0.457179 -0.220934
C20   C     C_3   0.195131 0.478594 0.456369 -0.218714
C21   C     C_1   0.750847 0.077345 0.501555 -0.062027
C22   C     C_1   0.750568 0.922667 0.501057 -0.044432
C23   C     C_1   0.250812 0.577345 0.501529 -0.062085
C24   C     C_3   0.036547 0.749967 0.499967 0.069407
C25   C     C_1   0.250540 0.422667 0.501035 -0.044450
C26   C     C_3   0.784197 0.521316 0.578665 -0.207431
C27   C     C_3   0.786763 0.478542 0.579305 -0.214837
C28   C     C_3   0.283630 0.021316 0.578528 -0.207435
C29   C     C_3   0.286221 0.978542 0.579225 -0.214846
C30   C     C_3   0.694849 0.521444 0.451318 -0.262238
C31   C     C_3   0.695386 0.478460 0.451645 -0.255419
C32   C     C_3   0.194766 0.021444 0.450548 -0.262233
C33   C     C_3   0.195306 0.978460 0.450887 -0.255410
C34   C     C_1   0.750213 0.389261 0.499741 -0.013138
C35   C     C_3   0.489109 0.788764 0.521118 -0.213393
C36   C     C_1   0.750093 0.610740 0.499722 -0.016044
C37   C     C_1   0.250214 0.889261 0.499748 -0.013140
C38   C     C_1   0.250094 0.110740 0.499725 -0.016055
C39   C     C_R   0.750015 0.849701 0.499992 0.502712
C40   C     C_R   0.750004 0.150301 0.499983 0.501193
C41   C     C_R   0.250015 0.349702 0.499993 0.502701
C42   C     C_R   0.250004 0.650301 0.499984 0.501248
C43   C     C_3   0.751073 0.536675 0.499372 0.068191
C44   C     C_3   0.751812 0.463374 0.499661 0.047124
C45   C     C_3   0.251088 0.036675 0.499405 0.068196
C46   C     C_3   0.487641 0.210875 0.518202 -0.213346
C47   C     C_3   0.251832 0.963374 0.499709 0.047128
C48   C     C_3   0.772585 0.478076 0.466605 0.095294
C49   C     C_3   0.770513 0.521572 0.464505 0.113146
C50   C     C_3   0.273276 0.978075 0.467587 0.095294
C51   C     C_3   0.271207 0.021572 0.465465 0.113142
C52   C     C_1   0.750723 0.422587 0.499649 -0.082823
C53   C     C_1   0.750346 0.577415 0.499505 -0.069571
C54   C     C_1   0.250730 0.922587 0.499671 -0.082830
C55   C     C_1   0.250351 0.077415 0.499518 -0.069584
C56   C     C_R   0.849711 0.750029 0.499984 0.504519
C57   C     C_3   0.986832 0.289315 0.516562 -0.213437
C58   C     C_R   0.849714 0.249973 0.499987 0.504366
C59   C     C_R   0.349711 0.250029 0.499984 0.504516
C60   C     C_R   0.349714 0.749973 0.499987 0.504372
C61   C     C_R   0.650359 0.750049 0.499995 0.504715
C62   C     C_R   0.650363 0.249949 0.499999 0.505073
C63   C     C_R   0.150359 0.250049 0.499995 0.504728
C64   C     C_R   0.150363 0.749949 0.499999 0.505068
C65   C     C_3   0.532072 0.788777 0.521121 -0.213160
C66   C     C_3   0.530606 0.210859 0.518211 -0.213283
C67   C     C_3   0.029795 0.289328 0.516566 -0.213197
C68   C     C_3   0.984553 0.710280 0.512026 -0.213389
C69   C     C_3   0.027518 0.710264 0.512035 -0.213330
C70   C     C_3   0.482676 0.739825 0.422295 -0.213323
C71   C     C_3   0.483099 0.261621 0.423128 -0.213256
C72   C     C_3   0.983338 0.237574 0.423618 -0.213290
C73   C     C_3   0.984129 0.764594 0.425185 -0.213213
C74   C     C_3   0.439714 0.739812 0.422291 -0.213250
C75   C     C_3   0.440134 0.261637 0.423119 -0.213239
C76   C     C_3   0.940376 0.237561 0.423615 -0.213210
C77   C     C_3   0.941164 0.764610 0.425177 -0.213195
C78   C     C_3   0.587925 0.799830 0.071567 -0.426727
C79   C     C_3   0.463491 0.750013 0.499947 0.069543
C80   C     C_3   0.583116 0.195630 0.071521 -0.426731
C81   C     C_3   0.086471 0.301291 0.071562 -0.426728
C82   C     C_3   0.086419 0.698672 0.071526 -0.426765
C83   C     C_3   0.483138 0.679494 0.926366 -0.429548
C84   C     C_3   0.489523 0.318404 0.926418 -0.429002
C85   C     C_3   0.985147 0.180089 0.926367 -0.429590
C86   C     C_3   0.985214 0.819889 0.926415 -0.428969
C87   C     C_3   0.477245 0.708518 0.073530 -0.427198
C88   C     C_3   0.481306 0.296742 0.073578 -0.427181
C89   C     C_3   0.978464 0.206824 0.073537 -0.427219
C90   C     C_3   0.463494 0.249995 0.499952 0.069495
C91   C     C_3   0.978508 0.793183 0.073575 -0.427155
C92   C     C_3   0.821178 0.956556 0.701434 -0.305236
C93   C     C_3   0.819217 0.065455 0.681898 -0.323348
C94   C     C_3   0.317644 0.456560 0.699753 -0.305134
C95   C     C_3   0.316202 0.565453 0.680667 -0.323314
C96   C     C_3   0.865452 0.541645 0.568567 -0.271392
C97   C     C_3   0.835847 0.459338 0.461943 -0.309669
C98   C     C_3   0.366025 0.041640 0.570596 -0.271357
C99   C     C_3   0.337378 0.959337 0.464557 -0.309634
C100  C     C_3   0.963492 0.250013 0.499949 0.069546
C101  C     C_R   0.849662 0.249948 0.699281 0.503955
C102  C     C_3   0.963493 0.749995 0.499951 0.069500
C103  C     C_3   0.506779 0.721477 0.556436 -0.213774
C104  C     C_3   0.507840 0.277456 0.558545 -0.213757
C105  C     C_3   0.008397 0.223175 0.559671 -0.213775
C106  C     C_3   0.009897 0.775077 0.562662 -0.213750
C107  C     C_3   0.549741 0.721490 0.556439 -0.213770
C108  C     C_3   0.550804 0.277440 0.558554 -0.213728
C109  C     C_3   0.051358 0.223188 0.559674 -0.213768
C110  C     C_3   0.052861 0.775061 0.562671 -0.213722
C111  C     C_1   0.422738 0.749998 0.499949 -0.078194
C112  C     C_R   0.349658 0.250052 0.699280 0.504180
C113  C     C_1   0.422737 0.250012 0.499949 -0.078157
C114  C     C_1   0.922738 0.249997 0.499951 -0.078191
C115  C     C_1   0.922736 0.750011 0.499948 -0.078162
C116  C     C_1   0.577299 0.750044 0.499961 -0.077681
C117  C     C_1   0.577308 0.249955 0.499978 -0.077917
C118  C     C_1   0.077299 0.250044 0.499962 -0.077674
C119  C     C_1   0.077308 0.749955 0.499978 -0.077930
C120  C     C_1   0.610666 0.750047 0.499975 -0.011712
C121  C     C_1   0.610674 0.249950 0.499989 -0.012151
C122  C     C_1   0.110666 0.250047 0.499975 -0.011699
C123  C     C_R   0.349662 0.749948 0.699282 0.503978
C124  C     C_1   0.110674 0.749950 0.499989 -0.012174
C125  C     C_3   0.481354 0.743144 0.042606 -0.095773
C126  C     C_3   0.482148 0.260479 0.042623 -0.095835
C127  C     C_3   0.981568 0.241997 0.042610 -0.095767
C128  C     C_3   0.981576 0.758005 0.042622 -0.095886
C129  C     C_R   0.650416 0.750020 0.300717 0.504482
C130  C     C_R   0.650419 0.249977 0.300720 0.504549
C131  C     C_R   0.150416 0.250020 0.300717 0.504498
C132  C     C_R   0.150419 0.749977 0.300720 0.504542
C133  C     C_3   0.535041 0.787628 0.042135 -0.101083
C134  C     C_1   0.389384 0.749984 0.499962 -0.012609
C135  C     C_3   0.531516 0.211263 0.042109 -0.101017
C136  C     C_3   0.033953 0.288005 0.042133 -0.101119
C137  C     C_3   0.033915 0.711974 0.042110 -0.100992
C138  C     C_3   0.491735 0.786924 0.955882 -0.215645
C139  C     C_3   0.488270 0.211986 0.955856 -0.215787
C140  C     C_3   0.990667 0.287295 0.955880 -0.215674
C141  C     C_3   0.990626 0.712687 0.955857 -0.215749
C142  C     C_1   0.389396 0.749766 0.778504 -0.015469
C143  C     C_1   0.389401 0.250238 0.778504 -0.014753
C144  C     C_1   0.889400 0.249764 0.778503 -0.015450
C145  C     C_1   0.389381 0.250023 0.499958 -0.012561
C146  C     C_1   0.889392 0.750235 0.778503 -0.014761
C147  C     C_3   0.536846 0.749466 0.073215 0.090690
C148  C     C_3   0.536888 0.250516 0.073219 0.090719
C149  C     C_3   0.036861 0.249466 0.073215 0.090694
C150  C     C_3   0.036861 0.750517 0.073218 0.090731
C151  C     C_3   0.438777 0.742444 0.956393 -0.193016
C152  C     C_3   0.439629 0.261134 0.956410 -0.192922
C153  C     C_3   0.939009 0.241311 0.956397 -0.192998
C154  C     C_3   0.939016 0.758695 0.956410 -0.192950
C155  C     C_3   0.463676 0.748881 0.926666 0.065276
C156  C     C_1   0.889384 0.249984 0.499963 -0.012606
C157  C     C_3   0.463764 0.251099 0.926669 0.065186
C158  C     C_3   0.963705 0.248883 0.926667 0.065270
C159  C     C_3   0.963701 0.751106 0.926670 0.065186
C160  C     C_3   0.505943 0.718509 0.957629 -0.081777
C161  C     C_3   0.508710 0.278897 0.957650 -0.082009
C162  C     C_3   0.006832 0.219292 0.957628 -0.081743
C163  C     C_3   0.006858 0.780683 0.957648 -0.082089
C164  C     C_3   0.547796 0.718245 0.043808 -0.180180
C165  C     C_3   0.550596 0.279268 0.043828 -0.180267
C166  C     C_3   0.048694 0.218992 0.043807 -0.180186
C167  C     C_1   0.889381 0.750023 0.499957 -0.012570
C168  C     C_3   0.048722 0.780980 0.043827 -0.180223
C169  C     C_1   0.422801 0.749439 0.845120 -0.077460
C170  C     C_1   0.422835 0.250558 0.845121 -0.077212
C171  C     C_1   0.922813 0.249438 0.845120 -0.077436
C172  C     C_1   0.922806 0.750556 0.845121 -0.077263
C173  C     C_1   0.577620 0.749758 0.154880 -0.074739
C174  C     C_1   0.577640 0.250228 0.154883 -0.074760
C175  C     C_1   0.077628 0.249756 0.154881 -0.074760
C176  C     C_1   0.077630 0.750227 0.154884 -0.074759
C177  C     C_R   0.750055 0.650379 0.500016 0.503382
C178  C     C_3   0.536540 0.750035 0.499953 0.069310
C179  C     C_R   0.750073 0.349622 0.500036 0.505249
C180  C     C_R   0.250056 0.150379 0.500016 0.503378
C181  C     C_R   0.250073 0.849622 0.500036 0.505249
C182  C     C_1   0.610882 0.749918 0.221501 -0.020164
C183  C     C_1   0.610891 0.250073 0.221504 -0.020163
C184  C     C_1   0.110884 0.249917 0.221501 -0.020168
C185  C     C_1   0.110888 0.750072 0.221504 -0.020157
C186  C     C_3   0.790104 0.978000 0.583900 0.088526
C187  C     C_3   0.791423 0.021549 0.584595 0.077877
C188  C     C_3   0.288902 0.478001 0.583743 0.088556
H1    H     H_    0.458882 0.809835 0.481224 0.111044
H2    H     H_    0.504917 0.201846 0.573337 0.113721
H3    H     H_    0.327531 0.969585 0.615656 0.117524
H4    H     H_    0.472093 0.759993 0.380569 0.111573
H5    H     H_    0.471770 0.242245 0.379919 0.111724
H6    H     H_    0.971614 0.256490 0.379610 0.111729
H7    H     H_    0.971351 0.746968 0.379078 0.111926
H8    H     H_    0.408571 0.759975 0.380564 0.111366
H9    H     H_    0.408244 0.242268 0.379907 0.111630
H10   H     H_    0.908092 0.256471 0.379606 0.111547
H11   H     H_    0.907826 0.746992 0.379065 0.111849
H12   H     H_    0.421172 0.711986 0.405752 0.114110
H13   H     H_    0.003920 0.298925 0.571310 0.113961
H14   H     H_    0.422649 0.289753 0.408678 0.114124
H15   H     H_    0.923471 0.209300 0.410350 0.114090
H16   H     H_    0.925900 0.793205 0.415178 0.114068
H17   H     H_    0.588230 0.728242 0.612871 0.111989
H18   H     H_    0.589017 0.269638 0.614441 0.111954
H19   H     H_    0.089406 0.231576 0.615224 0.112153
H20   H     H_    0.090377 0.765095 0.617167 0.112147
H21   H     H_    0.553002 0.693330 0.542389 0.112027
H22   H     H_    0.555136 0.305842 0.546629 0.111985
H23   H     H_    0.056274 0.194666 0.548935 0.111860
H24   H     H_    0.001038 0.699119 0.565578 0.113683
H25   H     H_    0.059433 0.803843 0.555228 0.111774
H26   H     H_    0.524710 0.728224 0.612867 0.111788
H27   H     H_    0.525492 0.269662 0.614429 0.111845
H28   H     H_    0.025885 0.231558 0.615220 0.111953
H29   H     H_    0.026853 0.765119 0.617154 0.112049
H30   H     H_    0.584122 0.828122 0.051227 0.123308
H31   H     H_    0.618796 0.800794 0.132894 0.148272
H32   H     H_    0.600588 0.781085 0.052273 0.131773
H33   H     H_    0.576685 0.166877 0.051161 0.122963
H34   H     H_    0.597403 0.212264 0.052233 0.131957
H35   H     H_    0.489482 0.693311 0.542386 0.111843
H36   H     H_    0.613902 0.194648 0.132848 0.148267
H37   H     H_    0.081850 0.329751 0.051215 0.123279
H38   H     H_    0.117311 0.302259 0.132889 0.148288
H39   H     H_    0.099659 0.283187 0.052267 0.131857
H40   H     H_    0.081770 0.670210 0.051162 0.123107
H41   H     H_    0.099620 0.716767 0.052238 0.131783
H42   H     H_    0.117260 0.697703 0.132852 0.148316
H43   H     H_    0.515163 0.659952 0.948404 0.117085
H44   H     H_    0.463256 0.669131 0.942168 0.134505
H45   H     H_    0.454959 0.679345 0.865187 0.140289
H46   H     H_    0.491612 0.305865 0.546617 0.111809
H47   H     H_    0.523257 0.335946 0.948471 0.117250
H48   H     H_    0.461349 0.318336 0.865240 0.141178
H49   H     H_    0.470710 0.331257 0.942230 0.134651
H50   H     H_    0.017724 0.161158 0.948401 0.117135
H51   H     H_    0.965576 0.168938 0.942174 0.134456
H52   H     H_    0.956970 0.180012 0.865189 0.140160
H53   H     H_    0.017810 0.838809 0.948464 0.117133
H54   H     H_    0.957038 0.819967 0.865238 0.141509
H55   H     H_    0.965653 0.831052 0.942228 0.134833
H56   H     H_    0.482405 0.682699 0.055861 0.133232
H57   H     H_    0.992754 0.194647 0.548932 0.111661
H58   H     H_    0.506690 0.709307 0.134822 0.147411
H59   H     H_    0.437971 0.707596 0.052869 0.120891
H60   H     H_    0.488780 0.321178 0.055926 0.133026
H61   H     H_    0.442240 0.300302 0.052922 0.121235
H62   H     H_    0.510685 0.296060 0.134869 0.147633
H63   H     H_    0.984360 0.181420 0.055864 0.133162
H64   H     H_    0.007891 0.207583 0.134828 0.147502
H65   H     H_    0.939231 0.205075 0.052881 0.120965
H66   H     H_    0.984428 0.818583 0.055917 0.133243
H67   H     H_    0.939277 0.794945 0.052921 0.121159
H68   H     H_    0.995909 0.803866 0.555216 0.111593
H69   H     H_    0.007935 0.792422 0.134864 0.147520
H70   H     H_    0.744426 0.972770 0.607515 0.260618
H71   H     H_    0.806965 0.943081 0.723594 0.137638
H72   H     H_    0.840016 0.983227 0.730651 0.162468
H73   H     H_    0.850444 0.937986 0.712175 0.138952
H74   H     H_    0.744994 0.040888 0.602426 0.251823
H75   H     H_    0.811315 0.072164 0.715650 0.140549
H76   H     H_    0.814594 0.090969 0.653621 0.158424
H77   H     H_    0.860119 0.055310 0.719676 0.133826
H78   H     H_    0.241387 0.472784 0.604277 0.260584
H79   H     H_    0.409531 0.764550 0.935220 0.095144
H80   H     H_    0.302461 0.443090 0.720552 0.137660
H81   H     H_    0.336206 0.483228 0.729190 0.162444
H82   H     H_    0.347389 0.437984 0.711765 0.139107
H83   H     H_    0.242133 0.540907 0.599378 0.251781
H84   H     H_    0.307195 0.572170 0.713088 0.140574
H85   H     H_    0.312227 0.590965 0.652915 0.158779
H86   H     H_    0.357165 0.555295 0.719603 0.133838
H87   H     H_    0.810088 0.563425 0.462389 0.234141
H88   H     H_    0.898704 0.546338 0.574657 0.132608
H89   H     H_    0.873288 0.515673 0.597972 0.176619
H90   H     H_    0.408430 0.240825 0.935224 0.095415
H91   H     H_    0.863808 0.565450 0.594307 0.129453
H92   H     H_    0.837974 0.442024 0.541266 0.249533
H93   H     H_    0.878284 0.454027 0.498969 0.139149
H94   H     H_    0.825351 0.484641 0.429181 0.171219
H95   H     H_    0.813498 0.435442 0.423867 0.123284
H96   H     H_    0.311305 0.063424 0.464372 0.234194
H97   H     H_    0.399616 0.046330 0.577443 0.132639
H98   H     H_    0.373586 0.015668 0.599824 0.176597
H99   H     H_    0.364041 0.065446 0.595973 0.129451
H100  H     H_    0.338541 0.942021 0.542938 0.249564
H101  H     H_    0.909139 0.262874 0.935227 0.095217
H102  H     H_    0.379876 0.954017 0.502174 0.139170
H103  H     H_    0.327171 0.984643 0.431958 0.171214
H104  H     H_    0.315218 0.935445 0.426391 0.123329
H105  H     H_    0.456632 0.190564 0.476754 0.111356
H106  H     H_    0.909125 0.737140 0.935227 0.095272
H107  H     H_    0.472860 0.767142 0.060136 0.119532
H108  H     H_    0.471524 0.238153 0.060139 0.119714
H109  H     H_    0.972394 0.265493 0.060143 0.119568
H110  H     H_    0.972382 0.734515 0.060141 0.119598
H111  H     H_    0.524223 0.809277 0.060422 0.122500
H112  H     H_    0.518797 0.191524 0.060387 0.122305
H113  H     H_    0.022523 0.309071 0.060422 0.122443
H114  H     H_    0.022467 0.690916 0.060390 0.122424
H115  H     H_    0.462820 0.809241 0.935093 0.102123
H116  H     H_    0.955409 0.309185 0.474278 0.110916
H117  H     H_    0.457382 0.191454 0.935057 0.101687
H118  H     H_    0.961119 0.309070 0.935094 0.102065
H119  H     H_    0.961057 0.690921 0.935060 0.101842
H120  H     H_    0.508394 0.792883 0.933141 0.121335
H121  H     H_    0.504258 0.203495 0.933102 0.121110
H122  H     H_    0.007142 0.294052 0.933135 0.121353
H123  H     H_    0.007091 0.705919 0.933103 0.121110
H124  H     H_    0.549149 0.691050 0.065380 0.119527
H125  H     H_    0.554487 0.307208 0.065421 0.119288
H126  H     H_    0.050833 0.191538 0.065382 0.119455
H127  H     H_    0.952020 0.691654 0.467526 0.111198
H128  H     H_    0.050886 0.808438 0.065420 0.119427
H129  H     H_    0.522405 0.809854 0.481230 0.111782
H130  H     H_    0.520158 0.190541 0.476767 0.111527
H131  H     H_    0.018932 0.309204 0.474282 0.111640
H132  H     H_    0.015546 0.691630 0.467540 0.111360
H133  H     H_    0.587343 0.721645 0.065918 0.097241
H134  H     H_    0.589709 0.273283 0.065932 0.097451
H135  H     H_    0.088131 0.223207 0.065912 0.097304
H136  H     H_    0.088154 0.776753 0.065928 0.097278
H137  H     H_    0.416515 0.716022 0.934293 0.127348
H138  H     H_    0.570234 0.796777 0.576899 0.114377
H139  H     H_    0.419844 0.288470 0.934333 0.127830
H140  H     H_    0.917510 0.214577 0.934299 0.127350
H141  H     H_    0.917543 0.785434 0.934331 0.127854
H142  H     H_    0.526102 0.726030 0.940601 0.125147
H143  H     H_    0.528054 0.268791 0.940611 0.125377
H144  H     H_    0.026762 0.227632 0.940594 0.125207
H145  H     H_    0.026779 0.772329 0.940608 0.125197
H146  H     H_    0.831318 0.029505 0.610703 0.103577
H147  H     H_    0.829713 0.967994 0.611722 0.101739
H148  H     H_    0.330491 0.529502 0.612009 0.103563
H149  H     H_    0.568444 0.201823 0.573351 0.113877
H150  H     H_    0.328810 0.467991 0.612932 0.101736
H151  H     H_    0.742224 0.968232 0.408464 0.125798
H152  H     H_    0.740846 0.031610 0.407587 0.127121
H153  H     H_    0.244449 0.468228 0.410495 0.125833
H154  H     H_    0.243040 0.531607 0.409552 0.127172
H155  H     H_    0.808801 0.968565 0.496845 0.105030
H156  H     H_    0.807870 0.032052 0.494884 0.106311
H157  H     H_    0.310417 0.468568 0.500043 0.104942
H158  H     H_    0.309502 0.532054 0.498058 0.106227
H159  H     H_    0.680273 0.967920 0.480835 0.117366
H160  H     H_    0.067442 0.298944 0.571315 0.114395
H161  H     H_    0.680643 0.031632 0.482006 0.104846
H162  H     H_    0.178930 0.467917 0.477597 0.117294
H163  H     H_    0.179290 0.531628 0.478782 0.104765
H164  H     H_    0.667993 0.968742 0.399942 0.110226
H165  H     H_    0.668040 0.031743 0.401034 0.113357
H166  H     H_    0.168490 0.468745 0.398238 0.110281
H167  H     H_    0.168504 0.531746 0.399314 0.113408
H168  H     H_    0.484694 0.712005 0.405757 0.114109
H169  H     H_    0.486175 0.289729 0.408691 0.114162
H170  H     H_    0.986992 0.209319 0.410354 0.114097
H171  H     H_    0.064564 0.699096 0.565592 0.113841
H172  H     H_    0.989426 0.793181 0.415191 0.114115
H173  H     H_    0.773467 0.467129 0.604231 0.109527
H174  H     H_    0.765829 0.529803 0.597955 0.107419
H175  H     H_    0.272450 0.967128 0.603507 0.109515
H176  H     H_    0.264791 0.029802 0.597113 0.107417
H177  H     H_    0.668348 0.531679 0.393466 0.107213
H178  H     H_    0.669127 0.468148 0.393885 0.108663
H179  H     H_    0.168661 0.031679 0.392761 0.107178
H180  H     H_    0.169443 0.968148 0.393197 0.108639
H181  H     H_    0.678518 0.531517 0.472791 0.124550
H182  H     H_    0.506711 0.796759 0.576893 0.113974
H183  H     H_    0.679449 0.468113 0.473525 0.128271
H184  H     H_    0.177963 0.031518 0.471340 0.124581
H185  H     H_    0.178898 0.968114 0.472095 0.128305
H186  H     H_    0.738952 0.528602 0.404485 0.074293
H187  H     H_    0.744619 0.467822 0.408376 0.096962
H188  H     H_    0.240007 0.028603 0.405411 0.074272
H189  H     H_    0.245689 0.967823 0.409390 0.096944
H190  H     H_    0.824047 0.533152 0.619857 0.108391
H191  H     H_    0.828009 0.469585 0.615156 0.117554
H192  H     H_    0.323459 0.033153 0.620201 0.108352
N1    N     N_2   0.777607 0.962632 0.622786 -0.497160
N2    N     N_2   0.783036 0.037244 0.628275 -0.518302
N3    N     N_2   0.275031 0.462638 0.620906 -0.497159
N4    N     N_2   0.280483 0.537250 0.626553 -0.518368
N5    N     N_2   0.817529 0.539543 0.490652 -0.499017
N6    N     N_2   0.824672 0.463966 0.505930 -0.500996
N7    N     N_2   0.318482 0.039542 0.492462 -0.499004
N8    N     N_2   0.325517 0.963964 0.507715 -0.500989
O1    O     O_3   0.750040 0.750040 0.500000 -0.430165
O2    O     O_R   0.750020 0.167970 0.542980 -0.541604
O3    O     O_R   0.250020 0.332030 0.542980 -0.533805
O4    O     O_R   0.250020 0.667970 0.542980 -0.541760
O5    O     O_R   0.853500 0.728560 0.663950 -0.539365
O6    O     O_R   0.853500 0.271440 0.663950 -0.538603
O7    O     O_R   0.353500 0.228560 0.663950 -0.539382
O8    O     O_R   0.353500 0.771440 0.663950 -0.538586
O9    O     O_R   0.689570 0.771520 0.336050 -0.539340
O10   O     O_R   0.689570 0.228480 0.336050 -0.539261
O11   O     O_R   0.189570 0.271520 0.336050 -0.539328
O12   O     O_3   0.750040 0.249960 0.500000 -0.429407
O13   O     O_R   0.189570 0.728480 0.336050 -0.539281
O14   O     O_R   0.810510 0.771550 0.663950 -0.538410
O15   O     O_R   0.810510 0.228450 0.663950 -0.540347
O16   O     O_R   0.310510 0.271550 0.663950 -0.538408
O17   O     O_R   0.310510 0.728450 0.663950 -0.540395
O18   O     O_R   0.646590 0.728530 0.336050 -0.539622
O19   O     O_R   0.646590 0.271470 0.336050 -0.539588
O20   O     O_R   0.146590 0.228530 0.336050 -0.539632
O21   O     O_R   0.146590 0.771470 0.336050 -0.539560
O22   O     O_R   0.793040 0.668060 0.542980 -0.539890
O23   O     O_3   0.250040 0.250040 0.500000 -0.430166
O24   O     O_R   0.793040 0.331940 0.542980 -0.539779
O25   O     O_R   0.293040 0.168060 0.542980 -0.539896
O26   O     O_R   0.293040 0.831940 0.542980 -0.539790
O27   O     O_R   0.750030 0.832020 0.457020 -0.541776
O28   O     O_R   0.750030 0.167980 0.457020 -0.538071
O29   O     O_R   0.250030 0.332020 0.457020 -0.541783
O30   O     O_R   0.250030 0.667980 0.457020 -0.538000
O31   O     O_R   0.853520 0.728540 0.542980 -0.539194
O32   O     O_R   0.853520 0.271460 0.542980 -0.538977
O33   O     O_R   0.353520 0.228540 0.542980 -0.539196
O34   O     O_3   0.250040 0.749960 0.500000 -0.429392
O35   O     O_R   0.353520 0.771460 0.542980 -0.538976
O36   O     O_R   0.689540 0.771550 0.542990 -0.538030
O37   O     O_R   0.689540 0.228450 0.542990 -0.538456
O38   O     O_R   0.189540 0.271550 0.542990 -0.538008
O39   O     O_R   0.189540 0.728450 0.542990 -0.538475
O40   O     O_R   0.810530 0.771520 0.457010 -0.538770
O41   O     O_R   0.810530 0.228480 0.457010 -0.538938
O42   O     O_R   0.310530 0.271520 0.457010 -0.538762
O43   O     O_R   0.310530 0.728480 0.457010 -0.538947
O44   O     O_R   0.646570 0.728550 0.457020 -0.539120
O45   O     O_R   0.707070 0.668050 0.457020 -0.538677
O46   O     O_R   0.646570 0.271450 0.457020 -0.538721
O47   O     O_R   0.146570 0.228550 0.457020 -0.539117
O48   O     O_R   0.146570 0.771450 0.457020 -0.538734
O49   O     O_R   0.707070 0.331950 0.457020 -0.538455
O50   O     O_R   0.207070 0.168050 0.457020 -0.538679
O51   O     O_R   0.207070 0.831950 0.457020 -0.538433
O52   O     O_R   0.750020 0.832030 0.542980 -0.533828
Zn1   Zn    Zn3+2 0.688630 0.719330 0.438590 0.934898
Zn2   Zn    Zn3+2 0.750040 0.219260 0.438590 0.934978
Zn3   Zn    Zn3+2 0.250040 0.280740 0.438590 0.934452
Zn4   Zn    Zn3+2 0.250040 0.719260 0.438590 0.935013
Zn5   Zn    Zn3+2 0.750030 0.780760 0.561410 0.939136
Zn6   Zn    Zn3+2 0.750030 0.219240 0.561410 0.932772
Zn7   Zn    Zn3+2 0.250030 0.280760 0.561410 0.939144
Zn8   Zn    Zn3+2 0.250030 0.719240 0.561410 0.932662
Zn9   Zn    Zn3+2 0.688630 0.280670 0.438590 0.935650
Zn10  Zn    Zn3+2 0.188630 0.219330 0.438590 0.934903
Zn11  Zn    Zn3+2 0.188630 0.780670 0.438590 0.935668
Zn12  Zn    Zn3+2 0.811460 0.719330 0.561410 0.933979
Zn13  Zn    Zn3+2 0.811460 0.280670 0.561410 0.934896
Zn14  Zn    Zn3+2 0.311460 0.219330 0.561410 0.933949
Zn15  Zn    Zn3+2 0.311460 0.780670 0.561410 0.934909
Zn16  Zn    Zn3+2 0.750040 0.780740 0.438590 0.934444

loop_
_geom_bond_atom_site_label_1
_geom_bond_atom_site_label_2
_ccdc_geom_bond_type
C116  C178  S    
C32   C45   S    
C19   C20   S    
O28   Zn2   S    
C136  C140  S    
O7    Zn14  S    
C70   H4    S    
C33   H180  S    
O12   Zn2   S    
C135  C139  S    
C50   N8    S    
C35   H182  S    
C14   C21   S    
C24   C69   S    
C57   C67   S    
C147  C164  S    
C72   H6    S    
C58   O41   A    
C65   C178  S    
C9    C39   S    
C166  H135  S    
C186  N1    S    
C138  H115  S    
O34   Zn15  S    
C36   C53   T    
C75   C90   S    
C103  H35   S    
C80   H33   S    
C165  H125  S    
C38   C55   T    
C152  H139  S    
C70   C74   S    
O51   Zn11  S    
C101  O6    A    
C46   H105  S    
C151  C155  S    
C4    C12   S    
O49   Zn9   S    
C128  C154  S    
O22   Zn12  S    
C187  N2    S    
C85   C162  S    
C5    H156  S    
C34   C179  S    
C72   H170  S    
O37   Zn6   S    
C114  C156  T    
C125  H107  S    
C75   H14   S    
C126  H108  S    
C15   C20   S    
O10   Zn2   S    
C159  C172  S    
C84   H47   S    
C24   C110  S    
C108  H18   S    
C180  O25   A    
C60   O43   A    
C136  H113  S    
C29   H175  S    
O12   Zn9   S    
C26   H190  S    
C64   C124  S    
C94   H81   S    
C82   H40   S    
C148  C174  S    
C149  C175  S    
C98   N7    S    
C33   H185  S    
C41   O29   A    
C78   H31   S    
C18   H164  S    
C131  C184  S    
C155  C169  S    
C86   H54   S    
C37   C181  S    
O26   Zn15  S    
C137  H114  S    
C90   C104  S    
O48   Zn11  S    
C99   N8    S    
C46   C90   S    
C128  C150  S    
C82   H41   S    
C74   H12   S    
C173  C182  T    
C74   C79   S    
C33   C47   S    
C30   C43   S    
C129  O9    A    
C27   H173  S    
C2    C71   S    
C77   H16   S    
C60   C134  S    
H100  N8    S    
C81   C136  S    
C89   C127  S    
C152  C157  S    
C154  H106  S    
O11   Zn3   S    
C43   C49   S    
C4    C5    S    
C59   O33   A    
C108  H22   S    
C87   H59   S    
C6    C7    S    
C13   C72   S    
C76   C100  S    
C2    C117  S    
O2    Zn6   S    
C71   H169  S    
C56   O40   A    
C14   C187  S    
C48   N6    S    
C1    O14   A    
C91   H67   S    
C186  H147  S    
C2    C108  S    
C70   H168  S    
C48   H187  S    
O34   Zn8   S    
C107  H17   S    
C106  H29   S    
C139  C157  S    
C83   H44   S    
C73   C77   S    
O52   Zn5   S    
C103  C107  S    
C86   C163  S    
C8    C40   S    
C186  C187  S    
C109  H23   S    
C161  C165  S    
C84   C161  S    
C44   C48   S    
C140  H118  S    
C89   H64   S    
C84   H49   S    
C41   O3    A    
O18   Zn1   S    
C13   C118  S    
C95   H84   S    
C144  C171  T    
C95   H86   S    
O4    Zn8   S    
O8    Zn15  S    
C130  C183  S    
C16   C19   S    
C179  O24   A    
C15   C25   S    
C11   C25   T    
C12   C22   S    
C177  O22   A    
C85   H50   S    
C118  C122  T    
C153  C158  S    
C62   O37   A    
C13   C109  S    
C125  C151  S    
C39   O27   A    
O43   Zn4   S    
C126  C152  S    
C27   C44   S    
C141  C159  S    
C83   H45   S    
C29   H3    S    
C133  C147  S    
O9    Zn16  S    
C57   H116  S    
C138  H120  S    
C44   C52   S    
C104  H46   S    
C66   H149  S    
C14   C17   S    
C79   C103  S    
C4    H151  S    
C47   C50   S    
C160  H142  S    
O46   Zn9   S    
C67   H131  S    
O41   Zn2   S    
C71   C75   S    
C81   H38   S    
O13   Zn4   S    
C106  H68   S    
C58   C156  S    
C100  C114  S    
O34   Zn11  S    
C153  H101  S    
C68   C69   S    
C166  H126  S    
C161  H143  S    
C116  C120  T    
C123  O17   A    
C97   H93   S    
C88   H60   S    
C77   H11   S    
C56   O31   A    
C58   O32   A    
C17   C18   S    
C103  H26   S    
C105  H57   S    
O23   Zn7   S    
C18   H159  S    
C59   C145  S    
C187  H146  S    
O27   Zn16  S    
C16   C23   S    
C64   O48   A    
C137  C150  S    
C99   H104  S    
C6    H157  S    
C63   C122  S    
C63   O47   A    
C98   H99   S    
C42   O4    A    
C105  C109  S    
C164  H133  S    
O17   Zn8   S    
C27   H191  S    
C163  H145  S    
C73   H172  S    
C143  C170  T    
C2    C66   S    
C132  C185  S    
C111  C134  T    
C164  H124  S    
O1    Zn16  S    
C15   C188  S    
O20   Zn10  S    
H96   N7    S    
C61   O36   A    
C163  C168  S    
C154  C159  S    
C127  C149  S    
C112  O7    A    
C87   H56   S    
C50   H189  S    
C83   H43   S    
C96   H88   S    
C56   C167  S    
C35   C79   S    
C180  O50   A    
O39   Zn8   S    
C181  O51   A    
C80   H34   S    
C129  O18   A    
C45   C55   S    
C57   H13   S    
C51   N7    S    
C49   N5    S    
C123  O8    A    
C188  N3    S    
C3    C16   S    
H78   N3    S    
C88   H61   S    
C68   H24   S    
C138  C155  S    
H87   N5    S    
C129  C182  S    
C76   H10   S    
C148  C165  S    
C10   C42   S    
C49   H186  S    
C92   H71   S    
C136  C149  S    
C76   H15   S    
O1    Zn5   S    
C176  C185  T    
C26   C27   S    
O34   Zn4   S    
C96   H89   S    
C160  C164  S    
C112  C143  S    
C28   C29   S    
C84   H48   S    
C68   C102  S    
C46   C66   S    
C97   H95   S    
C13   C67   S    
C30   C31   S    
C101  C144  S    
C24   C73   S    
C71   H5    S    
C93   H77   S    
C35   C65   S    
O15   Zn6   S    
C94   H82   S    
C131  O11   A    
C19   H163  S    
C113  C145  T    
C109  H19   S    
C102  C115  S    
C78   H32   S    
C162  C166  S    
C43   C53   S    
C140  H122  S    
C83   C160  S    
C162  H144  S    
C86   H55   S    
C141  H123  S    
C62   O46   A    
O50   Zn10  S    
C99   H102  S    
C92   H73   S    
C98   H97   S    
C93   H76   S    
O16   Zn7   S    
C82   H42   S    
C133  C138  S    
C35   H1    S    
C105  H28   S    
C77   C102  S    
C28   H176  S    
C67   H160  S    
C65   H129  S    
C132  O21   A    
C75   H9    S    
C38   C180  S    
C91   C128  S    
C149  C166  S    
C154  H141  S    
C125  C147  S    
C126  C148  S    
C188  H150  S    
O38   Zn7   S    
C68   H127  S    
C179  O49   A    
C91   H69   S    
C157  C170  S    
C80   H36   S    
C139  H121  S    
C12   C186  S    
C92   N1    S    
C50   C51   S    
C20   H166  S    
C4    H155  S    
C94   N3    S    
C80   C135  S    
C5    C14   S    
C6    H153  S    
C152  H90   S    
C142  C169  T    
C132  O13   A    
C151  H79   S    
C48   C49   S    
C29   C47   S    
C73   H7    S    
C157  C161  S    
C104  C108  S    
O32   Zn13  S    
C137  C141  S    
C93   N2    S    
C24   C119  S    
C89   H63   S    
C96   H91   S    
C95   N4    S    
C104  H27   S    
C174  C183  T    
C147  C173  S    
C107  H21   S    
C94   H80   S    
C34   C52   T    
C95   H85   S    
C32   C33   S    
C85   H52   S    
O23   Zn3   S    
O33   Zn14  S    
C78   H30   S    
O12   Zn6   S    
O31   Zn12  S    
C86   H53   S    
C123  C142  S    
C69   H171  S    
C158  C171  S    
C78   C133  S    
C60   O35   A    
C30   H177  S    
C51   H188  S    
C17   H161  S    
O23   Zn10  S    
O35   Zn15  S    
C3    N4    S    
C110  H20   S    
C97   H94   S    
C175  C184  T    
C150  C176  S    
C146  C172  T    
O24   Zn13  S    
C72   C76   S    
C3    C188  S    
C127  C153  S    
C181  O26   A    
C1    O5    A    
O44   Zn1   S    
C119  C124  T    
C32   H184  S    
C100  C105  S    
C81   H37   S    
C69   H132  S    
C82   C137  S    
C177  O45   A    
O1    Zn12  S    
C9    C22   T    
C127  H109  S    
C45   C51   S    
C165  H134  S    
O45   Zn1   S    
O25   Zn14  S    
C168  H136  S    
C90   C113  S    
C117  C121  T    
C101  O15   A    
C20   H162  S    
C6    C15   S    
O12   Zn13  S    
C88   C126  S    
C42   O30   A    
O14   Zn5   S    
O40   Zn16  S    
C151  H137  S    
O1    Zn1   S    
C140  C158  S    
C64   O39   A    
O5    Zn12  S    
C150  C168  S    
C89   H65   S    
C1    C146  S    
C46   H2    S    
C99   H103  S    
C92   H72   S    
C31   H178  S    
C40   O28   A    
C26   C43   S    
C130  O10   A    
C74   H8    S    
C28   C45   S    
C31   C44   S    
C110  H25   S    
H74   N2    S    
C70   C178  S    
C141  H119  S    
C57   C100  S    
C17   H165  S    
O36   Zn5   S    
C96   N5    S    
C85   H51   S    
C30   H181  S    
O6    Zn13  S    
C32   H179  S    
H92   N6    S    
O42   Zn3   S    
O21   Zn11  S    
C59   O42   A    
C26   H174  S    
C28   H192  S    
C8    C21   T    
C133  H111  S    
O23   Zn14  S    
O3    Zn7   S    
C168  H128  S    
C37   C54   T    
C66   H130  S    
C130  O19   A    
H83   N4    S    
C47   C54   S    
C107  C178  S    
C61   C120  S    
C159  C163  S    
C7    H154  S    
C115  C167  T    
C65   H138  S    
C87   C125  S    
C87   H58   S    
C88   H62   S    
C106  C110  S    
C7    C16   S    
C19   H167  S    
C81   H39   S    
C155  C160  S    
C36   C177  S    
C97   N6    S    
C128  H110  S    
C139  H117  S    
C91   H66   S    
C10   C23   T    
C39   O52   A    
C79   C111  S    
O19   Zn9   S    
O29   Zn3   S    
C153  H140  S    
C135  H112  S    
O30   Zn4   S    
C131  O20   A    
C61   O44   A    
C3    H148  S    
C31   H183  S    
C11   C41   S    
C158  C162  S    
H70   N1    S    
C112  O16   A    
C135  C148  S    
C102  C106  S    
C12   C18   S    
C5    H152  S    
C63   O38   A    
C7    H158  S    
C40   O2    A    
C62   C121  S    
C98   H98   S    
C93   H75   S    
O47   Zn10  S    
