data_mof_unit_17200.cif
_audit_creation_date              2012-12-10T18:55:23-0500
_audit_creation_method            fapswitch 2.2
_symmetry_space_group_name_H-M    P1
_symmetry_Int_Tables_number       1
_space_group_crystal_system       triclinic
_cell_length_a                    10.713109
_cell_length_b                    9.965935
_cell_length_c                    27.561239
_cell_angle_alpha                 90.063171
_cell_angle_beta                  90.596569
_cell_angle_gamma                 90.222405
_cell_volume                      2942.42372553

loop_
_atom_site_label
_atom_site_type_symbol
_atom_type_description
_atom_site_fract_x
_atom_site_fract_y
_atom_site_fract_z
_atom_type_partial_charge
Br1   Br    Br    0.337049 0.272810 0.647647 -0.475987
Br2   Br    Br    0.673281 0.286328 0.351901 -0.478671
Br3   Br    Br    0.394391 0.271428 0.766765 -0.410368
Br4   Br    Br    0.624625 0.292235 0.231965 -0.401971
C1    C     C_R   0.260257 0.499878 0.500309 0.858118
C2    C     C_R   0.398561 0.576672 0.870003 -0.012157
C3    C     C_R   0.487996 0.500437 0.353470 -0.181049
C4    C     C_R   0.509399 0.500946 0.646823 -0.187426
C5    C     C_R   0.380929 0.566417 0.971569 0.059680
C6    C     C_R   0.595149 0.608596 0.029223 0.065438
C7    C     C_R   0.609642 0.589496 0.978506 -0.010997
C8    C     C_R   0.374129 0.540663 0.021908 0.004050
C9    C     C_R   0.499644 0.576341 0.949762 0.033299
C10   C     C_R   0.480332 0.571712 0.050884 0.035527
C11   C     C_R   0.273757 0.583637 0.942258 -0.185913
C12   C     C_R   0.739700 0.500228 0.499997 0.866260
C13   C     C_R   0.689532 0.664138 0.059180 -0.184433
C14   C     C_R   0.282467 0.590224 0.892116 -0.132671
C15   C     C_R   0.678761 0.664295 0.109314 -0.136172
C16   C     C_R   0.499642 0.499803 0.406167 0.944964
C17   C     C_R   0.500030 0.499891 0.593912 0.946769
C18   C     C_R   0.267615 0.482074 0.044369 0.179488
C19   C     C_R   0.727705 0.577260 0.955323 0.196390
C20   C     C_R   0.063044 0.380456 0.491736 -0.172753
C21   C     C_R   0.936634 0.620022 0.509844 -0.189607
C22   C     C_R   0.935301 0.380947 0.490918 -0.164543
C23   C     C_R   0.472617 0.564495 0.101869 -0.056892
C24   C     C_R   0.064633 0.619791 0.510061 -0.180526
C25   C     C_R   0.872318 0.500558 0.500162 -0.010568
C26   C     C_R   0.127553 0.499949 0.500831 -0.006623
C27   C     C_R   0.538479 0.072538 0.539973 0.183664
C28   C     C_R   0.475262 0.929375 0.458365 0.157328
C29   C     C_R   0.462981 0.072004 0.459839 0.178720
C30   C     C_R   0.524969 0.929834 0.541580 0.152978
C31   C     C_R   0.364503 0.493949 0.174140 0.596830
C32   C     C_R   0.628301 0.532678 0.826558 0.599950
C33   C     C_R   0.565224 0.597466 0.181371 0.571350
C34   C     C_R   0.507613 0.570177 0.898809 -0.058825
C35   C     C_R   0.408551 0.567981 0.819639 0.569643
C36   C     C_R   0.539013 0.416356 0.273564 0.261467
C37   C     C_R   0.463246 0.410587 0.726356 0.270170
C38   C     C_R   0.553837 0.409606 0.324115 0.200217
C39   C     C_R   0.449514 0.403978 0.675751 0.202366
C40   C     C_R   0.408543 0.595604 0.332403 -0.338744
C41   C     C_R   0.580199 0.603220 0.668593 -0.333835
C42   C     C_R   0.396679 0.605380 0.282274 0.217105
C43   C     C_R   0.586624 0.615916 0.718810 0.218152
C44   C     C_R   0.463206 0.516657 0.252872 0.166782
C45   C     C_R   0.365555 0.510622 0.123716 -0.066012
C46   C     C_R   0.526720 0.520158 0.747788 0.150426
C47   C     C_3   0.726401 0.146667 0.580628 -0.742142
C48   C     C_3   0.583935 0.864048 0.386726 -0.682070
C49   C     C_3   0.278175 0.149856 0.417101 -0.729869
C50   C     C_3   0.410388 0.866239 0.611926 -0.685371
C51   C     C_3   0.192327 0.699198 0.267398 -0.680807
C52   C     C_3   0.774055 0.751921 0.729066 -0.662559
C53   C     C_3   0.198376 0.292076 0.996700 -0.728278
C54   C     C_3   0.929701 0.676164 0.972382 -0.826348
C55   C     C_R   0.623958 0.553869 0.876738 -0.078540
C56   C     C_R   0.264591 0.469328 0.094843 -0.196740
C57   C     C_R   0.732479 0.554880 0.905198 -0.182625
C58   C     C_R   0.573082 0.609250 0.131018 -0.013472
H1    H     H_    0.357020 0.664417 0.355017 0.186453
H2    H     H_    0.888504 0.713040 0.517416 0.158610
H3    H     H_    0.886399 0.288191 0.482760 0.162533
H4    H     H_    0.113859 0.712779 0.517663 0.158357
H5    H     H_    0.555419 0.117933 0.613257 0.250024
H6    H     H_    0.764584 0.046171 0.589611 0.205991
H7    H     H_    0.759331 0.219684 0.608439 0.251369
H8    H     H_    0.762641 0.178052 0.544857 0.251456
H9    H     H_    0.392295 0.891739 0.391642 0.206898
H10   H     H_    0.613646 0.968149 0.378224 0.239077
H11   H     H_    0.572559 0.808344 0.352092 0.246232
H12   H     H_    0.627744 0.676075 0.646335 0.190869
H13   H     H_    0.658498 0.814798 0.408584 0.255557
H14   H     H_    0.452849 0.120847 0.386297 0.248988
H15   H     H_    0.241233 0.084049 0.387683 0.216474
H16   H     H_    0.250583 0.254810 0.409114 0.254067
H17   H     H_    0.235029 0.118446 0.451829 0.221372
H18   H     H_    0.602621 0.892694 0.609268 0.201133
H19   H     H_    0.381283 0.970765 0.619731 0.245357
H20   H     H_    0.418407 0.811687 0.646854 0.242765
H21   H     H_    0.337108 0.816443 0.589352 0.251613
H22   H     H_    0.358578 0.804485 0.271180 0.237412
H23   H     H_    0.183618 0.423205 0.111284 0.195025
H24   H     H_    0.158250 0.599963 0.254483 0.291531
H25   H     H_    0.167760 0.712118 0.306192 0.219288
H26   H     H_    0.144593 0.778328 0.245895 0.245772
H27   H     H_    0.591252 0.816254 0.736325 0.237272
H28   H     H_    0.813724 0.829527 0.753756 0.246643
H29   H     H_    0.783900 0.787584 0.691127 0.204178
H30   H     H_    0.828017 0.657916 0.734115 0.285887
H31   H     H_    0.083665 0.422297 0.033977 0.228819
H32   H     H_    0.119095 0.256431 0.973774 0.240540
H33   H     H_    0.214769 0.218446 0.026329 0.242484
H34   H     H_    0.822376 0.538795 0.888556 0.197238
H35   H     H_    0.282620 0.298251 0.973642 0.260159
H36   H     H_    0.881699 0.475981 0.980851 0.237933
H37   H     H_    0.004655 0.675190 0.000474 0.244816
H38   H     H_    0.883278 0.775654 0.973604 0.257084
H39   H     H_    0.971947 0.662161 0.936108 0.241582
H40   H     H_    0.197522 0.600749 0.870810 0.192892
H41   H     H_    0.754715 0.705502 0.130971 0.195195
H42   H     H_    0.182705 0.595401 0.957726 0.174845
H43   H     H_    0.770345 0.713367 0.044688 0.189236
H44   H     H_    0.110670 0.287133 0.484875 0.157346
N1    N     N_R   0.463652 0.536971 0.201627 -0.328462
N2    N     N_2   0.643916 0.730569 0.740506 -0.294921
N3    N     N_2   0.168842 0.422129 0.016834 -0.330616
N4    N     N_2   0.841246 0.569622 0.982319 -0.316902
N5    N     N_R   0.521408 0.540433 0.799147 -0.331152
N6    N     N_R   0.500000 0.857200 0.500000 -0.121887
N7    N     N_R   0.500000 0.142800 0.500000 -0.115739
N8    N     N_2   0.591439 0.143139 0.579992 -0.246626
N9    N     N_2   0.467220 0.863213 0.412937 -0.274116
N10   N     N_2   0.412993 0.141855 0.419261 -0.249231
N11   N     N_2   0.529077 0.864399 0.587124 -0.276384
N12   N     N_2   0.325831 0.710931 0.261121 -0.303258
O1    O     O_R   0.316770 0.614620 0.500000 -0.629715
O2    O     O_2   0.737824 0.503255 0.805375 -0.550256
O3    O     O_2   0.306168 0.584203 0.791298 -0.529768
O4    O     O_2   0.659104 0.643570 0.209971 -0.537614
O5    O     O_R   0.683230 0.385380 0.500000 -0.613993
O6    O     O_R   0.683230 0.614620 0.500000 -0.628815
O7    O     O_R   0.316770 0.385380 0.500000 -0.604702
O8    O     O_R   0.500030 0.614650 0.428760 -0.593332
O9    O     O_R   0.499970 0.385350 0.571240 -0.560212
O10   O     O_R   0.499970 0.614650 0.571240 -0.595975
O11   O     O_R   0.500030 0.385350 0.428760 -0.566467
O12   O     O_2   0.266570 0.433409 0.195499 -0.555828
Zn1   Zn    Zn3+2 0.500000 0.653120 0.500000 0.970154
Zn2   Zn    Zn3+2 0.500000 0.346880 0.500000 1.015880

loop_
_geom_bond_atom_site_label_1
_geom_bond_atom_site_label_2
_ccdc_geom_bond_type
C11   C14   A    
H36   N4    S    
N7    Zn2   S    
O5    Zn2   S    
C30   N6    A    
C24   H4    S    
C4    C39   A    
C16   O11   A    
C48   H13   S    
C33   C58   A    
C57   H34   S    
C21   C24   A    
C45   C56   A    
C1    O1    A    
C49   H17   S    
H5    N8    S    
C20   C22   A    
C33   N1    A    
C18   C56   A    
C44   N1    S    
C15   C58   A    
C8    C18   A    
C42   N12   S    
C14   H40   S    
C3    C38   A    
C7    C19   A    
C51   H26   S    
C5    C9    A    
C4    C41   A    
C52   N2    S    
H14   N10   S    
O9    Zn2   S    
C15   H41   S    
Br1   C39   S    
C52   H29   S    
C53   N3    S    
Br4   C36   S    
C31   C45   A    
O1    Zn1   S    
C2    C34   A    
C47   H8    S    
C11   H42   S    
C17   O9    A    
C27   N8    S    
C49   N10   S    
O11   Zn2   S    
C32   C55   A    
C30   N11   S    
C35   N5    A    
C28   N9    S    
C37   C39   A    
C50   H21   S    
C40   C42   A    
C43   C46   A    
C41   C43   A    
C40   H1    S    
C21   C25   A    
C2    C14   A    
C42   C44   A    
C55   C57   A    
C47   N8    S    
C54   H38   S    
C48   H11   S    
C6    C10   A    
C12   C25   S    
C33   O4    S    
O6    Zn1   S    
C41   H12   S    
C21   H2    S    
C49   H15   S    
C16   O8    A    
C48   H10   S    
C23   C58   A    
C13   H43   S    
C52   H30   S    
C18   N3    S    
C53   H35   S    
C32   N5    A    
C4    C17   S    
C27   C30   A    
H9    N9    S    
C54   H39   S    
C3    C40   A    
C17   O10   A    
C31   O12   S    
C9    C34   A    
C8    C10   A    
C3    C16   S    
C53   H32   S    
C10   C23   A    
C20   H44   S    
O10   Zn1   S    
C37   C46   A    
C50   H20   S    
C1    C26   S    
C48   N9    S    
C36   C44   A    
C19   N4    S    
H18   N11   S    
Br3   C37   S    
C29   N10   S    
C28   N6    A    
C54   N4    S    
C22   H3    S    
C12   O5    A    
C54   H37   S    
C36   C38   A    
C56   H23   S    
C47   H7    S    
C29   N7    A    
C35   O3    S    
C28   C29   A    
C51   H24   S    
C24   C26   A    
C49   H16   S    
C5    C11   A    
C7    C9    A    
O7    Zn2   S    
O8    Zn1   S    
Br2   C38   S    
H27   N2    S    
C52   H28   S    
C46   N5    S    
C13   C15   A    
C47   H6    S    
N6    Zn1   S    
C51   H25   S    
C32   O2    S    
C5    C8    A    
C20   C26   A    
C31   N1    A    
C6    C7    A    
C34   C55   A    
C19   C57   A    
C22   C25   A    
H22   N12   S    
C43   N2    S    
C53   H33   S    
C50   N11   S    
C1    O7    A    
C2    C35   A    
C6    C13   A    
C12   O6    A    
C27   N7    A    
C50   H19   S    
C23   C45   A    
H31   N3    S    
C51   N12   S    
