data_mof_unit_37611.cif
_audit_creation_date              2012-10-26T21:08:06-0400
_audit_creation_method            fapswitch 2.2
_symmetry_space_group_name_H-M    P1
_symmetry_Int_Tables_number       1
_space_group_crystal_system       triclinic
_cell_length_a                    15.876462
_cell_length_b                    10.810151
_cell_length_c                    9.705231
_cell_angle_alpha                 91.393838
_cell_angle_beta                  91.086765
_cell_angle_gamma                 94.017819
_cell_volume                      1660.73696064

loop_
_atom_site_label
_atom_site_type_symbol
_atom_type_description
_atom_site_fract_x
_atom_site_fract_y
_atom_site_fract_z
_atom_type_partial_charge
C1    C     C_R   0.502515 0.262079 0.497814 0.604832
C2    C     C_R   0.590499 0.070260 0.841572 -0.178123
C3    C     C_R   0.535902 0.968343 0.874009 0.017451
C4    C     C_R   0.340352 0.499435 0.498879 0.515787
C5    C     C_R   0.489814 0.901512 0.767119 0.291248
C6    C     C_R   0.498377 0.941829 0.629228 -0.090528
C7    C     C_R   0.530703 0.063615 0.609549 -0.026839
C8    C     C_R   0.503251 0.125598 0.492469 0.025906
C9    C     C_R   0.461037 0.056654 0.382406 0.253438
C10   C     C_R   0.446290 0.927255 0.391826 0.231848
C11   C     C_R   0.474003 0.868493 0.510486 -0.070433
C12   C     C_3   0.084232 0.499958 0.498662 0.039123
C13   C     C_R   0.620431 0.672450 0.134700 0.291449
C14   C     C_R   0.669848 0.750956 0.045818 0.171746
C15   C     C_R   0.678918 0.713510 0.908929 -0.027262
C16   C     C_R   0.490565 0.735827 0.502449 0.554838
C17   C     C_R   0.641784 0.597999 0.868825 0.047463
C18   C     C_R   0.564988 0.561090 0.929361 0.121898
C19   C     C_R   0.560645 0.576021 0.075906 0.181163
C20   C     C_R   0.438359 0.435287 0.070187 0.094377
C21   C     C_R   0.438606 0.435468 0.921900 0.139146
C22   C     C_R   0.659566 0.499777 0.501081 0.595226
C23   C     C_3   0.977614 0.584448 0.592787 0.191493
C24   C     C_3   0.967423 0.387679 0.534925 0.187386
C25   C     C_3   0.022031 0.414975 0.408319 0.197814
C26   C     C_1   0.250942 0.499686 0.496827 0.076246
C27   C     C_1   0.748887 0.499349 0.503058 0.057111
C28   C     C_3   0.028948 0.472659 0.625342 0.192248
C29   C     C_2   0.526607 0.936805 0.020461 0.282110
C30   C     C_2   0.368411 0.366565 0.140860 0.287453
C31   C     C_2   0.735815 0.785300 0.815954 0.278322
C32   C     C_2   0.704278 0.502118 0.857121 0.274161
C33   C     C_2   0.377655 0.350384 0.843245 0.329849
C34   C     C_3   0.915488 0.499454 0.502406 0.037938
C35   C     C_3   0.032251 0.611767 0.466191 0.195611
C36   C     C_3   0.970740 0.526777 0.375777 0.197575
C37   C     C_1   0.175591 0.499891 0.496973 0.117547
C38   C     C_1   0.824196 0.499282 0.503425 0.092153
C39   C     C_R   0.588526 0.118702 0.708797 0.264857
Cu1   Cu    Cu3+1 0.499990 0.499990 0.640660 1.067017
Cu2   Cu    Cu3+1 0.500010 0.500010 0.359340 1.065460
H1    H     H_    0.631144 0.116194 0.920997 0.146947
H2    H     H_    0.765750 0.524878 0.813522 0.154573
H3    H     H_    0.397555 0.263694 0.800968 0.090822
H4    H     H_    0.981680 0.220094 0.585270 0.367190
H5    H     H_    0.989870 0.566919 0.187248 0.368632
H6    H     H_    0.017843 0.779379 0.416141 0.367872
H7    H     H_    0.006988 0.711241 0.730044 0.364144
H8    H     H_    0.009680 0.432731 0.813873 0.362093
H9    H     H_    0.405297 0.059047 0.200120 0.384152
H10   H     H_    0.692366 0.221146 0.739901 0.369231
H11   H     H_    0.992352 0.288173 0.271229 0.364646
H12   H     H_    0.558079 0.996150 0.100312 0.116289
H13   H     H_    0.386730 0.798149 0.726060 0.330484
H14   H     H_    0.371854 0.786070 0.327668 0.344838
H15   H     H_    0.380125 0.316592 0.232490 0.194354
H16   H     H_    0.691327 0.721928 0.293563 0.335183
H17   H     H_    0.685457 0.890711 0.176359 0.347577
H18   H     H_    0.771814 0.868777 0.853401 0.188705
N1    N     N_R   0.500800 0.501210 0.147910 -0.258534
N2    N     N_R   0.500830 0.501290 0.852040 -0.249550
O1    O     O_R   0.499990 0.319640 0.618810 -0.505910
O2    O     O_2   0.484335 0.844361 0.054149 -0.392069
O3    O     O_3   0.429517 0.809637 0.801892 -0.597494
O4    O     O_3   0.399606 0.862123 0.288851 -0.623660
O5    O     O_2   0.295237 0.370250 0.101304 -0.419852
O6    O     O_3   0.631240 0.695115 0.272936 -0.636385
O7    O     O_3   0.712721 0.860243 0.092357 -0.718679
O8    O     O_2   0.741996 0.753039 0.695337 -0.500699
O9    O     O_2   0.688890 0.398281 0.901046 -0.521611
O10   O     O_2   0.304392 0.375544 0.827202 -0.402265
O11   O     O_3   0.932748 0.270773 0.570923 -0.653307
O12   O     O_R   0.500000 0.319660 0.381240 -0.491932
O13   O     O_3   0.939490 0.555028 0.245512 -0.655250
O14   O     O_3   0.066821 0.728733 0.430217 -0.649939
O15   O     O_3   0.953477 0.672756 0.689124 -0.649427
O16   O     O_3   0.060101 0.444408 0.755659 -0.617912
O17   O     O_3   0.434160 0.117936 0.268150 -0.721603
O18   O     O_3   0.645069 0.214201 0.671525 -0.650671
O19   O     O_R   0.379070 0.499980 0.618770 -0.477701
O20   O     O_R   0.379080 0.500000 0.381190 -0.533411
O21   O     O_R   0.500000 0.680340 0.618760 -0.475004
O22   O     O_R   0.500010 0.680360 0.381190 -0.406609
O23   O     O_R   0.620920 0.500000 0.618810 -0.477921
O24   O     O_R   0.620930 0.500020 0.381230 -0.456723
O25   O     O_3   0.045953 0.326565 0.311938 -0.629721

loop_
_geom_bond_atom_site_label_1
_geom_bond_atom_site_label_2
_ccdc_geom_bond_type
C29   O2    D    
C1    C8    S    
H7    O15   S    
C35   C36   S    
C23   O15   S    
C1    O1    A    
C7    C8    A    
C20   C30   S    
C35   O14   S    
H13   O3    S    
C12   C28   S    
C4    O19   A    
C5    C6    A    
C21   C33   S    
C27   C38   T    
Cu2   O22   S    
Cu1   O1    S    
C18   C19   A    
C22   O24   A    
C31   H18   S    
C12   C37   S    
C3    C29   S    
Cu1   O23   S    
C2    C39   A    
C4    O20   A    
C8    C9    A    
Cu1   O19   S    
C20   N1    A    
C9    C10   A    
C21   N2    A    
C13   C14   A    
H4    O11   S    
H16   O6    S    
H9    O17   S    
H14   O4    S    
C13   C19   A    
Cu1   O21   S    
C24   C25   S    
C6    C11   A    
C32   O9    D    
C30   H15   S    
C16   O22   A    
C24   C34   S    
Cu1   N2    S    
C5    O3    S    
C39   O18   S    
C11   C16   S    
C23   C34   S    
Cu2   O20   S    
C16   O21   A    
C17   C18   A    
C26   C37   T    
C23   C28   S    
C12   C35   S    
C28   O16   S    
C30   O5    D    
C36   O13   S    
H17   O7    S    
Cu1   Cu2   S    
C23   C35   S    
C22   C27   S    
H5    O13   S    
C24   O11   S    
C13   O6    S    
C10   O4    S    
C15   C17   A    
C14   O7    S    
C34   C38   S    
C33   H3    S    
C24   C28   S    
Cu2   N1    S    
C3    C5    A    
C4    C26   S    
C18   N2    A    
C15   C31   S    
C6    C7    A    
C19   N1    A    
Cu2   O24   S    
C12   C25   S    
C1    O12   A    
H11   O25   S    
C2    C3    A    
H6    O14   S    
C29   H12   S    
C2    H1    S    
C25   O25   S    
C32   H2    S    
H8    O16   S    
C34   C36   S    
C9    O17   S    
H10   O18   S    
C10   C11   A    
C33   O10   D    
C25   C36   S    
Cu2   O12   S    
C31   O8    D    
C20   C21   A    
C17   C32   S    
C7    C39   A    
C14   C15   A    
C22   O23   A    
