data_mof_unit_13067.cif
_audit_creation_date              2012-10-26T17:10:26-0400
_audit_creation_method            fapswitch 2.2
_symmetry_space_group_name_H-M    P1
_symmetry_Int_Tables_number       1
_space_group_crystal_system       triclinic
_cell_length_a                    16.845927
_cell_length_b                    16.845864
_cell_length_c                    16.84579
_cell_angle_alpha                 67.657819
_cell_angle_beta                  67.657862
_cell_angle_gamma                 67.655848
_cell_volume                      3931.52137057

loop_
_atom_site_label
_atom_site_type_symbol
_atom_type_description
_atom_site_fract_x
_atom_site_fract_y
_atom_site_fract_z
_atom_type_partial_charge
Br1   Br    Br    0.458936 0.198268 0.530008 -0.375345
Br2   Br    Br    0.582734 0.653112 0.824281 -0.310592
Br3   Br    Br    0.175648 0.417228 0.346928 -0.310513
Br4   Br    Br    0.824294 0.582790 0.653086 -0.310508
Br5   Br    Br    0.541076 0.801835 0.469930 -0.375430
Br6   Br    Br    0.198223 0.529821 0.459150 -0.375334
Br7   Br    Br    0.801719 0.470196 0.540865 -0.375333
Br8   Br    Br    0.529894 0.459126 0.198201 -0.375515
Br9   Br    Br    0.470114 0.540897 0.801742 -0.375448
Br10  Br    Br    0.346714 0.175670 0.417434 -0.310639
Br11  Br    Br    0.653274 0.824406 0.582542 -0.310676
Br12  Br    Br    0.417276 0.346909 0.175663 -0.310629
C1    C     C_R   0.597234 0.019958 0.597254 0.042897
C2    C     C_R   0.170839 0.434080 0.974292 0.555904
C3    C     C_R   0.565921 0.025704 0.829161 0.555889
C4    C     C_R   0.434078 0.974300 0.170839 0.555918
C5    C     C_R   0.434322 0.170820 0.974184 0.570813
C6    C     C_R   0.565680 0.829179 0.025811 0.570827
C7    C     C_R   0.974182 0.434325 0.170820 0.570719
C8    C     C_R   0.025813 0.565677 0.829180 0.570788
C9    C     C_R   0.170821 0.974183 0.434323 0.570798
C10   C     C_R   0.829180 0.025817 0.565677 0.570778
C11   C     C_R   0.547324 0.009521 0.547701 -0.041814
C12   C     C_R   0.402746 0.980116 0.402726 0.042896
C13   C     C_R   0.452660 0.990555 0.452275 -0.041795
C14   C     C_R   0.009449 0.547728 0.547336 -0.041818
C15   C     C_R   0.990491 0.452293 0.452677 -0.041822
C16   C     C_R   0.547737 0.547336 0.009435 -0.041799
C17   C     C_R   0.452283 0.452677 0.990507 -0.041806
C18   C     C_R   0.565251 0.926097 0.534140 0.167681
C19   C     C_R   0.434737 0.073980 0.465834 0.167667
C20   C     C_R   0.926007 0.534272 0.565167 0.167688
C21   C     C_R   0.073934 0.465748 0.434846 0.167683
C22   C     C_R   0.534246 0.565180 0.926002 0.167668
C23   C     C_R   0.019886 0.597278 0.597250 0.042904
C24   C     C_R   0.465771 0.434835 0.073940 0.167665
C25   C     C_R   0.517982 0.916637 0.486524 0.161329
C26   C     C_R   0.482010 0.083448 0.513441 0.161323
C27   C     C_R   0.486623 0.517909 0.916556 0.161311
C28   C     C_R   0.513394 0.482106 0.083385 0.161311
C29   C     C_R   0.916545 0.486658 0.517895 0.161313
C30   C     C_R   0.083395 0.513362 0.482118 0.161313
C31   C     C_R   0.557502 0.022993 0.685922 -0.083630
C32   C     C_R   0.442474 0.977091 0.314053 -0.083608
C33   C     C_R   0.022929 0.685943 0.557518 -0.083617
C34   C     C_R   0.980057 0.402741 0.402763 0.042919
C35   C     C_R   0.977033 0.314071 0.442490 -0.083633
C36   C     C_R   0.685951 0.557516 0.022918 -0.083642
C37   C     C_R   0.314061 0.442492 0.977045 -0.083628
C38   C     C_R   0.314246 0.976800 0.442966 -0.098001
C39   C     C_R   0.685743 0.023247 0.557024 -0.097971
C40   C     C_R   0.442962 0.314250 0.976791 -0.097986
C41   C     C_R   0.557056 0.685761 0.023155 -0.098006
C42   C     C_R   0.976752 0.442978 0.314259 -0.097989
C43   C     C_R   0.023192 0.557041 0.685753 -0.097991
C44   C     C_R   0.603485 0.036004 0.732462 0.005114
C45   C     C_R   0.597291 0.597254 0.019859 0.042895
C46   C     C_R   0.396511 0.964021 0.267533 0.005173
C47   C     C_R   0.035985 0.732465 0.603487 0.005147
C48   C     C_R   0.964011 0.267536 0.396509 0.005096
C49   C     C_R   0.732465 0.603479 0.035996 0.005169
C50   C     C_R   0.267536 0.396518 0.963999 0.005148
C51   C     C_R   0.267480 0.964026 0.397179 0.016669
C52   C     C_R   0.732520 0.035990 0.602819 0.016663
C53   C     C_R   0.397178 0.267481 0.964021 0.016678
C54   C     C_R   0.602828 0.732520 0.035959 0.016681
C55   C     C_R   0.964010 0.397183 0.267479 0.016652
C56   C     C_R   0.402728 0.402759 0.980085 0.042902
C57   C     C_R   0.035970 0.602822 0.732521 0.016670
C58   C     C_R   0.688022 0.051877 0.686933 0.116768
C59   C     C_R   0.311992 0.948110 0.313078 0.116770
C60   C     C_R   0.051886 0.686922 0.688013 0.116774
C61   C     C_R   0.948128 0.313069 0.311975 0.116780
C62   C     C_R   0.686913 0.687998 0.051909 0.116764
C63   C     C_R   0.313078 0.311991 0.948103 0.116765
C64   C     C_3   0.687128 0.178173 0.724499 -0.250492
C65   C     C_3   0.313110 0.821688 0.275560 -0.250804
C66   C     C_3   0.178279 0.724444 0.686956 -0.250738
C67   C     C_R   0.025702 0.829160 0.565922 0.555898
C68   C     C_3   0.821824 0.275521 0.312867 -0.250504
C69   C     C_3   0.724408 0.686767 0.178399 -0.250956
C70   C     C_3   0.275553 0.313068 0.821700 -0.250745
C71   C     C_R   0.974301 0.170839 0.434076 0.555867
C72   C     C_R   0.829160 0.565918 0.025711 0.555865
Cu1   Cu    Cu3+1 0.995180 0.995180 0.424630 0.956798
Cu2   Cu    Cu3+1 0.004820 0.004820 0.575370 0.956778
Cu3   Cu    Cu3+1 0.995180 0.424630 0.995180 0.956748
Cu4   Cu    Cu3+1 0.004820 0.575370 0.004820 0.956749
Cu5   Cu    Cu3+1 0.424630 0.995180 0.995180 0.956774
Cu6   Cu    Cu3+1 0.575370 0.004820 0.004820 0.956774
H1    H     H_    0.491115 0.013975 0.718564 0.157768
H2    H     H_    0.490503 0.718145 0.014521 0.153938
H3    H     H_    0.985354 0.509543 0.281887 0.153917
H4    H     H_    0.014573 0.490483 0.718131 0.153926
H5    H     H_    0.751902 0.042982 0.776764 0.280642
H6    H     H_    0.619163 0.186436 0.771648 0.157224
H7    H     H_    0.682837 0.221538 0.656594 0.178032
H8    H     H_    0.728335 0.199714 0.746191 0.159899
H9    H     H_    0.248129 0.956797 0.223332 0.280637
H10   H     H_    0.380795 0.813655 0.227884 0.157279
H11   H     H_    0.271626 0.799840 0.254535 0.160246
H12   H     H_    0.508849 0.986147 0.281395 0.157780
H13   H     H_    0.318092 0.778403 0.343301 0.177993
H14   H     H_    0.043151 0.776688 0.751879 0.280641
H15   H     H_    0.200064 0.745601 0.728394 0.160178
H16   H     H_    0.186353 0.772024 0.619212 0.157245
H17   H     H_    0.221588 0.656662 0.682110 0.178007
H18   H     H_    0.957012 0.223234 0.248104 0.280647
H19   H     H_    0.800284 0.253805 0.271683 0.159902
H20   H     H_    0.778468 0.343431 0.317126 0.178030
H21   H     H_    0.813550 0.228398 0.380845 0.157174
H22   H     H_    0.776601 0.751860 0.043338 0.280632
H23   H     H_    0.013896 0.718592 0.491136 0.157769
H24   H     H_    0.744946 0.728492 0.200454 0.160531
H25   H     H_    0.772497 0.619273 0.186257 0.157288
H26   H     H_    0.656761 0.681284 0.221643 0.177996
H27   H     H_    0.223323 0.248123 0.956820 0.280638
H28   H     H_    0.254493 0.271584 0.799877 0.160252
H29   H     H_    0.343311 0.318010 0.778401 0.178023
H30   H     H_    0.227894 0.380775 0.813655 0.157257
H31   H     H_    0.986060 0.281424 0.508875 0.157761
H32   H     H_    0.718603 0.491134 0.013886 0.157768
H33   H     H_    0.281413 0.508877 0.986070 0.157765
H34   H     H_    0.281870 0.985410 0.509528 0.153947
H35   H     H_    0.718117 0.014635 0.490462 0.153953
H36   H     H_    0.509522 0.281872 0.985410 0.153928
N1    N     N_2   0.728358 0.085985 0.722893 -0.497272
N2    N     N_2   0.271719 0.913858 0.277193 -0.497307
N3    N     N_2   0.086105 0.722820 0.728305 -0.497283
N4    N     N_2   0.914015 0.277112 0.271640 -0.497262
N5    N     N_2   0.722747 0.728244 0.086243 -0.497318
N6    N     N_2   0.277187 0.271703 0.913872 -0.497296
O1    O     O_R   0.124540 0.978640 0.385460 -0.477687
O2    O     O_R   0.124540 0.385460 0.978640 -0.517741
O3    O     O_R   0.021360 0.875460 0.614540 -0.517746
O4    O     O_R   0.978640 0.124540 0.385460 -0.517709
O5    O     O_R   0.013780 0.867370 0.487190 -0.506431
O6    O     O_R   0.986220 0.132630 0.512810 -0.506445
O7    O     O_R   0.867370 0.487190 0.013780 -0.506453
O8    O     O_R   0.132630 0.512810 0.986220 -0.506428
O9    O     O_R   0.487190 0.013780 0.867370 -0.506433
O10   O     O_R   0.512810 0.986220 0.132630 -0.506429
O11   O     O_R   0.512810 0.132630 0.986220 -0.522412
O12   O     O_R   0.875460 0.021360 0.614540 -0.477656
O13   O     O_R   0.487190 0.867370 0.013780 -0.522453
O14   O     O_R   0.986220 0.512810 0.132630 -0.522481
O15   O     O_R   0.013780 0.487190 0.867370 -0.522446
O16   O     O_R   0.132630 0.986220 0.512810 -0.522427
O17   O     O_R   0.867370 0.013780 0.487190 -0.522382
O18   O     O_R   0.978640 0.385460 0.124540 -0.477627
O19   O     O_R   0.021360 0.614540 0.875460 -0.477648
O20   O     O_R   0.385460 0.124540 0.978640 -0.477674
O21   O     O_R   0.614540 0.875460 0.021360 -0.477696
O22   O     O_R   0.614540 0.021360 0.875460 -0.517716
O23   O     O_R   0.385460 0.978640 0.124540 -0.517751
O24   O     O_R   0.875460 0.614540 0.021360 -0.517780

loop_
_geom_bond_atom_site_label_1
_geom_bond_atom_site_label_2
_ccdc_geom_bond_type
C58   N1    S    
C13   C19   A    
Cu3   Cu4   S    
C14   C20   A    
C37   C56   A    
Br5   C25   S    
Cu5   O23   S    
C65   H11   S    
C70   H30   S    
C6    O13   A    
Cu2   O12   S    
C36   C45   A    
Cu1   Cu2   S    
C15   C21   A    
Cu5   O13   S    
C17   C24   A    
Cu3   O15   S    
C66   H15   S    
C21   C30   A    
Cu4   O24   S    
C66   N3    S    
C61   N4    S    
C36   H32   S    
C48   C71   S    
C46   C59   A    
C69   N5    S    
Br3   C21   S    
C64   H8    S    
C2    C50   S    
C48   C61   A    
Br9   C27   S    
C7    O18   A    
C1    C11   S    
C65   H10   S    
C51   C59   A    
H27   N6    S    
C15   C29   A    
Cu4   O8    S    
C3    O22   A    
C59   N2    S    
C13   C25   A    
C35   C48   A    
C1    C39   A    
Br10  C19   S    
Cu5   O20   S    
Br11  C18   S    
C32   C46   A    
C42   H3    S    
Cu3   O18   S    
C69   H24   S    
C20   C29   A    
C7    C55   S    
C55   C61   A    
C52   C58   A    
Br12  C24   S    
H18   N4    S    
Cu6   O11   S    
C40   C56   A    
Cu4   O14   S    
C47   C60   A    
Br2   C22   S    
C10   O17   A    
C16   C22   A    
C3    O9    A    
C62   N5    S    
C38   C51   A    
Cu3   O2    S    
C34   C42   A    
C70   H29   S    
C41   H2    S    
C43   H4    S    
C9    O1    A    
C12   C38   A    
C7    O14   A    
C68   N4    S    
C23   C43   A    
C22   C27   A    
C39   H35   S    
C9    O16   A    
C60   N3    S    
C38   H34   S    
C12   C13   S    
C72   O7    A    
C47   C67   S    
C40   H36   S    
C4    C46   S    
C42   C55   A    
C2    O2    A    
C64   H7    S    
C16   C45   S    
C69   H26   S    
C31   H1    S    
C18   C25   A    
C66   H17   S    
C32   H12   S    
C68   H19   S    
C57   C60   A    
C4    O10   A    
C11   C18   A    
H5    N1    S    
C17   C56   S    
C14   C23   S    
C24   C28   A    
C69   H25   S    
C4    O23   A    
C8    O15   A    
Br4   C20   S    
Cu6   O21   S    
C41   C54   A    
C6    O21   A    
C71   O4    A    
Cu6   O10   S    
C65   N2    S    
Br1   C26   S    
C15   C34   S    
C67   O5    A    
C2    O8    A    
C44   C58   A    
H14   N3    S    
C12   C32   A    
Cu4   O19   S    
C50   C63   A    
C65   H13   S    
C5    O20   A    
Cu6   O22   S    
C70   H28   S    
C70   N6    S    
C23   C33   A    
Cu1   O5    S    
C1    C31   A    
C63   N6    S    
C14   C30   A    
C17   C27   A    
C34   C35   A    
C33   C47   A    
C41   C45   A    
C37   C50   A    
C39   C52   A    
Cu3   O7    S    
C49   C72   S    
Cu2   O16   S    
C19   C26   A    
H9    N2    S    
C49   C62   A    
C6    C54   S    
C11   C26   A    
C67   O3    A    
C5    C53   S    
C53   C63   A    
C8    O19   A    
C5    O11   A    
C66   H16   S    
C3    C44   S    
C43   C57   A    
C64   H6    S    
C72   O24   A    
C36   C49   A    
Cu5   O9    S    
C68   H21   S    
C54   C62   A    
Br7   C29   S    
H22   N5    S    
C8    C57   S    
Cu1   O17   S    
C9    C51   S    
C35   H31   S    
Cu2   O6    S    
Cu1   O4    S    
C10   C52   S    
C33   H23   S    
C31   C44   A    
Br6   C30   S    
C68   H20   S    
C64   N1    S    
C16   C28   A    
Br8   C28   S    
Cu5   Cu6   S    
C10   O12   A    
Cu2   O3    S    
C71   O6    A    
C40   C53   A    
Cu1   O1    S    
C37   H33   S    
