data_mof_unit_36847.cif
_audit_creation_date              2012-12-10T19:40:46-0500
_audit_creation_method            fapswitch 2.2
_symmetry_space_group_name_H-M    P1
_symmetry_Int_Tables_number       1
_space_group_crystal_system       triclinic
_cell_length_a                    18.39901
_cell_length_b                    18.333003
_cell_length_c                    18.404924
_cell_angle_alpha                 119.962556
_cell_angle_beta                  119.936695
_cell_angle_gamma                 90.102934
_cell_volume                      4392.55890723

loop_
_atom_site_label
_atom_site_type_symbol
_atom_type_description
_atom_site_fract_x
_atom_site_fract_y
_atom_site_fract_z
_atom_type_partial_charge
C1    C     C_R   0.360319 0.140659 0.499156 0.824207
C2    C     C_3   0.772074 0.832906 0.420286 0.548732
C3    C     C_R   0.217601 0.754698 0.418594 0.112768
C4    C     C_R   0.639343 0.859412 0.499445 0.896985
C5    C     C_R   0.305343 0.807218 0.504709 -0.205990
C6    C     C_R   0.339801 0.800824 0.588826 0.164851
C7    C     C_R   0.285968 0.742728 0.584146 -0.235559
C8    C     C_R   0.196764 0.694689 0.500008 -0.107601
C9    C     C_R   0.164105 0.699869 0.416851 0.049663
C10   C     C_3   0.084505 0.723426 0.367486 -0.502948
C11   C     C_3   0.142902 0.784338 0.369782 0.332538
C12   C     C_2   0.306167 0.815814 0.112859 -0.297721
C13   C     C_R   0.218392 0.164525 0.467304 0.102930
C14   C     C_R   0.306453 0.198795 0.503838 -0.136580
C15   C     C_R   0.342121 0.291400 0.551054 0.151806
C16   C     C_R   0.641020 0.140010 0.501044 0.835469
C17   C     C_R   0.287271 0.343631 0.552409 -0.256681
C18   C     C_R   0.196718 0.305429 0.504903 -0.113571
C19   C     C_R   0.164431 0.216708 0.467355 0.147024
C20   C     C_3   0.084671 0.141767 0.365864 -0.489054
C21   C     C_3   0.143677 0.083959 0.365838 -0.477753
C22   C     C_R   0.732065 0.286802 0.948910 0.112111
C23   C     C_R   0.738575 0.790318 0.454139 -0.000669
C24   C     C_R   0.696063 0.194202 0.890002 -0.152808
C25   C     C_R   0.717809 0.154716 0.944063 -0.295652
C26   C     C_R   0.774231 0.207264 0.052612 0.465660
C27   C     C_R   0.807002 0.302249 0.109612 -0.167474
C28   C     C_R   0.360191 0.862409 0.502716 0.853426
C29   C     C_R   0.784563 0.337553 0.052832 -0.029633
C30   C     C_3   0.795673 0.422912 0.062652 -0.506328
C31   C     C_3   0.736309 0.365413 0.943731 0.536674
C32   C     C_R   0.737771 0.287078 0.577154 0.019008
C33   C     C_R   0.703750 0.194648 0.507361 -0.147393
C34   C     C_R   0.689684 0.798463 0.494436 -0.210306
C35   C     C_R   0.734123 0.154687 0.445004 -0.342801
C36   C     C_R   0.785560 0.207089 0.440861 0.453042
C37   C     C_R   0.812507 0.301735 0.506224 -0.168933
C38   C     C_R   0.793559 0.339584 0.579366 -0.009492
C39   C     C_3   0.759755 0.415898 0.611819 -0.485330
C40   C     C_R   0.639026 0.139011 0.777874 0.856327
C41   C     C_3   0.696301 0.357296 0.607063 0.364590
C42   C     C_R   0.140050 0.640259 0.500360 0.829251
C43   C     C_R   0.860779 0.359326 0.500411 0.835612
C44   C     C_R   0.858090 0.637801 0.497856 0.872425
C45   C     C_R   0.688923 0.743069 0.527315 0.405727
C46   C     C_R   0.139961 0.359905 0.500132 0.819087
C47   C     C_R   0.861530 0.360497 0.222017 0.829633
C48   C     C_R   0.138775 0.637352 0.777279 0.869909
C49   C     C_R   0.361555 0.862622 0.223072 0.882282
C50   C     C_2   0.280948 0.726974 0.945535 0.437571
C51   C     C_2   0.194153 0.677637 0.887008 -0.098999
C52   C     C_2   0.336172 0.770005 0.056794 -0.229796
C53   C     C_3   0.389388 0.718373 0.914668 0.124062
C54   C     C_3   0.474325 0.799097 0.988056 -0.355693
C55   C     C_3   0.554739 0.769935 0.998829 -0.935089
C56   C     C_R   0.737671 0.683150 0.519236 0.063843
C57   C     C_3   0.075039 0.807052 0.240313 0.146365
C58   C     C_3   0.980135 0.790301 0.213108 -0.393410
C59   C     C_3   0.932349 0.842028 0.170967 -0.944056
C60   C     C_3   0.868341 0.141980 0.118575 0.133495
C61   C     C_3   0.843565 0.043527 0.035673 -0.402439
C62   C     C_3   0.923276 0.011081 0.064568 -0.959412
C63   C     C_3   0.646608 0.441352 0.883747 0.149440
C64   C     C_3   0.697269 0.536635 0.982725 -0.401217
C65   C     C_3   0.679329 0.606186 0.959296 -0.895394
C66   C     C_3   0.735381 0.128765 0.271934 0.101559
C67   C     C_R   0.796038 0.686763 0.491102 -0.165829
C68   C     C_3   0.743998 0.046953 0.196735 -0.329897
C69   C     C_3   0.665523 0.005007 0.085740 -0.910871
C70   C     C_3   0.572922 0.286679 0.430192 0.131545
C71   C     C_3   0.499143 0.315461 0.374242 -0.306065
C72   C     C_3   0.461424 0.261752 0.260352 -0.959052
C73   C     C_3   0.684271 0.788161 0.664922 0.117307
C74   C     C_3   0.629792 0.760405 0.693548 -0.262779
C75   C     C_3   0.675521 0.817869 0.809410 -0.958390
C76   C     C_3   0.841323 0.973814 0.469539 0.130398
C77   C     C_3   0.912288 0.950468 0.449023 -0.419958
C78   C     C_R   0.790551 0.738577 0.454657 -0.018598
C79   C     C_3   0.943185 0.012862 0.430416 -0.903312
C80   C     C_3   0.834475 0.775436 0.424739 -0.097527
H1    H     H_    0.312373 0.739954 0.649791 0.196203
H2    H     H_    0.690775 0.083068 0.902656 0.196594
H3    H     H_    0.764419 0.464484 0.098908 0.241194
H4    H     H_    0.865752 0.457648 0.098229 0.199592
H5    H     H_    0.713395 0.082662 0.393997 0.187958
H6    H     H_    0.403903 0.769259 0.093693 0.182961
H7    H     H_    0.811221 0.474683 0.691208 0.210225
H8    H     H_    0.727093 0.431144 0.554201 0.230631
H9    H     H_    0.711735 0.384118 0.684123 0.145340
H10   H     H_    0.239987 0.820538 0.077291 0.169780
H11   H     H_    0.905574 0.815588 0.489239 0.144614
H12   H     H_    0.030755 0.665088 0.288917 0.238302
H13   H     H_    0.377528 0.678889 0.837986 0.177835
H14   H     H_    0.398663 0.673087 0.940181 0.119578
H15   H     H_    0.465748 0.840711 0.958391 0.239794
H16   H     H_    0.486926 0.840670 0.064987 0.231945
H17   H     H_    0.563567 0.726698 0.026438 0.288523
H18   H     H_    0.615763 0.829547 0.055294 0.277236
H19   H     H_    0.545944 0.732714 0.923804 0.265026
H20   H     H_    0.070934 0.789550 0.170918 0.184967
H21   H     H_    0.115787 0.879093 0.299892 0.117490
H22   H     H_    0.941529 0.717745 0.154628 0.251138
H23   H     H_    0.062614 0.760477 0.418185 0.178775
H24   H     H_    0.982446 0.811653 0.282544 0.224581
H25   H     H_    0.968961 0.914929 0.228869 0.260202
H26   H     H_    0.864313 0.828710 0.152503 0.275945
H27   H     H_    0.926821 0.820849 0.099845 0.271767
H28   H     H_    0.903838 0.152082 0.194232 0.179533
H29   H     H_    0.916360 0.185130 0.123913 0.107052
H30   H     H_    0.790288 0.002098 0.024970 0.249283
H31   H     H_    0.818327 0.034464 0.961872 0.215360
H32   H     H_    0.979208 0.053545 0.079843 0.267048
H33   H     H_    0.904030 0.941142 0.000379 0.271155
H34   H     H_    0.156458 0.857075 0.422662 0.056344
H35   H     H_    0.945354 0.012731 0.133771 0.268763
H36   H     H_    0.575316 0.434950 0.840543 0.194802
H37   H     H_    0.667276 0.430081 0.832786 0.171844
H38   H     H_    0.675895 0.545151 0.032474 0.264457
H39   H     H_    0.769999 0.548782 0.024765 0.237691
H40   H     H_    0.701824 0.600233 0.911252 0.271830
H41   H     H_    0.716288 0.674237 0.032225 0.281102
H42   H     H_    0.607160 0.597045 0.918156 0.266323
H43   H     H_    0.734852 0.179965 0.256078 0.179138
H44   H     H_    0.670047 0.107513 0.257720 0.111227
H45   H     H_    0.314630 0.413319 0.585230 0.196005
H46   H     H_    0.806946 0.066572 0.206263 0.236967
H47   H     H_    0.746289 0.996473 0.213856 0.212567
H48   H     H_    0.602091 0.983964 0.074578 0.260620
H49   H     H_    0.673081 0.945212 0.033161 0.262868
H50   H     H_    0.662618 0.053369 0.065702 0.305097
H51   H     H_    0.544527 0.214995 0.395409 0.133673
H52   H     H_    0.624950 0.294212 0.417928 0.118805
H53   H     H_    0.444687 0.305683 0.382439 0.242965
H54   H     H_    0.526202 0.387591 0.409465 0.250195
H55   H     H_    0.514417 0.272090 0.250329 0.268219
H56   H     H_    0.031918 0.121681 0.371867 0.215968
H57   H     H_    0.407920 0.284106 0.221959 0.280027
H58   H     H_    0.432933 0.189458 0.223279 0.261467
H59   H     H_    0.699933 0.861082 0.700263 0.162549
H60   H     H_    0.748268 0.775110 0.697811 0.132636
H61   H     H_    0.563157 0.766796 0.655481 0.261515
H62   H     H_    0.620333 0.689246 0.665483 0.238715
H63   H     H_    0.742817 0.813281 0.849274 0.264361
H64   H     H_    0.635400 0.794372 0.827631 0.281161
H65   H     H_    0.681311 0.888558 0.837702 0.273161
H66   H     H_    0.868991 0.045647 0.533919 0.178803
H67   H     H_    0.061818 0.153371 0.305251 0.202438
H68   H     H_    0.781930 0.967838 0.403359 0.160729
H69   H     H_    0.970498 0.955875 0.515934 0.230658
H70   H     H_    0.884552 0.881133 0.379813 0.245278
H71   H     H_    0.886246 0.007312 0.362604 0.275651
H72   H     H_    0.994128 0.994198 0.415567 0.255360
H73   H     H_    0.973044 0.083186 0.498736 0.275419
H74   H     H_    0.125284 0.031350 0.372992 0.194338
H75   H     H_    0.154016 0.060856 0.304236 0.213629
I1    I     I_    0.660437 0.795599 0.270016 -0.380340
I2    I     I_    0.464541 0.886382 0.734028 -0.412426
I3    I     I_    0.472178 0.359766 0.609709 -0.358143
I4    I     I_    0.134341 0.631461 0.937668 -0.351840
I5    I     I_    0.805539 0.358808 0.874908 -0.429316
I6    I     I_    0.709142 0.581152 0.535188 -0.374785
I7    I     I_    0.817067 0.675113 0.283393 -0.415646
O1    O     O_3   0.500000 0.000000 0.500000 -0.506268
O2    O     O_R   0.055460 0.323770 0.439940 -0.649149
O3    O     O_R   0.885490 0.446080 0.270840 -0.622680
O4    O     O_R   0.323800 0.055370 0.439900 -0.659259
O5    O     O_R   0.175320 0.614550 0.729170 -0.620178
O6    O     O_R   0.885490 0.324650 0.270840 -0.628467
O7    O     O_R   0.053870 0.614540 0.729150 -0.622144
O8    O     O_R   0.883910 0.615420 0.560060 -0.623980
O9    O     O_R   0.176240 0.444580 0.560100 -0.650153
O10   O     O_R   0.055460 0.616070 0.439920 -0.632237
O11   O     O_R   0.884570 0.323750 0.439920 -0.606914
O12   O     O_R   0.616140 0.055410 0.439930 -0.651648
O13   O     O_R   0.616140 0.884540 0.439940 -0.613858
O14   O     O_R   0.615480 0.176200 0.560080 -0.609411
O15   O     O_R   0.444590 0.883880 0.560080 -0.603858
O16   O     O_R   0.614550 0.175310 0.729160 -0.604189
O17   O     O_R   0.324730 0.885400 0.270830 -0.637204
O18   O     O_R   0.614550 0.053870 0.729160 -0.650500
O19   O     O_R   0.446170 0.885420 0.270850 -0.635306
O20   O     O_3   0.315483 0.747542 0.903265 -0.629634
O21   O     O_3   0.116783 0.752683 0.269770 -0.594061
O22   O     O_3   0.790649 0.165151 0.101326 -0.637977
O23   O     O_R   0.323800 0.884510 0.439910 -0.639686
O24   O     O_3   0.650818 0.374528 0.902069 -0.618479
O25   O     O_3   0.809498 0.164881 0.373502 -0.622390
O26   O     O_3   0.604170 0.337642 0.534963 -0.588446
O27   O     O_3   0.633414 0.740090 0.556620 -0.599132
O28   O     O_3   0.819077 0.925322 0.500305 -0.661695
O29   O     O_R   0.444590 0.176180 0.560060 -0.600458
O30   O     O_R   0.615480 0.883900 0.560100 -0.632039
O31   O     O_3   0.000040 0.499960 0.500000 -0.503043
O32   O     O_R   0.176240 0.615450 0.560090 -0.647501
O33   O     O_R   0.883910 0.444550 0.560070 -0.621318
O34   O     O_R   0.884570 0.616050 0.439900 -0.611820
Zn1   Zn    Zn3+2 0.543850 0.957090 0.414170 0.992752
Zn2   Zn    Zn3+2 0.542910 0.129670 0.585830 1.025794
Zn3   Zn    Zn3+2 0.542910 0.956180 0.585840 1.000807
Zn4   Zn    Zn3+2 0.370330 0.957070 0.414150 0.974062
Zn5   Zn    Zn3+2 0.956190 0.542870 0.585830 1.007950
Zn6   Zn    Zn3+2 0.957140 0.543780 0.414160 0.991857
Zn7   Zn    Zn3+2 0.957140 0.370280 0.414170 0.978632
Zn8   Zn    Zn3+2 0.129710 0.542890 0.585850 0.973476

loop_
_geom_bond_atom_site_label_1
_geom_bond_atom_site_label_2
_ccdc_geom_bond_type
C60   O22   S    
C66   C68   S    
C22   C29   A    
C27   C29   A    
C35   H5    S    
C73   C74   S    
C4    O30   A    
C41   H9    S    
C35   C36   A    
O29   Zn2   S    
C39   H7    S    
O19   Zn1   S    
C71   H54   S    
C12   C49   S    
C64   H38   S    
C7    C8    A    
C39   C41   S    
C53   C54   S    
C75   H65   S    
C26   C27   A    
C59   H25   S    
O31   Zn8   S    
C22   C24   A    
C12   H10   S    
C10   H23   S    
C8    C42   S    
C30   C31   S    
C63   H37   S    
C78   C80   S    
O17   Zn4   S    
C27   C47   S    
C30   H3    S    
O31   Zn5   S    
C46   O9    A    
C31   O24   S    
C43   O33   A    
C18   C19   A    
O30   Zn3   S    
O9    Zn8   S    
C42   O32   A    
C11   H34   S    
O13   Zn1   S    
O8    Zn5   S    
C60   H29   S    
C33   C35   A    
C40   O18   A    
C48   C51   S    
C19   C20   S    
O1    Zn2   S    
C8    C9    A    
C4    O13   A    
C50   C52   S    
C32   C41   S    
C70   C71   S    
C58   H22   S    
C65   H41   S    
C29   C30   S    
C28   O15   A    
C54   H16   S    
C31   I5    S    
C60   H28   S    
C70   O26   S    
C16   O14   A    
C72   H58   S    
O16   Zn2   S    
C76   H66   S    
C23   C78   A    
C46   O2    A    
C13   C14   A    
C42   O10   A    
C50   O20   S    
C67   C78   A    
C39   H8    S    
C61   H30   S    
C18   C46   S    
C12   C52   D    
C10   H12   S    
C50   C51   D    
O4    Zn4   S    
C77   C79   S    
C38   C39   S    
C4    C34   S    
C44   O34   A    
C59   H26   S    
C74   C75   S    
C13   C19   A    
C53   H13   S    
C11   O21   S    
C24   C25   A    
C45   C56   A    
C62   H33   S    
C22   C31   S    
C77   H69   S    
C69   H50   S    
C72   H55   S    
C73   H59   S    
C25   C26   A    
C65   H42   S    
C57   H20   S    
O7    Zn5   S    
C56   I6    S    
C59   H27   S    
O31   Zn6   S    
C48   O7    A    
C41   O26   S    
C60   C61   S    
C74   H62   S    
C37   C43   S    
O3    Zn6   S    
C37   C38   A    
C3    C9    A    
O2    Zn7   S    
C16   C33   S    
C79   H73   S    
C5    C28   S    
C76   O28   S    
C21   H74   S    
C23   C34   A    
O32   Zn8   S    
C55   H17   S    
C70   H52   S    
C17   C18   A    
C21   H75   S    
C20   H67   S    
C13   C21   S    
C34   C45   A    
O5    Zn8   S    
C76   C77   S    
O10   Zn6   S    
C20   H56   S    
C68   H47   S    
O1    Zn1   S    
C54   H15   S    
C75   H63   S    
C15   I3    S    
C40   O16   A    
C63   H36   S    
C1    O29   A    
C45   O27   S    
C72   H57   S    
C7    H1    S    
C74   H61   S    
O1    Zn4   S    
C32   C38   A    
C10   C11   S    
O15   Zn3   S    
C25   H2    S    
C49   O19   A    
C58   H24   S    
C64   H39   S    
C61   H31   S    
C68   H46   S    
C57   O21   S    
C6    I2    S    
C79   H71   S    
C9    C10   S    
C16   O12   A    
C15   C17   A    
C54   C55   S    
C36   C37   A    
O12   Zn1   S    
C2    I1    S    
C53   H14   S    
C66   H43   S    
C68   C69   S    
C2    O28   S    
O14   Zn2   S    
C3    C5    A    
C77   H70   S    
C71   H53   S    
C66   O25   S    
C6    C7    A    
O33   Zn5   S    
C73   H60   S    
C3    C11   S    
C56   C67   A    
C57   H21   S    
O31   Zn7   S    
O6    Zn7   S    
O11   Zn7   S    
C36   O25   S    
C64   C65   S    
C80   H11   S    
C52   H6    S    
C58   C59   S    
C62   H35   S    
C69   H48   S    
O18   Zn3   S    
C28   O23   A    
C32   C33   A    
C47   O6    A    
C43   O11   A    
C17   H45   S    
C57   C58   S    
C5    C6    A    
C48   O5    A    
C1    O4    A    
C47   O3    A    
C55   H18   S    
C51   I4    S    
C70   H51   S    
C24   C40   S    
C65   H40   S    
C66   H44   S    
O23   Zn4   S    
C30   H4    S    
C61   C62   S    
C44   O8    A    
C2    C80   S    
C75   H64   S    
O1    Zn3   S    
C63   C64   S    
C71   C72   S    
C63   O24   S    
C62   H32   S    
C20   C21   S    
C76   H68   S    
C69   H49   S    
C80   I7    S    
C55   H19   S    
C2    C23   S    
C14   C15   A    
C44   C67   S    
C1    C14   S    
C53   O20   S    
O34   Zn6   S    
C73   O27   S    
C79   H72   S    
C49   O17   A    
C26   O22   S    
