data_mof_unit_17416.cif
_audit_creation_date              2012-12-10T18:57:41-0500
_audit_creation_method            fapswitch 2.2
_symmetry_space_group_name_H-M    P1
_symmetry_Int_Tables_number       1
_space_group_crystal_system       triclinic
_cell_length_a                    10.936038
_cell_length_b                    10.868756
_cell_length_c                    9.54414
_cell_angle_alpha                 90.060621
_cell_angle_beta                  89.552086
_cell_angle_gamma                 90.296843
_cell_volume                      1134.37677568

loop_
_atom_site_label
_atom_site_type_symbol
_atom_type_description
_atom_site_fract_x
_atom_site_fract_y
_atom_site_fract_z
_atom_type_partial_charge
C1    C     C_R   0.499732 0.262693 0.499804 0.823902
C2    C     C_R   0.500624 0.130077 0.498161 -0.066941
C3    C     C_R   0.512060 0.064430 0.370998 -0.212475
C4    C     C_R   0.512516 0.935330 0.371123 -0.188575
C5    C     C_R   0.501774 0.869889 0.498452 -0.100116
C6    C     C_R   0.491775 0.938023 0.621003 -0.016220
C7    C     C_3   0.474909 0.929857 0.776494 0.782015
C8    C     C_3   0.472485 0.072837 0.775374 0.084503
C9    C     C_R   0.568961 0.583728 0.073212 0.156045
C10   C     C_R   0.422735 0.426124 0.075008 -0.092668
C11   C     C_R   0.422255 0.426691 0.926110 -0.076466
C12   C     C_R   0.265359 0.493840 0.500625 0.743689
C13   C     C_R   0.569725 0.583036 0.925636 0.260863
C14   C     C_3   0.705363 0.597308 0.917309 -0.524795
C15   C     C_3   0.705045 0.597325 0.076529 0.189827
C16   C     C_R   0.500388 0.737294 0.499912 0.839083
C17   C     C_R   0.734559 0.503629 0.499705 0.824515
C18   C     C_2   0.934468 0.495484 0.387159 -0.087265
C19   C     C_2   0.866026 0.516903 0.501096 -0.230520
C20   C     C_2   0.067529 0.507817 0.391096 -0.189426
C21   C     C_2   0.133253 0.474186 0.502944 0.265046
C22   C     C_R   0.490762 0.062229 0.620787 0.011752
Cu1   Cu    Cu3+1 0.499990 0.499980 0.640670 0.991159
Cu2   Cu    Cu3+1 0.500010 0.500020 0.359330 0.955210
H1    H     H_    0.893041 0.472110 0.287897 0.148635
H2    H     H_    0.549769 0.120111 0.828942 0.074180
H3    H     H_    0.362086 0.364336 0.131291 0.144741
H4    H     H_    0.360560 0.366323 0.870562 0.167142
H5    H     H_    0.751410 0.515045 0.872696 0.189826
H6    H     H_    0.733653 0.686137 0.869200 0.232051
H7    H     H_    0.751798 0.516479 0.121633 0.146155
H8    H     H_    0.906778 0.547323 0.598615 0.193218
H9    H     H_    0.112197 0.544089 0.297678 0.134084
H10   H     H_    0.520425 0.112062 0.271730 0.159580
H11   H     H_    0.521015 0.887543 0.271892 0.164015
N1    N     N_R   0.500780 0.500930 0.147930 -0.204753
N2    N     N_R   0.500780 0.500890 0.852020 -0.184202
O1    O     O_R   0.500000 0.319640 0.618810 -0.567033
O2    O     O_R   0.500010 0.319680 0.381230 -0.600008
O3    O     O_R   0.321940 0.499980 0.618760 -0.575697
O4    O     O_R   0.321950 0.500020 0.381180 -0.600531
O5    O     O_R   0.499990 0.680320 0.618770 -0.538703
O6    O     O_R   0.500000 0.680360 0.381190 -0.581720
O7    O     O_R   0.678050 0.499980 0.618820 -0.590547
O8    O     O_R   0.678060 0.500020 0.381240 -0.572885
O9    O     O_3   0.743835 0.709554 0.135630 -0.697109
H12   H     H_    0.693169 0.776939 0.096952 0.343808
O10   O     O_3   0.077515 0.414248 0.614766 -0.730997
H13   H     H_    0.140696 0.387337 0.681782 0.339805
O11   O     O_3   0.362084 0.872619 0.811708 -0.534828
C23   C     C_3   0.349960 0.860032 0.958426 -0.154649
H14   H     H_    0.376375 0.945007 0.016023 0.121465
H15   H     H_    0.404992 0.781359 0.995883 0.165163
H16   H     H_    0.252800 0.839936 0.983937 0.167427
O12   O     O_3   0.576857 0.877558 0.843425 -0.802909
H17   H     H_    0.651494 0.922587 0.812325 0.282325
O13   O     O_3   0.356882 0.121342 0.806211 -0.685821
H18   H     H_    0.357234 0.140494 0.907783 0.306629

loop_
_geom_bond_atom_site_label_1
_geom_bond_atom_site_label_2
_ccdc_geom_bond_type
C10   H3    S    
C2    C22   A    
C9    N1    A    
C8    C22   S    
Cu1   Cu2   S    
C15   H7    S    
C12   O4    A    
C8    O13   S    
Cu1   O1    S    
C8    H2    S    
C23   H15   S    
Cu1   O3    S    
C13   N2    A    
C15   O9    S    
C7    O12   S    
O12   H17   S    
C23   H16   S    
C21   O10   S    
C2    C3    A    
C9    C15   S    
C17   O7    A    
C7    C8    S    
Cu1   N2    S    
C13   C14   S    
Cu2   O4    S    
Cu1   O5    S    
C16   O6    A    
O13   H18   S    
Cu2   N1    S    
C18   H1    S    
C11   H4    S    
C14   H6    S    
C19   H8    S    
C1    O1    A    
O10   H13   S    
C17   C19   S    
C17   O8    A    
C18   C19   D    
C6    C7    S    
C18   C20   S    
C5    C6    A    
C4    H11   S    
C10   C11   A    
Cu2   O8    S    
C14   H5    S    
C3    C4    A    
C6    C22   A    
C16   O5    A    
Cu2   O2    S    
C20   C21   D    
C20   H9    S    
C1    C2    S    
C11   N2    A    
Cu2   O6    S    
C1    O2    A    
O9    H12   S    
C5    C16   S    
C9    C13   A    
C12   O3    A    
C3    H10   S    
O11   C23   S    
C14   C15   S    
C12   C21   S    
Cu1   O7    S    
C23   H14   S    
C7    O11   S    
C4    C5    A    
C10   N1    A    
