data_mof_unit_34584.cif
_audit_creation_date              2012-12-10T18:01:44-0500
_audit_creation_method            fapswitch 2.2
_symmetry_space_group_name_H-M    P1
_symmetry_Int_Tables_number       1
_space_group_crystal_system       triclinic
_cell_length_a                    10.788626
_cell_length_b                    9.504651
_cell_length_c                    19.444822
_cell_angle_alpha                 91.236084
_cell_angle_beta                  90.39988
_cell_angle_gamma                 90.321563
_cell_volume                      1993.36770647

loop_
_atom_site_label
_atom_site_type_symbol
_atom_type_description
_atom_site_fract_x
_atom_site_fract_y
_atom_site_fract_z
_atom_type_partial_charge
C1    C     C_R   0.262549 0.499692 0.500507 0.838781
C2    C     C_R   0.737449 0.500323 0.499506 0.836939
C3    C     C_R   0.498791 0.497638 0.930186 0.437870
C4    C     C_R   0.498989 0.499628 0.069719 0.437406
C5    C     C_R   0.503304 0.498217 0.367278 0.786176
C6    C     C_R   0.496037 0.501642 0.632693 0.790075
C7    C     C_R   0.065107 0.455369 0.440198 0.090936
C8    C     C_R   0.934887 0.544701 0.559806 0.087314
C9    C     C_R   0.934720 0.456457 0.439198 0.138184
C10   C     C_R   0.065273 0.543990 0.560749 0.136519
C11   C     C_R   0.871453 0.500984 0.499193 -0.091112
C12   C     C_R   0.128545 0.499117 0.500807 -0.090947
C13   C     C_R   0.411516 0.072312 0.464457 0.060525
C14   C     C_R   0.589127 0.927666 0.535000 0.009089
C15   C     C_R   0.588724 0.076542 0.535352 -0.016029
C16   C     C_R   0.411599 0.923439 0.464377 0.013255
C17   C     C_R   0.561920 0.609534 0.255101 -0.028553
C18   C     C_R   0.434590 0.390195 0.744501 -0.027544
C19   C     C_R   0.538976 0.619897 0.748290 -0.010966
C20   C     C_R   0.460397 0.377995 0.251907 -0.011533
C21   C     C_R   0.554233 0.611568 0.183244 -0.181569
C22   C     C_R   0.442266 0.387275 0.816399 -0.179302
C23   C     C_R   0.544531 0.613630 0.819828 -0.172728
C24   C     C_R   0.454448 0.383732 0.180348 -0.168840
C25   C     C_R   0.501047 0.499364 0.145549 0.002111
C26   C     C_R   0.496835 0.498256 0.854356 0.002480
C27   C     C_R   0.510484 0.493950 0.290919 -0.194968
C28   C     C_R   0.487923 0.505201 0.709011 -0.191742
Cu1   Cu    Cu3+1 0.500000 0.640660 0.500000 0.994088
Cu2   Cu    Cu3+1 0.500000 0.359340 0.500000 0.994158
H1    H     H_    0.593775 0.699796 0.156447 0.189102
H2    H     H_    0.401377 0.299674 0.843065 0.192369
H3    H     H_    0.584059 0.701954 0.848787 0.176745
H4    H     H_    0.415335 0.294954 0.151554 0.179578
H5    H     H_    0.340785 0.126667 0.435885 0.116717
H6    H     H_    0.660241 0.873282 0.563275 0.131289
H7    H     H_    0.659402 0.134285 0.564024 0.132091
H8    H     H_    0.341002 0.865669 0.435653 0.122903
N1    N     N_R   0.500000 0.852070 0.500000 -0.157092
N2    N     N_R   0.500000 0.147930 0.500000 -0.158556
N3    N     N_R   0.449714 0.389381 0.033104 -0.223247
N4    N     N_R   0.548074 0.607835 0.966813 -0.223536
N5    N     N_R   0.449475 0.388432 0.964715 -0.223022
N6    N     N_R   0.548299 0.608791 0.035180 -0.223628
O1    O     O_R   0.319640 0.618740 0.500000 -0.593231
O2    O     O_R   0.680360 0.381260 0.500000 -0.591351
O3    O     O_R   0.680360 0.618740 0.500000 -0.563857
O4    O     O_R   0.319640 0.381260 0.500000 -0.565097
O5    O     O_R   0.499980 0.618820 0.400140 -0.555943
O6    O     O_R   0.500020 0.381180 0.599860 -0.559412
O7    O     O_R   0.500020 0.618820 0.599860 -0.561864
O8    O     O_R   0.499980 0.381180 0.400140 -0.560496
C29   C     C_3   0.139478 0.410142 0.377321 -0.779640
H9    H     H_    0.194564 0.315669 0.389555 0.237162
H10   H     H_    0.083451 0.382707 0.331119 0.255294
H11   H     H_    0.203387 0.496361 0.362742 0.210772
C30   C     C_3   0.860511 0.589803 0.622700 -0.765592
H12   H     H_    0.805835 0.684631 0.610570 0.245614
H13   H     H_    0.796256 0.503763 0.637086 0.207196
H14   H     H_    0.916488 0.616545 0.669015 0.252649
C31   C     C_3   0.864670 0.412343 0.374022 -0.749987
H15   H     H_    0.762758 0.419117 0.378034 0.232626
H16   H     H_    0.891276 0.481859 0.331343 0.245047
H17   H     H_    0.886606 0.301339 0.360199 0.229325
C32   C     C_3   0.135285 0.589118 0.625785 -0.743555
H18   H     H_    0.237220 0.583353 0.621666 0.234034
H19   H     H_    0.112604 0.699989 0.639475 0.231094
H20   H     H_    0.109342 0.519656 0.668606 0.244674
C33   C     C_2   0.631081 0.726942 0.289699 0.865885
O9    O     O_2   0.704289 0.703413 0.336298 -0.594652
O10   O     O_R   0.616369 0.864283 0.266716 -0.734924
H21   H     H_    0.669116 0.935038 0.293720 0.356115
C34   C     C_2   0.362646 0.275137 0.709641 0.856732
O11   O     O_2   0.293288 0.300486 0.661524 -0.594100
O12   O     O_R   0.369617 0.138277 0.734306 -0.750518
H22   H     H_    0.315030 0.069519 0.707204 0.353854
C35   C     C_2   0.582975 0.752154 0.718135 0.856528
O13   O     O_2   0.691763 0.787046 0.724356 -0.614524
O14   O     O_R   0.497632 0.842663 0.688108 -0.727739
H23   H     H_    0.536686 0.935293 0.674828 0.334346
C36   C     C_2   0.414472 0.246484 0.282268 0.851991
O15   O     O_2   0.486221 0.169405 0.312265 -0.570031
O16   O     O_R   0.291335 0.205011 0.271331 -0.773905
H24   H     H_    0.271341 0.111791 0.293217 0.327697

loop_
_geom_bond_atom_site_label_1
_geom_bond_atom_site_label_2
_ccdc_geom_bond_type
C3    N4    A    
C17   C33   S    
C34   O12   S    
C34   O11   D    
C36   O15   D    
Cu1   O5    S    
C35   O13   D    
C2    O2    A    
C21   H1    S    
C3    N5    A    
C22   H2    S    
Cu1   O3    S    
C9    C31   S    
Cu2   O4    S    
C13   H5    S    
C14   H6    S    
C10   C32   S    
C4    N3    A    
C19   C35   S    
C23   C26   A    
C33   O10   S    
C15   H7    S    
C13   N2    A    
Cu2   O8    S    
C14   N1    A    
C5    C27   S    
C6    C28   S    
C20   C24   A    
C23   H3    S    
C5    O8    A    
C6    O7    A    
C35   O14   S    
Cu2   O6    S    
C20   C36   S    
N3    N5    A    
C5    O5    A    
C31   H15   S    
C1    C12   S    
N4    N6    A    
C2    C11   S    
C36   O16   S    
C4    C25   S    
C29   H10   S    
C7    C12   A    
C17   C27   A    
C18   C28   A    
C24   C25   A    
C30   H14   S    
C4    N6    A    
C32   H19   S    
C29   H9    S    
C24   H4    S    
Cu1   O1    S    
C31   H17   S    
C19   C23   A    
O12   H22   S    
Cu1   Cu2   S    
C8    C30   S    
O16   H24   S    
C32   H20   S    
Cu1   N1    S    
C31   H16   S    
Cu2   N2    S    
C6    O6    A    
C19   C28   A    
C9    C11   A    
C10   C12   A    
C18   C34   S    
C7    C29   S    
Cu1   O7    S    
C29   H11   S    
C7    C9    A    
C21   C25   A    
C18   C22   A    
Cu2   O2    S    
C3    C26   S    
C1    O4    A    
C20   C27   A    
C2    O3    A    
O10   H21   S    
C1    O1    A    
C30   H12   S    
C8    C11   A    
C33   O9    D    
C17   C21   A    
C15   N2    A    
C30   H13   S    
C16   N1    A    
O14   H23   S    
C8    C10   A    
C32   H18   S    
C22   C26   A    
C13   C16   A    
C14   C15   A    
C16   H8    S    
