data_mof_unit_14245.cif
_audit_creation_date              2012-12-11T14:40:08-0500
_audit_creation_method            fapswitch 2.2
_symmetry_space_group_name_H-M    P1
_symmetry_Int_Tables_number       1
_space_group_crystal_system       triclinic
_cell_length_a                    19.633585
_cell_length_b                    10.917591
_cell_length_c                    19.482582
_cell_angle_alpha                 90.072258
_cell_angle_beta                  97.60046
_cell_angle_gamma                 89.79608
_cell_volume                      4139.4027957

loop_
_atom_site_label
_atom_site_type_symbol
_atom_type_description
_atom_site_fract_x
_atom_site_fract_y
_atom_site_fract_z
_atom_type_partial_charge
C1    C     C_R   0.726973 0.947427 0.358769 0.573798
C2    C     C_R   0.272886 0.947098 0.641540 0.587643
C3    C     C_R   0.225706 0.451380 0.360558 0.582817
C4    C     C_R   0.775455 0.454723 0.638725 0.614141
C5    C     C_3   0.681870 0.337177 0.491455 -0.183727
C6    C     C_3   0.322498 0.326699 0.508555 -0.175431
C7    C     C_3   0.209656 0.765568 0.498995 -0.200247
C8    C     C_3   0.775171 0.788500 0.514606 -0.169244
C9    C     C_3   0.733924 0.351891 0.439196 -0.045486
C10   C     C_3   0.269104 0.338461 0.559904 -0.053441
C11   C     C_3   0.232801 0.844597 0.440565 -0.066585
C12   C     C_3   0.755391 0.888922 0.564894 -0.035390
C13   C     C_3   0.750037 0.484642 0.462299 -0.127444
C14   C     C_3   0.250627 0.470120 0.536723 -0.129742
C15   C     C_3   0.204422 0.962367 0.470025 -0.081106
C16   C     C_3   0.792913 0.987631 0.528579 -0.074298
C17   C     C_3   0.809034 0.434963 0.515966 -0.174131
C18   C     C_3   0.193442 0.418520 0.482409 -0.178559
C19   C     C_3   0.275977 0.982491 0.513120 -0.103989
C20   C     C_3   0.723862 0.012390 0.481497 -0.105749
C21   C     C_3   0.792485 0.303209 0.492262 0.386646
C22   C     C_3   0.212284 0.287550 0.505995 0.387761
C23   C     C_3   0.303393 0.865398 0.483216 0.462120
C24   C     C_3   0.687830 0.912926 0.518580 0.434623
C25   C     C_3   0.741308 0.289363 0.544731 0.341037
C26   C     C_3   0.264217 0.277361 0.453869 0.347200
C27   C     C_3   0.280949 0.788865 0.541494 0.381422
C28   C     C_3   0.706899 0.815983 0.467931 0.396287
C29   C     C_3   0.757225 0.419251 0.568322 0.041452
C30   C     C_3   0.246119 0.407840 0.430365 0.046218
C31   C     C_3   0.253069 0.904568 0.571718 0.033634
C32   C     C_3   0.743348 0.913862 0.430513 0.029984
C33   C     C_3   0.495564 0.278178 0.979891 0.180795
C34   C     C_3   0.447173 0.263207 0.034971 0.198453
C35   C     C_3   0.007539 0.764906 0.977278 0.198509
C36   C     C_3   0.958885 0.776888 0.032242 0.209303
C37   C     C_3   0.544831 0.183290 0.016598 0.218842
C38   C     C_3   0.409362 0.158696 0.993179 0.190636
C39   C     C_3   0.044509 0.657586 0.016588 0.219330
C40   C     C_3   0.909035 0.685042 0.993127 0.174809
C41   C     C_3   0.496717 0.169057 0.072808 -0.007088
C42   C     C_3   0.457411 0.174282 0.936856 -0.043424
C43   C     C_3   0.996279 0.670221 0.072836 -0.011202
C44   C     C_3   0.957343 0.673785 0.936753 -0.047333
C45   C     C_R   0.559523 0.182650 0.348054 0.515367
C46   C     C_R   0.465553 0.179673 0.662716 0.550609
C47   C     C_R   0.063416 0.683396 0.348337 0.517737
C48   C     C_R   0.965677 0.679789 0.662659 0.557943
C49   C     C_3   0.459450 0.064378 0.030876 0.200029
C50   C     C_3   0.507163 0.079286 0.974862 0.232549
C51   C     C_3   0.946830 0.578125 0.033486 0.192963
C52   C     C_3   0.994733 0.566148 0.977288 0.232037
C53   C     C_1   0.777951 0.464650 0.913146 0.034113
C54   C     C_1   0.239576 0.416470 0.098495 0.077494
C55   C     C_1   0.260552 0.918382 0.902196 0.040320
C56   C     C_1   0.734358 0.932554 0.093438 0.067031
C57   C     C_1   0.755031 0.430125 0.040279 0.059647
C58   C     C_1   0.260057 0.377933 0.971160 0.049544
C59   C     C_1   0.245315 0.900732 0.032776 0.040112
C60   C     C_1   0.748025 0.920896 0.962141 0.053811
C61   C     C_1   0.766419 0.448095 0.971408 0.071441
C62   C     C_1   0.250270 0.397039 0.040303 0.067036
C63   C     C_1   0.251504 0.906616 0.961696 0.053573
C64   C     C_1   0.741596 0.926501 0.033180 0.068041
C65   C     C_1   0.746434 0.407092 0.098724 0.030116
C66   C     C_1   0.267670 0.356074 0.912326 0.041595
C67   C     C_1   0.241306 0.890317 0.093566 0.028008
C68   C     C_1   0.754125 0.904890 0.902169 0.040400
C69   C     C_R   0.725323 0.312243 0.367809 0.538540
C70   C     C_R   0.275891 0.307501 0.632991 0.561766
C71   C     C_R   0.224990 0.810473 0.367722 0.553654
C72   C     C_R   0.760788 0.862210 0.637736 0.613166
C73   C     C_R   0.721204 0.954461 0.162804 0.558516
C74   C     C_R   0.277342 0.950496 0.835349 0.524888
C75   C     C_R   0.222138 0.451719 0.164299 0.570159
C76   C     C_R   0.793489 0.492927 0.845482 0.506677
C77   C     C_R   0.527483 0.178444 0.143304 0.609872
C78   C     C_R   0.436703 0.182716 0.862826 0.539566
C79   C     C_R   0.027363 0.678644 0.143344 0.594911
C80   C     C_R   0.936609 0.682670 0.862778 0.538195
C81   C     C_R   0.736442 0.362310 0.165314 0.556024
C82   C     C_R   0.275847 0.317976 0.843984 0.515128
C83   C     C_R   0.235541 0.859305 0.163791 0.563847
C84   C     C_R   0.763195 0.863364 0.834377 0.532540
C85   C     C_1   0.491537 0.170455 0.597977 0.048910
C86   C     C_1   0.535628 0.172517 0.413810 0.038078
C87   C     C_1   0.994419 0.671198 0.599074 0.024934
C88   C     C_1   0.043870 0.675277 0.416384 0.005542
C89   C     C_1   0.520715 0.166703 0.471541 0.044558
C90   C     C_1   0.506481 0.166178 0.540245 0.051951
C91   C     C_1   0.029490 0.670136 0.474466 -0.019172
C92   C     C_1   0.012427 0.668284 0.542419 -0.003909
C93   C     C_3   0.699567 0.468236 0.515637 0.207368
C94   C     C_3   0.302455 0.457826 0.484454 0.211819
C95   C     C_3   0.183127 0.884451 0.529369 0.184346
C96   C     C_3   0.810476 0.889415 0.477076 0.169494
Cr1   Cr    Cr6+3 0.765830 0.160660 0.268180 1.116622
Cr2   Cr    Cr6+3 0.234170 0.160660 0.731820 1.106027
Cr3   Cr    Cr6+3 0.265830 0.660660 0.268180 1.132230
Cr4   Cr    Cr6+3 0.734170 0.660660 0.731820 1.120290
Cr5   Cr    Cr6+3 0.612110 0.009150 0.248770 1.103849
Cr6   Cr    Cr6+3 0.387890 0.009150 0.751230 1.092063
Cr7   Cr    Cr6+3 0.112110 0.509150 0.248770 1.075449
Cr8   Cr    Cr6+3 0.887890 0.509150 0.751230 1.076474
Cr9   Cr    Cr6+3 0.615930 0.324050 0.248450 1.078776
Cr10  Cr    Cr6+3 0.384070 0.324050 0.751550 1.096451
Cr11  Cr    Cr6+3 0.115930 0.824050 0.248450 1.083278
Cr12  Cr    Cr6+3 0.884070 0.824050 0.751550 1.079187
H1    H     H_    0.629108 0.303084 0.482050 0.110541
H2    H     H_    0.375348 0.289794 0.520359 0.118248
H3    H     H_    0.180571 0.679094 0.490871 0.096485
H4    H     H_    0.797926 0.698606 0.531327 0.115974
H5    H     H_    0.753149 0.562488 0.426340 0.198815
H6    H     H_    0.243232 0.543335 0.574364 0.210009
H7    H     H_    0.171627 0.029674 0.438257 0.239310
H8    H     H_    0.829684 0.052441 0.557165 0.240515
H9    H     H_    0.306023 0.067886 0.522497 0.149021
H10   H     H_    0.699147 0.099670 0.463531 0.116590
H11   H     H_    0.861293 0.474613 0.527862 0.144928
H12   H     H_    0.140343 0.455180 0.470803 0.144027
O1    O     O_R   0.783230 0.287800 0.346510 -0.431200
O2    O     O_R   0.216770 0.287800 0.653490 -0.432353
O3    O     O_R   0.283230 0.787800 0.346510 -0.392252
O4    O     O_R   0.716770 0.787800 0.653490 -0.435901
O5    O     O_R   0.554500 0.081650 0.170370 -0.489712
O6    O     O_R   0.445500 0.081650 0.829630 -0.476592
O7    O     O_R   0.054500 0.581650 0.170370 -0.488282
O8    O     O_R   0.945500 0.581650 0.829630 -0.480193
O9    O     O_R   0.545430 0.285140 0.163100 -0.484693
O10   O     O_R   0.454570 0.285140 0.836900 -0.424255
O11   O     O_R   0.045430 0.785140 0.163100 -0.472714
O12   O     O_R   0.954570 0.785140 0.836900 -0.425229
O13   O     O_R   0.677850 0.374730 0.185500 -0.503983
O14   O     O_R   0.322150 0.374730 0.814500 -0.490362
O15   O     O_R   0.177850 0.874730 0.185500 -0.498297
O16   O     O_R   0.822150 0.874730 0.814500 -0.516013
O17   O     O_3   0.664630 0.164620 0.255130 -0.331115
O18   O     O_3   0.335370 0.164620 0.744870 -0.366641
O19   O     O_3   0.164630 0.664620 0.255130 -0.340862
O20   O     O_3   0.835370 0.664620 0.744870 -0.344912
O21   O     O_R   0.760130 0.037060 0.338610 -0.481240
O22   O     O_R   0.239870 0.037060 0.661390 -0.472058
O23   O     O_R   0.260130 0.537060 0.338610 -0.478198
O24   O     O_R   0.739870 0.537060 0.661390 -0.456391
O25   O     O_R   0.666620 0.921370 0.332440 -0.473304
O26   O     O_R   0.333380 0.921370 0.667560 -0.463048
O27   O     O_R   0.166620 0.421370 0.332440 -0.507111
O28   O     O_R   0.833380 0.421370 0.667560 -0.492101
O29   O     O_R   0.557170 0.082420 0.312350 -0.461686
O30   O     O_R   0.442830 0.082420 0.687650 -0.473057
O31   O     O_R   0.057170 0.582420 0.312350 -0.483219
O32   O     O_R   0.942830 0.582420 0.687650 -0.492975
O33   O     O_R   0.548310 0.285980 0.316250 -0.489430
O34   O     O_R   0.451690 0.285980 0.683750 -0.504874
O35   O     O_R   0.048310 0.785980 0.316250 -0.480171
O36   O     O_R   0.951690 0.785980 0.683750 -0.487921
O37   O     O_R   0.680520 0.375500 0.327470 -0.496812
O38   O     O_R   0.319480 0.375500 0.672530 -0.473880
O39   O     O_R   0.180520 0.875500 0.327470 -0.496721
O40   O     O_R   0.819480 0.875500 0.672530 -0.507431
O41   O     O_R   0.780350 0.286970 0.193350 -0.484971
O42   O     O_R   0.219650 0.286970 0.806650 -0.473586
O43   O     O_R   0.280350 0.786970 0.193350 -0.479569
O44   O     O_R   0.719650 0.786970 0.806650 -0.497276
O45   O     O_R   0.757460 0.036290 0.196640 -0.489600
O46   O     O_R   0.242540 0.036290 0.803360 -0.511423
O47   O     O_R   0.257460 0.536290 0.196640 -0.494920
O48   O     O_R   0.742540 0.536290 0.803360 -0.478343
O49   O     O_R   0.663740 0.920540 0.179290 -0.500792
O50   O     O_R   0.336260 0.920540 0.820710 -0.507332
O51   O     O_R   0.163740 0.420540 0.179290 -0.486281
O52   O     O_R   0.836260 0.420540 0.820710 -0.495529
O53   O     O_3   0.651470 0.554703 0.531841 -0.587917
H13   H     H_    0.611773 0.546979 0.494989 0.377661
O54   O     O_3   0.349047 0.547923 0.470319 -0.586350
H14   H     H_    0.386355 0.545761 0.509894 0.381306
O55   O     O_3   0.121336 0.896126 0.557124 -0.633481
H15   H     H_    0.085565 0.909088 0.516883 0.345174
O56   O     O_3   0.873809 0.876387 0.452486 -0.635610
H16   H     H_    0.907906 0.866129 0.494380 0.334967
F1    F     F_    0.841915 0.220183 0.477738 -0.593845
F2    F     F_    0.164485 0.201523 0.519703 -0.597219
F3    F     F_    0.366798 0.855770 0.459975 -0.518522
F4    F     F_    0.624482 0.925990 0.541478 -0.549921
F5    F     F_    0.736444 0.196114 0.591703 -0.626115
F6    F     F_    0.270290 0.182811 0.407806 -0.611721
F7    F     F_    0.323344 0.706999 0.580888 -0.596399
F8    F     F_    0.662047 0.731769 0.434044 -0.581481
O57   O     O_3   0.616387 0.193579 0.028630 -0.653205
H17   H     H_    0.625309 0.273915 0.051598 0.317537
O58   O     O_3   0.338344 0.143515 0.983939 -0.665543
H18   H     H_    0.325889 0.127761 0.933951 0.282325
O59   O     O_3   0.115734 0.640510 0.028493 -0.647514
H19   H     H_    0.133916 0.712828 0.055570 0.305805
O60   O     O_3   0.837907 0.699876 0.984119 -0.676778
H20   H     H_    0.823709 0.695376 0.933635 0.280817
O61   O     O_3   0.515734 0.390361 0.954538 -0.636609
H21   H     H_    0.537064 0.436279 0.995736 0.331310
O62   O     O_3   0.415892 0.357934 0.067821 -0.652276
H22   H     H_    0.401444 0.418962 0.031132 0.337418
O63   O     O_3   0.040641 0.862533 0.949233 -0.629395
H23   H     H_    0.068447 0.902520 0.989176 0.332592
O64   O     O_3   0.939370 0.886566 0.061377 -0.639340
H24   H     H_    0.915700 0.934680 0.022104 0.344575
O65   O     O_3   0.439299 0.953671 0.057842 -0.648110
H25   H     H_    0.482646 0.910654 0.075366 0.342973
O66   O     O_3   0.540415 0.984279 0.944224 -0.626899
H26   H     H_    0.504243 0.923012 0.929613 0.344400
O67   O     O_3   0.914812 0.481647 0.063538 -0.669248
H27   H     H_    0.952586 0.426642 0.083417 0.344997
O68   O     O_3   0.015131 0.456160 0.949209 -0.615626
H28   H     H_    0.971988 0.410879 0.934489 0.340188

loop_
_geom_bond_atom_site_label_1
_geom_bond_atom_site_label_2
_ccdc_geom_bond_type
C58   C62   S    
Cr9   O33   S    
O64   H24   S    
C67   C83   S    
C93   O53   S    
C80   O12   A    
C24   F4    S    
C17   C29   S    
O63   H23   S    
Cr8   O28   S    
C37   O57   S    
C35   C36   S    
C8    C96   S    
C44   C80   S    
C19   C31   S    
C20   H10   S    
Cr7   O27   S    
Cr5   O29   S    
C38   C49   S    
O65   H25   S    
C10   C22   S    
C21   F1    S    
O59   H19   S    
C39   O59   S    
Cr5   O25   S    
C69   O1    A    
C21   C25   S    
Cr2   O18   S    
C33   C42   S    
Cr3   O23   S    
C16   C20   S    
C9    C69   S    
C38   C42   S    
C8    H4    S    
C15   C95   S    
C11   C71   S    
Cr10  O18   S    
C43   C79   S    
C4    O28   A    
C7    C27   S    
Cr10  O10   S    
Cr6   O18   S    
C41   C49   S    
C76   O52   A    
C9    C13   S    
C7    C11   S    
Cr1   O1    S    
Cr4   O20   S    
C59   C67   T    
C15   C19   S    
C55   C74   S    
C11   C15   S    
C34   O62   S    
C95   O55   S    
Cr9   O37   S    
C12   C16   S    
C6    C94   S    
C55   C63   T    
C52   O68   S    
Cr11  O15   S    
C56   C64   T    
Cr5   O49   S    
C18   C30   S    
C36   O64   S    
C23   C27   S    
Cr7   O7    S    
C40   C44   S    
C83   O15   A    
C4    C29   S    
C84   O44   A    
C27   F7    S    
Cr7   O31   S    
C94   O54   S    
Cr8   O52   S    
C46   C85   S    
C50   O66   S    
C44   C52   S    
C39   C52   S    
C48   O36   A    
C77   O5    A    
O62   H22   S    
C18   C22   S    
C87   C92   T    
Cr2   O22   S    
Cr7   O51   S    
C6    H2    S    
Cr3   O19   S    
O61   H21   S    
C34   C41   S    
C53   C61   T    
C16   H8    S    
C28   C32   S    
Cr1   O17   S    
Cr2   O42   S    
C58   C66   T    
C60   C64   S    
O67   H27   S    
Cr3   O47   S    
C25   C29   S    
C46   O34   A    
C16   C96   S    
Cr12  O12   S    
C49   O65   S    
C29   C93   S    
C27   C31   S    
O66   H26   S    
C68   C84   S    
C20   C24   S    
C36   C40   S    
C3    O23   A    
C73   O45   A    
Cr4   O24   S    
C91   C92   S    
Cr12  O20   S    
Cr5   O17   S    
C19   C23   S    
C35   O63   S    
Cr9   O9    S    
C82   O42   A    
Cr10  O34   S    
Cr10  O38   S    
C54   C62   T    
C1    C32   S    
C33   C37   S    
O56   H16   S    
C13   C93   S    
C2    C31   S    
C70   O38   A    
C82   O14   A    
C3    C30   S    
C35   C39   S    
C6    C10   S    
C5    C9    S    
C7    C95   S    
Cr7   O19   S    
C66   C82   S    
C70   O2    A    
Cr5   O5    S    
O68   H28   S    
Cr12  O36   S    
C88   C91   T    
C33   O61   S    
C8    C12   S    
C79   O11   A    
Cr11  O39   S    
C33   C34   S    
C48   C87   S    
Cr4   O44   S    
C77   O9    A    
C57   C61   S    
C35   C44   S    
Cr1   O21   S    
C23   F3    S    
Cr2   O46   S    
C25   F5    S    
C69   O37   A    
Cr6   O30   S    
Cr3   O43   S    
C10   C70   S    
Cr11  O11   S    
C32   C96   S    
C42   C50   S    
C26   C30   S    
Cr1   O41   S    
C48   O32   A    
C10   C14   S    
C2    O22   A    
C49   C50   S    
C15   H7    S    
C53   C76   S    
C45   O33   A    
C1    O25   A    
C9    C21   S    
C73   O49   A    
C78   O6    A    
C18   H12   S    
C74   O46   A    
C71   O39   A    
C42   C78   S    
Cr3   O3    S    
C20   C32   S    
C71   O3    A    
O58   H18   S    
Cr2   O2    S    
C83   O43   A    
C84   O16   A    
C56   C73   S    
C46   O30   A    
C34   C38   S    
Cr9   O13   S    
C81   O41   A    
C14   C18   S    
C24   C28   S    
C57   C65   T    
Cr6   O6    S    
C86   C89   T    
C4    O24   A    
C5    C93   S    
C85   C90   T    
C81   O13   A    
Cr12  O40   S    
C51   O67   S    
C2    O26   A    
C40   C51   S    
C80   O8    A    
C12   C24   S    
C75   O51   A    
C59   C63   S    
C72   O40   A    
Cr12  O16   S    
C13   C17   S    
Cr4   O48   S    
C60   C68   T    
C47   C88   S    
Cr8   O32   S    
C28   F8    S    
C45   C86   S    
C78   O10   A    
C79   O7    A    
C51   C52   S    
C30   C94   S    
O54   H14   S    
C14   H6    S    
C3    O27   A    
Cr6   O26   S    
C17   H11   S    
C41   C77   S    
C37   C50   S    
C26   F6    S    
C43   C51   S    
C6    C26   S    
C5    H1    S    
Cr6   O50   S    
Cr1   O45   S    
C11   C23   S    
C7    H3    S    
C76   O48   A    
C45   O29   A    
Cr8   O8    S    
C96   O56   S    
C37   C41   S    
O57   H17   S    
C12   C72   S    
Cr11  O35   S    
C74   O50   A    
C1    O21   A    
C31   C95   S    
C47   O31   A    
Cr9   O17   S    
O60   H20   S    
Cr8   O20   S    
C13   H5    S    
Cr10  O14   S    
C19   H9    S    
C8    C28   S    
C22   F2    S    
O55   H15   S    
C22   C26   S    
C39   C43   S    
C38   O58   S    
C65   C81   S    
C40   O60   S    
C36   C43   S    
C75   O47   A    
Cr4   O4    S    
C89   C90   S    
O53   H13   S    
C14   C94   S    
Cr11  O19   S    
C72   O4    A    
C54   C75   S    
C47   O35   A    
C5    C25   S    
C17   C21   S    
