data_mof_unit_13065.cif
_audit_creation_date              2012-12-11T20:00:16-0500
_audit_creation_method            fapswitch 2.2
_symmetry_space_group_name_H-M    P1
_symmetry_Int_Tables_number       1
_space_group_crystal_system       triclinic
_cell_length_a                    8.380018
_cell_length_b                    16.191152
_cell_length_c                    26.852959
_cell_angle_alpha                 73.844297
_cell_angle_beta                  95.872797
_cell_angle_gamma                 96.015654
_cell_volume                      3470.08944263

loop_
_atom_site_label
_atom_site_type_symbol
_atom_type_description
_atom_site_fract_x
_atom_site_fract_y
_atom_site_fract_z
_atom_type_partial_charge
Ba1   Ba    Ba6+2 0.337820 0.939830 0.518500 1.753927
Ba2   Ba    Ba6+2 0.851970 0.060110 0.481480 1.741112
C1    C     C_3   0.092868 0.523188 0.615699 0.262227
C2    C     C_3   0.078236 0.619763 0.605160 0.447568
C3    C     C_3   0.074983 0.010899 0.644291 0.285147
C4    C     C_3   0.047029 0.972466 0.701582 -0.328307
C5    C     C_3   0.680602 0.378046 0.372356 0.630984
C6    C     C_3   0.762861 0.445786 0.328814 -0.227857
C7    C     C_3   0.129779 0.363371 0.418255 0.361399
C8    C     C_3   0.139077 0.455395 0.424043 0.299143
C9    C     C_R   0.497588 0.269607 0.168855 0.619564
C10   C     C_R   0.526064 0.399516 0.196102 0.624190
C11   C     C_2   0.303186 0.279181 0.275139 0.418039
C12   C     C_3   0.574416 0.611832 0.625658 0.704839
C13   C     C_3   0.262784 0.230386 0.330130 -0.026827
C14   C     C_1   0.507392 0.155773 0.344327 0.030891
C15   C     C_2   0.546798 0.196242 0.295695 -0.139404
C16   C     C_2   0.442454 0.262544 0.258766 0.202784
C17   C     C_R   0.566643 0.407928 0.105821 -0.130901
C18   C     C_R   0.532552 0.317505 0.117716 -0.020321
C19   C     C_R   0.532764 0.276678 0.078090 -0.049416
C20   C     C_R   0.565584 0.449367 0.145598 -0.095549
C21   C     C_2   0.410605 0.196092 0.364277 -0.283599
C22   C     C_2   0.818522 0.831149 0.634341 -0.332979
C23   C     C_3   0.600019 0.518112 0.653727 -0.228163
C24   C     C_R   0.614606 0.464418 0.961407 0.015373
C25   C     C_R   0.682453 0.595194 0.991475 0.037410
C26   C     C_R   0.663262 0.554107 0.950663 0.057828
C27   C     C_R   0.588288 0.427616 0.918974 -0.098457
C28   C     C_R   0.613733 0.476219 0.868395 -0.034434
C29   C     C_R   0.667310 0.563903 0.857497 -0.047512
C30   C     C_R   0.692839 0.603140 0.898522 -0.083383
C31   C     C_R   0.748761 0.691122 0.887423 -0.051005
C32   C     C_R   0.780056 0.738233 0.835612 0.589159
C33   C     C_R   0.695101 0.612779 0.806178 0.617456
C34   C     C_3   0.521901 0.889804 0.355493 0.841289
C35   C     C_2   0.887714 0.717020 0.717305 -0.104786
C36   C     C_3   0.898563 0.749296 0.659315 -0.026916
C37   C     C_1   0.715546 0.858623 0.659156 0.054004
C38   C     C_2   0.690664 0.824097 0.709879 0.389476
C39   C     C_2   0.782007 0.747150 0.741507 0.198745
C40   C     C_R   0.591752 0.414785 0.013721 0.035443
C41   C     C_R   0.600610 0.456798 0.053991 0.048035
C42   C     C_R   0.642972 0.547089 0.042858 -0.036962
C43   C     C_R   0.561023 0.323925 0.027403 -0.094611
C44   C     C_R   0.600720 0.539856 0.133514 0.431972
C45   C     C_3   0.353426 0.872330 0.331123 -0.212743
C46   C     C_R   0.740656 0.683427 0.979129 -0.099849
C47   C     C_R   0.773555 0.729859 0.928497 -0.060397
C48   C     C_R   0.642390 0.586488 0.083614 -0.149064
C49   C     C_2   0.400564 0.248001 0.515499 -0.254733
C50   C     C_R   0.809642 0.756456 0.493975 -0.207318
C51   C     C_2   0.258151 0.312314 0.569030 -0.131662
C52   C     C_2   0.272019 0.244952 0.550168 -0.025257
C53   C     C_2   0.519985 0.311507 0.507919 0.113974
C54   C     C_3   0.532585 0.375967 0.539935 0.068695
C55   C     C_3   0.368028 0.393811 0.553796 -0.026323
C56   C     C_3   0.560569 0.105570 0.630926 0.679519
C57   C     C_2   0.647484 0.454654 0.521210 -0.079904
C58   C     C_2   0.600317 0.534498 0.500473 -0.061619
C59   C     C_R   0.854785 0.610472 0.463060 0.028740
C60   C     C_R   0.717972 0.611016 0.489107 -0.041327
C61   C     C_R   0.962589 0.683995 0.449963 -0.113592
C62   C     C_R   0.938116 0.758248 0.464397 0.071847
C63   C     C_R   0.693359 0.685908 0.503263 0.030638
C64   C     C_3   0.469259 0.112976 0.675398 -0.261705
C65   C     C_3   0.961674 0.962664 0.349197 0.680803
C66   C     C_3   0.948605 0.986474 0.289715 -0.290690
H1    H     H_    0.129234 0.653254 0.567474 -0.006526
H2    H     H_    0.358028 0.859867 0.292653 0.110125
H3    H     H_    0.288220 0.815213 0.356282 0.128999
H4    H     H_    0.286386 0.930111 0.322424 0.055908
H5    H     H_    0.477114 0.100637 0.596817 -0.089553
H6    H     H_    0.391790 0.052879 0.689493 0.074100
H7    H     H_    0.395708 0.169338 0.662560 0.094066
H8    H     H_    0.554691 0.121437 0.708429 0.148177
H9    H     H_    0.840766 0.944904 0.362430 0.109150
H10   H     H_    0.220409 0.509697 0.617433 0.092398
H11   H     H_    0.067719 0.009289 0.274165 0.080746
H12   H     H_    0.865849 0.038536 0.274057 0.114171
H13   H     H_    0.901011 0.929622 0.275798 0.146180
H14   H     H_    0.948256 0.629887 0.601674 -0.148199
H15   H     H_    0.025487 0.499739 0.583802 -0.031405
H16   H     H_    0.960881 0.002409 0.620720 0.026101
H17   H     H_    0.168116 0.975679 0.634268 0.054795
H18   H     H_    0.941897 0.999610 0.711418 0.176986
H19   H     H_    0.024245 0.901433 0.710123 0.044466
H20   H     H_    0.154321 0.986854 0.726494 0.117669
H21   H     H_    0.691174 0.514733 0.687104 0.183148
H22   H     H_    0.703455 0.313219 0.369548 0.036812
H23   H     H_    0.891066 0.458791 0.339454 0.074789
H24   H     H_    0.754978 0.422521 0.293508 0.122146
H25   H     H_    0.707692 0.508322 0.319547 0.164828
H26   H     H_    0.245562 0.335909 0.433821 0.021245
H27   H     H_    0.033296 0.325290 0.441963 0.025418
H28   H     H_    0.153471 0.450880 0.466222 -0.007762
H29   H     H_    0.023366 0.485289 0.410131 0.014837
H30   H     H_    0.656321 0.182449 0.282296 0.135583
H31   H     H_    0.509478 0.207316 0.086028 0.123205
H32   H     H_    0.952956 0.661730 0.738497 0.126126
H33   H     H_    0.591008 0.444289 0.837562 0.139225
H34   H     H_    0.543819 0.361355 0.923243 0.078626
H35   H     H_    0.561155 0.286616 0.999886 0.073052
H36   H     H_    0.765562 0.718643 0.008026 0.071712
H37   H     H_    0.692342 0.644384 0.613081 -0.128004
H38   H     H_    0.818087 0.797046 0.921609 0.124864
H39   H     H_    0.669904 0.654765 0.077917 0.086605
H40   H     H_    0.417885 0.190526 0.405488 0.081491
H41   H     H_    0.831054 0.859638 0.593145 0.072832
H42   H     H_    0.163302 0.310012 0.594153 0.130864
H43   H     H_    0.062432 0.683591 0.427520 0.096092
H44   H     H_    0.399380 0.196081 0.497161 0.051479
H45   H     H_    0.791530 0.813605 0.505403 0.084977
H46   H     H_    0.775245 0.445591 0.527783 0.109070
H47   H     H_    0.485698 0.483031 0.668345 0.141629
H48   H     H_    0.473065 0.544450 0.495470 0.123604
H49   H     H_    0.643758 0.486185 0.626668 0.079615
N1    N     N_R   0.492425 0.310825 0.207269 -0.417858
N2    N     N_R   0.749250 0.699632 0.795170 -0.435655
O1    O     O_2   0.431310 0.922990 0.623550 -0.472932
O2    O     O_3   0.050065 0.890804 0.369792 -0.680701
O3    O     O_3   0.455076 0.614445 0.584689 -0.640533
O4    O     O_2   0.758370 0.077020 0.376420 -0.412775
O5    O     O_3   0.526390 0.016840 0.436620 -0.470926
O6    O     O_3   0.063420 0.187310 0.425160 -0.476944
O7    O     O_3   0.571996 0.978517 0.338163 -0.657925
O8    O     O_3   0.173250 0.067890 0.537260 -0.500065
O9    O     O_3   0.672100 0.202370 0.454860 -0.490734
O10   O     O_2   0.841524 0.299441 0.510090 -0.455965
O11   O     O_3   0.739913 0.391114 0.420673 -0.627554
O12   O     O_3   0.663280 0.983100 0.563360 -0.480719
O13   O     O_3   0.016420 0.932050 0.462720 -0.473686
O14   O     O_2   0.959730 0.164640 0.549160 -0.380215
O15   O     O_3   0.127086 0.098567 0.635831 -0.621454
O16   O     O_2   0.926850 0.241720 0.331078 -0.485239
O17   O     O_3   0.096819 0.361873 0.366009 -0.628792
O18   O     O_2   0.468770 0.191408 0.178859 -0.585428
O19   O     O_2   0.671591 0.577385 0.771159 -0.548209
O20   O     O_2   0.520341 0.435242 0.230239 -0.568762
O21   O     O_2   0.835439 0.813301 0.826700 -0.563640
O22   O     O_3   0.126250 0.812630 0.574830 -0.495439
O23   O     O_2   0.234273 0.794817 0.672941 -0.476319
O24   O     O_3   0.655209 0.036083 0.650057 -0.609219
O25   O     O_3   0.162923 0.650596 0.645374 -0.500599
O26   O     O_2   0.229950 0.835370 0.450810 -0.416246
O27   O     O_3   0.517580 0.797570 0.545130 -0.419633
O28   O     O_2   0.360573 0.695855 0.490541 -0.448346
P1    P     P_3+3 0.610630 0.953360 0.619150 1.053412
P2    P     P_3+3 0.057260 0.861390 0.437850 1.025865
P3    P     P_3+3 0.506399 0.698212 0.530552 1.040466
P4    P     P_3+3 0.579040 0.046590 0.380840 1.015489
P5    P     P_3+3 0.690061 0.300417 0.472220 1.010290
P6    P     P_3+3 0.106537 0.754246 0.639135 1.018208
P7    P     P_3+3 0.138507 0.145050 0.569069 0.984989
P8    P     P_3+3 0.088753 0.254584 0.362542 0.989417
Cl1   Cl    Cl    0.695123 0.199488 0.613993 -0.680571
O29   O     O_3   0.023666 0.034241 0.366954 -0.635468
C67   C     C_3   0.190992 0.043006 0.370587 0.366320
H50   H     H_    0.253900 0.984283 0.386681 0.024008
H51   H     H_    0.224866 0.076834 0.400815 0.023604
H52   H     H_    0.232253 0.073809 0.331409 -0.139756
Cl2   Cl    Cl    0.012932 0.465104 0.675674 -0.640201
Cl3   Cl    Cl    0.472831 0.393441 0.362011 -0.767268
O30   O     O_3   0.275566 0.505111 0.401450 -0.599988
C68   C     C_3   0.229704 0.565313 0.354402 0.313208
H53   H     H_    0.154257 0.613027 0.361311 -0.015806
H54   H     H_    0.165721 0.532583 0.325909 0.034155
H55   H     H_    0.339890 0.601228 0.337138 0.099740
Cl4   Cl    Cl    0.506535 0.662192 0.669386 -0.641008
O31   O     O_3   0.188276 0.320736 0.238345 -0.650879
C69   C     C_3   0.155111 0.398382 0.247923 0.221531
H56   H     H_    0.245526 0.422333 0.275052 0.121017
H57   H     H_    0.034020 0.390686 0.262602 0.069700
H58   H     H_    0.151609 0.449266 0.210446 0.042697
O32   O     O_3   0.605164 0.583308 0.171382 -0.606798
C70   C     C_3   0.461836 0.624966 0.164987 0.249839
H59   H     H_    0.353464 0.578492 0.166311 0.015838
H60   H     H_    0.455673 0.677653 0.128171 -0.001086
H61   H     H_    0.460360 0.654513 0.197564 0.083555
O33   O     O_3   0.615380 0.871690 0.735036 -0.634070
C71   C     C_3   0.480051 0.823507 0.759116 0.253332
H62   H     H_    0.498325 0.815012 0.801659 0.043121
H63   H     H_    0.451079 0.758764 0.751939 0.078977
H64   H     H_    0.373740 0.861431 0.745074 0.065333
Cl5   Cl    Cl    0.648425 0.828256 0.332451 -0.749244
Cl6   Cl    Cl    0.540454 0.848813 0.423069 -0.690563

loop_
_geom_bond_atom_site_label_1
_geom_bond_atom_site_label_2
_ccdc_geom_bond_type
C25   C46   A    
C66   H12   S    
C69   H56   S    
C49   H44   S    
C12   O3    S    
C33   N2    Am   
C17   C18   A    
C65   H9    S    
C53   C54   S    
Ba1   O13   S    
O16   P8    D    
C53   P5    S    
C68   H53   S    
O15   P7    S    
C51   C52   D    
C69   H57   S    
C56   C64   S    
O29   C67   S    
C11   C16   D    
C12   H37   S    
C66   H13   S    
O3    P3    S    
O30   C68   S    
C35   C36   S    
C34   Cl5   S    
C23   H47   S    
C33   O19   D    
C28   C29   A    
C19   H31   S    
O31   C69   S    
C21   H40   S    
C31   C47   A    
C64   H6    S    
C10   C20   A    
O25   P6    S    
C22   C37   D    
C4    H20   S    
C54   C55   S    
C34   C45   S    
C58   C60   S    
Ba1   Ba2   S    
C32   O21   D    
C63   P3    S    
C59   C61   A    
C5    O11   S    
C43   H35   S    
C67   H52   S    
O27   P3    S    
Ba1   O26   S    
C56   O24   S    
O9    P5    S    
C70   H61   S    
O23   P6    D    
O32   C70   S    
C14   C15   D    
C37   P1    S    
C22   C36   S    
Ba1   P2    S    
C6    H24   S    
C7    C8    S    
C7    H27   S    
C13   P8    S    
C1    Cl2   S    
C3    H17   S    
Ba2   O8    S    
C66   H11   S    
C13   C21   S    
C57   C58   D    
C68   H54   S    
C38   O33   S    
C67   H51   S    
O13   P2    S    
Ba1   O27   S    
O24   P1    S    
C12   Cl4   S    
C65   O2    S    
O8    P7    S    
C2    H1    S    
C17   C41   A    
Ba2   O12   S    
C19   C43   A    
C71   H63   S    
C3    O15   S    
C69   H58   S    
O4    P4    D    
C9    C18   A    
Ba2   O14   S    
C6    H25   S    
C65   C66   S    
C26   C30   A    
O28   P3    D    
C31   C32   A    
O10   P5    D    
C50   C62   A    
C37   C38   D    
C3    H16   S    
C51   C55   S    
C49   C53   D    
C71   H62   S    
C5    H22   S    
C5    Cl3   S    
C4    H19   S    
O14   P7    D    
C40   C43   A    
C8    H29   S    
C41   C42   A    
C7    O17   S    
C45   H2    S    
C52   P7    S    
C27   C28   A    
O7    P4    S    
Ba2   O13   S    
C29   C30   A    
C8    H28   S    
C46   C47   A    
C64   H8    S    
C17   C20   A    
C15   C16   S    
C10   O20   D    
O12   P1    S    
C65   O29   S    
C6    H23   S    
C39   N2    S    
C45   H3    S    
C56   Cl1   S    
C10   N1    Am   
C38   C39   S    
C20   C44   A    
O5    P4    S    
O1    P1    D    
C68   H55   S    
C11   C13   S    
C1    H15   S    
C67   H50   S    
C29   C33   A    
C58   H48   S    
C40   C41   A    
C1    C2    S    
C35   C39   D    
O33   C71   S    
C24   C40   A    
C15   H30   S    
C71   H64   S    
C42   C48   A    
C32   N2    Am   
O17   P8    S    
C16   N1    S    
C11   O31   S    
C8    O30   S    
C60   C63   A    
C24   C26   A    
C34   O7    S    
C22   H41   S    
Ba1   O8    S    
Ba1   O12   S    
C23   H49   S    
C2    O25   S    
C47   H38   S    
Ba2   O5    S    
C14   C21   D    
C44   C48   A    
C23   H21   S    
C4    H18   S    
C54   C57   S    
C62   P2    S    
C49   C52   S    
C30   C31   A    
C70   H59   S    
C9    O18   D    
Ba1   O5    S    
Ba2   P4    S    
O11   P5    S    
C9    N1    Am   
O22   P6    S    
Ba1   O22   S    
C3    C4    S    
C57   H46   S    
C50   H45   S    
C64   H7    S    
C28   H33   S    
C70   H60   S    
O2    P2    S    
C27   H34   S    
C14   P4    S    
C34   Cl6   S    
C12   C23   S    
C61   H43   S    
C59   C60   A    
O26   P2    D    
C45   H4    S    
C48   H39   S    
C5    C6    S    
C51   H42   S    
C61   C62   A    
Ba2   O6    S    
C2    H14   S    
C18   C19   A    
C24   C27   A    
C25   C26   A    
C44   O32   S    
Ba1   P1    S    
C36   P6    S    
C25   C42   A    
C1    H10   S    
C7    H26   S    
Ba1   O1    S    
C35   H32   S    
Ba2   O4    S    
C50   C63   A    
O6    P8    S    
C56   H5    S    
Ba2   O9    S    
C46   H36   S    
