data_mof_unit_20730.cif
_audit_creation_date              2012-12-10T17:57:25-0500
_audit_creation_method            fapswitch 2.2
_symmetry_space_group_name_H-M    P1
_symmetry_Int_Tables_number       1
_space_group_crystal_system       triclinic
_cell_length_a                    9.510556
_cell_length_b                    10.829076
_cell_length_c                    13.446285
_cell_angle_alpha                 89.605618
_cell_angle_beta                  71.942462
_cell_angle_gamma                 89.929804
_cell_volume                      1316.59896768

loop_
_atom_site_label
_atom_site_type_symbol
_atom_type_description
_atom_site_fract_x
_atom_site_fract_y
_atom_site_fract_z
_atom_type_partial_charge
C1    C     C_R   0.500020 0.737953 0.499897 0.782189
C2    C     C_R   0.432265 0.491602 0.979335 0.043957
C3    C     C_R   0.460417 0.449343 0.875077 -0.047078
C4    C     C_R   0.540405 0.470168 0.030918 0.018493
C5    C     C_R   0.672774 0.406871 0.977946 -0.065496
C6    C     C_R   0.685606 0.346703 0.883325 0.380010
C7    C     C_R   0.576562 0.363657 0.834669 0.173850
C8    C     C_R   0.520984 0.508784 0.133951 -0.243173
C9    C     C_R   0.764863 0.434739 0.126153 0.238342
C10   C     C_R   0.369346 0.492692 0.815910 -0.055446
C11   C     C_R   0.631067 0.936061 0.491385 -0.179894
C12   C     C_R   0.420272 0.494752 0.700523 0.845194
C13   C     C_R   0.631460 0.063788 0.490353 -0.128684
C14   C     C_R   0.500900 0.128233 0.497574 -0.002577
C15   C     C_R   0.370164 0.063983 0.505138 -0.177318
C16   C     C_R   0.369850 0.936247 0.505921 -0.182899
C17   C     C_R   0.500255 0.871799 0.499179 -0.019375
C18   C     C_R   0.900949 0.585534 0.556044 -0.005771
C19   C     C_R   0.049720 0.585268 0.556272 -0.019757
C20   C     C_R   0.098829 0.414059 0.444443 -0.003161
C21   C     C_R   0.949752 0.413613 0.445072 0.045446
C22   C     C_R   0.500668 0.262079 0.498323 0.837328
C23   C     C_R   0.579939 0.498232 0.299230 0.819423
C24   C     C_R   0.786921 0.398027 0.023418 -0.187136
C25   C     C_R   0.626788 0.484268 0.184421 -0.109268
C26   C     C_R   0.236051 0.552836 0.866702 -0.194836
C27   C     C_R   0.199030 0.580395 0.972096 -0.105911
C28   C     C_R   0.297322 0.554240 0.027286 -0.098535
Cu1   Cu    Cu3+1 0.359340 0.499980 0.500000 0.958967
Cu2   Cu    Cu3+1 0.640660 0.500020 0.500000 0.997406
H1    H     H_    0.733687 0.111821 0.484242 0.159568
H2    H     H_    0.268021 0.112123 0.510985 0.153121
H3    H     H_    0.267556 0.888248 0.512182 0.147180
H4    H     H_    0.825103 0.653940 0.601086 0.118181
H5    H     H_    0.085950 0.653400 0.601523 0.113306
H6    H     H_    0.174485 0.345313 0.399744 0.126991
H7    H     H_    0.912813 0.343805 0.401751 0.151152
H8    H     H_    0.892026 0.356773 0.980891 0.205105
H9    H     H_    0.421178 0.554041 0.179036 0.159253
H10   H     H_    0.163113 0.584037 0.823752 0.151576
H11   H     H_    0.263108 0.584251 0.107311 0.138227
H12   H     H_    0.096441 0.628020 0.010176 0.159606
H13   H     H_    0.733094 0.887923 0.485876 0.148345
N1    N     N_R   0.147940 0.499970 0.499970 -0.162323
N2    N     N_R   0.852060 0.500060 0.499990 -0.155328
O1    O     O_R   0.381250 0.680340 0.500010 -0.595411
O2    O     O_R   0.618820 0.680370 0.500010 -0.594670
O3    O     O_R   0.323240 0.499950 0.650980 -0.579036
O4    O     O_R   0.560810 0.499980 0.650980 -0.554096
O5    O     O_R   0.381180 0.319630 0.499990 -0.594875
O6    O     O_R   0.618750 0.319660 0.499990 -0.560841
O7    O     O_R   0.439190 0.500020 0.349020 -0.591939
O8    O     O_R   0.676760 0.500050 0.349020 -0.536863
Br1   Br    Br    0.925142 0.404394 0.181512 -0.596352
O9    O     O_3   0.806323 0.272343 0.836141 -0.554360
C29   C     C_3   0.783715 0.153924 0.883598 0.096185
H14   H     H_    0.676056 0.113320 0.883852 0.171675
H15   H     H_    0.786475 0.157679 0.965584 0.138227
C30   C     C_3   0.906614 0.068349 0.822418 -0.746212
H16   H     H_    0.015680 0.104961 0.822399 0.254984
H17   H     H_    0.890629 0.975009 0.858942 0.190060
H18   H     H_    0.905098 0.060863 0.740401 0.255593
Br2   Br    Br    0.569615 0.243338 0.731567 -0.530316

loop_
_geom_bond_atom_site_label_1
_geom_bond_atom_site_label_2
_ccdc_geom_bond_type
C2    C4    A    
O9    C29   S    
C9    C24   A    
C11   H13   S    
C6    C7    A    
C8    H9    S    
C16   H3    S    
C11   C13   A    
C6    O9    S    
Cu2   N2    S    
C1    C17   S    
C29   C30   S    
C12   O3    A    
Cu1   O1    S    
C22   O5    A    
C7    Br2   S    
C10   C26   A    
C12   O4    A    
C26   C27   A    
C9    C25   A    
C30   H16   S    
C3    C10   A    
C19   H5    S    
C13   C14   A    
C29   H14   S    
C8    C25   A    
C18   H4    S    
C27   H12   S    
C26   H10   S    
C23   O7    A    
Cu1   Cu2   S    
C5    C24   A    
C10   C12   S    
C15   H2    S    
C1    O2    A    
C20   N1    A    
Cu2   O4    S    
C29   H15   S    
C23   O8    A    
C3    C7    A    
C21   N2    A    
Cu1   O5    S    
C23   C25   S    
Cu1   N1    S    
C22   O6    A    
C5    C6    A    
Cu2   O8    S    
C1    O1    A    
C30   H17   S    
C2    C28   A    
Cu1   O3    S    
C24   H8    S    
Cu2   O6    S    
C18   N2    A    
C19   N1    A    
Cu2   O2    S    
C27   C28   A    
C21   H7    S    
C20   C21   A    
C14   C22   S    
C18   C19   A    
C4    C8    A    
C14   C15   A    
C4    C5    A    
C30   H18   S    
C2    C3    A    
C9    Br1   S    
C13   H1    S    
C11   C17   A    
C28   H11   S    
C15   C16   A    
C16   C17   A    
Cu1   O7    S    
C20   H6    S    
