data_mof_unit_37139.cif
_audit_creation_date              2013-03-05T15:40:19-0500
_audit_creation_method            fapswitch 2.2
_symmetry_space_group_name_H-M    P1
_symmetry_Int_Tables_number       1
_space_group_crystal_system       triclinic
_cell_length_a                    7.733792
_cell_length_b                    8.58112
_cell_length_c                    12.867602
_cell_angle_alpha                 90.417441
_cell_angle_beta                  86.795982
_cell_angle_gamma                 93.420177
_cell_volume                      851.093060912

loop_
_atom_site_label
_atom_site_type_symbol
_atom_site_description
_atom_site_fract_x
_atom_site_fract_y
_atom_site_fract_z
_atom_type_partial_charge
O1    O     O_R   0.609680 0.261530 0.506880 -0.617492
O2    O     O_R   0.390320 0.738470 0.493120 -0.617479
O3    O     O_R   0.323330 0.288220 0.488910 -0.625298
O4    O     O_R   0.676670 0.711780 0.511090 -0.625293
C1    C     C_R   0.454740 0.205232 0.497265 0.959281
C2    C     C_R   0.545260 0.794768 0.502735 0.959301
O5    O     O_R   0.619510 0.488830 0.661140 -0.600907
O6    O     O_R   0.380490 0.511170 0.338860 -0.600910
O7    O     O_R   0.333160 0.515520 0.643180 -0.589282
O8    O     O_R   0.666840 0.484480 0.356820 -0.589267
C3    C     C_R   0.463157 0.501541 0.700148 0.933648
C4    C     C_R   0.536844 0.498462 0.299851 0.933631
Zn1   Zn    Zn3+2 0.691200 0.482180 0.511990 1.030357
Zn2   Zn    Zn3+2 0.308800 0.517820 0.488010 1.030363
N1    N     N_2   0.054030 0.541640 0.471970 -0.140195
N2    N     N_2   0.945970 0.458360 0.528030 -0.140204
C5    C     C_R   0.563228 0.497764 0.187917 -0.297323
C6    C     C_R   0.436774 0.502241 0.812081 -0.297329
C7    C     C_R   0.292492 0.587078 0.971905 0.668808
C8    C     C_R   0.707509 0.412929 0.028091 0.668788
C9    C     C_R   0.293883 0.569586 0.864383 0.217873
C10   C     C_R   0.706134 0.430443 0.135612 0.217850
C11   C     C_R   0.569284 0.444996 0.867589 -0.143939
C12   C     C_R   0.430703 0.554988 0.132410 -0.143941
C13   C     C_R   0.569307 0.463594 0.973821 -0.110591
C14   C     C_R   0.430682 0.536393 0.026177 -0.110590
H1    H     H_    0.323945 0.610950 0.172682 0.251648
H2    H     H_    0.676036 0.389025 0.827317 0.251632
H3    H     H_    0.998778 0.617412 0.423745 0.221971
H4    H     H_    0.001222 0.382591 0.576258 0.221942
C15   C     C_2   0.430793 0.041891 0.495748 -0.335100
C16   C     C_2   0.569207 0.958109 0.504252 -0.335119
H5    H     H_    0.299936 0.991081 0.487667 0.190826
H6    H     H_    0.700064 0.008919 0.512333 0.190822
N3    N     N_R   0.848124 0.377273 0.189899 0.248485
O9    O     O_R   0.886981 0.232097 0.181546 -0.317906
O10   O     O_R   0.959416 0.478920 0.227931 -0.352466
N4    N     N_R   0.151948 0.622842 0.810086 0.248497
O11   O     O_R   0.113292 0.768077 0.818362 -0.317995
O12   O     O_R   0.040537 0.521263 0.772097 -0.352395
F1    F     F_    0.156050 0.652534 0.023096 -0.592353
F2    F     F_    0.843963 0.347499 0.976895 -0.592351

loop_
_geom_bond_atom_site_label_1
_geom_bond_atom_site_label_2
_geom_bond_distance
_ccdc_geom_bond_type
C4    C5    1.443391 S    
C8    F2    1.360324 S    
O7    Zn2   2.016339 S    
C15   H5    1.087913 S    
C3    C6    1.443371 S    
C6    C9    1.412621 A    
C2    C16   1.402974 S    
C5    C10   1.412640 A    
C12   H1    1.084755 S    
O6    C4    1.293492 A    
C11   H2    1.084756 S    
N4    O12   1.300932 A    
C10   N3    1.432546 S    
O7    C3    1.288629 A    
O2    C2    1.277175 A    
O3    Zn2   1.980264 S    
O8    C4    1.288630 A    
O1    C1    1.277175 A    
N1    N2    1.264256 D    
C7    C9    1.390104 A    
C8    C10   1.390113 A    
N1    H3    1.029132 S    
C11   C13   1.375090 A    
N4    O11   1.301111 A    
O2    Zn2   1.961440 S    
C1    C15   1.402975 S    
C5    C12   1.395966 A    
O1    Zn1   1.961440 S    
C8    C13   1.400842 A    
N2    H4    1.029131 S    
C6    C11   1.395959 A    
C7    F1    1.360321 S    
O5    Zn1   1.969068 S    
O4    C2    1.285004 A    
Zn1   N2    2.015129 S    
O4    Zn1   1.980263 S    
C7    C14   1.400846 A    
Zn2   N1    2.015127 S    
O5    C3    1.293483 A    
O6    Zn2   1.969068 S    
N3    O10   1.300927 A    
C13   C14   1.409453 A    
C15   C16   1.334476 D    
C9    N4    1.432532 S    
N3    O9    1.301117 A    
C12   C14   1.375090 A    
O3    C1    1.285004 A    
O8    Zn1   2.016338 S    
C16   H6    1.087913 S    
