data_mof_unit_34922.cif
_audit_creation_date              2012-12-11T15:12:33-0500
_audit_creation_method            fapswitch 2.2
_symmetry_space_group_name_H-M    P1
_symmetry_Int_Tables_number       1
_space_group_crystal_system       triclinic
_cell_length_a                    8.401669
_cell_length_b                    17.528979
_cell_length_c                    19.174201
_cell_angle_alpha                 95.129394
_cell_angle_beta                  94.961871
_cell_angle_gamma                 96.605973
_cell_volume                      2780.45639243

loop_
_atom_site_label
_atom_site_type_symbol
_atom_type_description
_atom_site_fract_x
_atom_site_fract_y
_atom_site_fract_z
_atom_type_partial_charge
Ba1   Ba    Ba6+2 0.157360 0.537160 0.466280 1.706412
Ba2   Ba    Ba6+2 0.652820 0.462830 0.533660 1.811989
C1    C     C_3   0.359102 0.732111 0.204324 -0.286124
C2    C     C_R   0.866530 0.744536 0.508281 0.068837
C3    C     C_R   0.928628 0.823826 0.514462 -0.109045
C4    C     C_3   0.876694 0.743483 0.284469 0.651151
C5    C     C_R   0.836750 0.878671 0.485955 -0.025643
C6    C     C_R   0.680678 0.853236 0.453254 -0.103084
C7    C     C_R   0.618852 0.774742 0.447988 -0.003856
C8    C     C_R   0.895463 0.167266 0.470500 0.404616
C9    C     C_R   0.948398 0.249309 0.482278 0.006189
C10   C     C_R   0.197695 0.221563 0.545751 0.008338
C11   C     C_R   0.143893 0.142546 0.536970 -0.120703
C12   C     C_3   0.381787 0.706349 0.277801 0.327265
C13   C     C_R   0.993054 0.114454 0.500968 -0.006110
C14   C     C_1   0.941998 0.030611 0.495963 0.162455
C15   C     C_1   0.897226 0.961258 0.491938 0.077991
C16   C     C_3   0.969414 0.824104 0.301905 -0.259889
C17   C     C_R   0.099107 0.273900 0.519813 -0.246092
C18   C     C_R   0.609694 0.533981 0.299574 -0.261696
C19   C     C_R   0.456027 0.496185 0.278391 0.006220
C20   C     C_R   0.394539 0.491535 0.207599 -0.070831
C21   C     C_R   0.492963 0.515924 0.155878 0.025454
C22   C     C_R   0.652776 0.550034 0.178202 -0.114731
C23   C     C_3   0.535614 0.696609 0.625387 0.299860
C24   C     C_R   0.709850 0.559764 0.249947 0.061786
C25   C     C_R   0.467973 0.573107 0.041519 -0.183488
C26   C     C_R   0.418704 0.572013 0.969109 0.416342
C27   C     C_R   0.331112 0.504831 0.932611 -0.009041
C28   C     C_3   0.741320 0.365870 0.321944 0.631523
C29   C     C_R   0.290569 0.441371 0.969964 -0.143609
C30   C     C_R   0.336867 0.441928 0.042082 0.396813
C31   C     C_R   0.430333 0.508963 0.079280 -0.057085
C32   C     C_R   0.122736 0.463075 0.829680 -0.057451
C33   C     C_R   0.075608 0.452865 0.757423 0.065955
C34   C     C_3   0.540397 0.783862 0.637332 -0.329972
C35   C     C_R   0.335658 0.519381 0.734944 0.016036
C36   C     C_R   0.385484 0.526224 0.807295 0.017651
C37   C     C_R   0.278725 0.499249 0.855591 0.089926
C38   C     C_R   0.179788 0.484688 0.711270 -0.233849
C39   C     C_3   0.652680 0.330044 0.251935 -0.252556
C40   C     C_3   0.054332 0.640260 0.681309 0.318945
C41   C     C_3   0.105288 0.672239 0.757927 0.366509
C42   C     C_3   0.253417 0.304835 0.373771 0.275123
C43   C     C_3   0.193772 0.220936 0.346141 0.198873
C44   C     C_3   0.884047 0.260216 0.761112 0.666887
C45   C     C_3   0.853174 0.226832 0.830186 0.628721
C46   C     C_3   0.357975 0.216259 0.711819 0.639598
C47   C     C_3   0.394510 0.158330 0.767869 0.604205
C48   C     C_R   0.713674 0.720979 0.473570 -0.292980
H1    H     H_    0.290382 0.656033 0.280967 0.086369
H2    H     H_    0.349593 0.305972 0.417559 -0.024380
H3    H     H_    0.236585 0.749361 0.194278 0.141623
H4    H     H_    0.174527 0.186390 0.390960 -0.001721
H5    H     H_    0.285662 0.195483 0.316040 0.094592
H6    H     H_    0.504020 0.688288 0.286106 0.008985
H7    H     H_    0.373773 0.683793 0.164647 0.069110
H8    H     H_    0.655377 0.682264 0.612432 0.023684
H9    H     H_    0.444035 0.676120 0.580392 0.053104
H10   H     H_    0.634273 0.808071 0.680201 0.171487
H11   H     H_    0.567982 0.810435 0.588828 0.063928
H12   H     H_    0.546884 0.289243 0.260602 0.151276
H13   H     H_    0.421721 0.798826 0.651599 0.123335
H14   H     H_    0.449782 0.782153 0.198906 0.167527
H15   H     H_    0.886981 0.865310 0.320229 0.101641
H16   H     H_    0.007226 0.286475 0.768801 0.077122
H17   H     H_    0.727350 0.200086 0.825383 0.068260
H18   H     H_    0.246589 0.189486 0.680590 0.044160
H19   H     H_    0.825869 0.727464 0.333812 -0.033382
H20   H     H_    0.507333 0.135957 0.756897 0.035803
H21   H     H_    0.606427 0.894425 0.432948 0.134779
H22   H     H_    0.220796 0.102694 0.557831 0.098899
H23   H     H_    0.614933 0.376996 0.222103 0.101349
H24   H     H_    0.046093 0.842755 0.542413 0.099728
H25   H     H_    0.664360 0.660799 0.470094 0.059428
H26   H     H_    0.143346 0.334798 0.526417 0.036538
H27   H     H_    0.506464 0.552498 0.825617 0.148155
H28   H     H_    0.534637 0.625330 0.068988 0.090091
H29   H     H_    0.271033 0.467638 0.193323 0.166414
H30   H     H_    0.222571 0.389907 0.941995 0.184890
H31   H     H_    0.038935 0.441671 0.865321 0.096847
H32   H     H_    0.733123 0.568455 0.140063 0.089285
H33   H     H_    0.139869 0.481071 0.655735 0.031809
H34   H     H_    0.733393 0.298050 0.220514 0.147372
H35   H     H_    0.655563 0.538543 0.354480 0.079764
H36   H     H_    0.067721 0.823235 0.344535 0.116389
H37   H     H_    0.022875 0.844122 0.254570 0.125082
H38   H     H_    0.653057 0.389894 0.354617 -0.002833
H39   H     H_    0.759610 0.771050 0.799655 0.370790
H40   H     H_    0.074635 0.234992 0.258084 0.350758
H41   H     H_    0.773855 0.253412 0.611684 0.367646
H42   H     H_    0.910885 0.141036 0.880034 0.332783
H43   H     H_    0.849012 0.263336 0.928310 0.318755
H44   H     H_    0.212296 0.357255 0.650713 0.312764
H45   H     H_    0.162629 0.624216 0.657404 -0.109720
H46   H     H_    0.315949 0.052293 0.781707 0.340045
H47   H     H_    0.561096 0.287436 0.927703 0.375760
H48   H     H_    0.504788 0.182665 0.395485 0.331892
H49   H     H_    0.512802 0.678526 0.966869 0.327030
H50   H     H_    0.796478 0.752275 0.187248 0.315272
H51   H     H_    0.120662 0.272466 0.004978 0.371065
H52   H     H_    0.923403 0.403686 0.274205 0.322947
H53   H     H_    0.962695 0.588843 0.679008 0.029452
H54   H     H_    0.189540 0.726224 0.759580 0.053494
H55   H     H_    0.168779 0.630437 0.785768 -0.075053
H56   H     H_    0.151635 0.332749 0.393107 0.024843
O1    O     O_2   0.143190 0.684560 0.534150 -0.467101
O2    O     O_2   0.760567 0.457788 0.745193 -0.393254
O3    O     O_3   0.778664 0.315312 0.746909 -0.582247
O4    O     O_3   0.882350 0.590230 0.535560 -0.498809
O5    O     O_3   0.431150 0.462160 0.416880 -0.505670
O6    O     O_2   0.634060 0.535220 0.669530 -0.406260
O7    O     O_3   0.496325 0.664491 0.687060 -0.623126
O8    O     O_2   0.517481 0.228030 0.532919 -0.450066
O9    O     O_3   0.478185 0.223891 0.664812 -0.592195
O10   O     O_3   0.372640 0.639320 0.408320 -0.505162
O11   O     O_2   0.288562 0.774494 0.457653 -0.477254
O12   O     O_3   0.315782 0.342067 0.318832 -0.635598
O13   O     O_3   0.990651 0.697674 0.646037 -0.608779
O14   O     O_3   0.361507 0.767400 0.327746 -0.585902
O15   O     O_2   0.176230 0.464730 0.330450 -0.422278
O16   O     O_3   0.952380 0.601530 0.373300 -0.461012
O17   O     O_2   0.039615 0.549171 0.249530 -0.468180
O18   O     O_2   0.819663 0.619825 0.801412 -0.302682
O19   O     O_2   0.996871 0.717637 0.880366 -0.251830
O20   O     O_3   0.846804 0.761767 0.769620 -0.495603
O21   O     O_3   0.048134 0.215967 0.303449 -0.654559
O22   O     O_2   0.992602 0.134241 0.697352 -0.228017
O23   O     O_3   0.982653 0.692346 0.260216 -0.623664
O24   O     O_2   0.705404 0.133049 0.684666 -0.291755
O25   O     O_3   0.870977 0.226682 0.615753 -0.543442
O26   O     O_3   0.954572 0.170272 0.842445 -0.624168
O27   O     O_3   0.881584 0.286307 0.885524 -0.728265
O28   O     O_2   0.266723 0.318314 0.815534 -0.273848
O29   O     O_2   0.463158 0.367934 0.739142 -0.261825
O30   O     O_3   0.166523 0.324416 0.684507 -0.641984
O31   O     O_3   0.273251 0.094915 0.758268 -0.674307
O32   O     O_2   0.264500 0.194026 0.889728 -0.138830
O33   O     O_2   0.513758 0.135798 0.898032 -0.308292
O34   O     O_2   0.667110 0.315390 0.465830 -0.456608
O35   O     O_3   0.531349 0.280126 0.876274 -0.470087
O36   O     O_2   0.758330 0.067456 0.362924 -0.260124
O37   O     O_2   0.607944 0.083595 0.465049 -0.302091
O38   O     O_3   0.611559 0.187752 0.377189 -0.488456
O39   O     O_3   0.450851 0.636592 0.933878 -0.706099
O40   O     O_3   0.749038 0.745320 0.232410 -0.781880
O41   O     O_2   0.397501 0.338135 0.134309 -0.287679
O42   O     O_2   0.119108 0.364731 0.112742 -0.329307
O43   O     O_3   0.238527 0.280417 0.017476 -0.415109
O44   O     O_3   0.858854 0.425189 0.310525 -0.724756
O45   O     O_3   0.927950 0.409760 0.464380 -0.483219
O46   O     O_3   0.437660 0.360670 0.591630 -0.458131
O47   O     O_3   0.814946 0.308587 0.353329 -0.554938
O48   O     O_3   0.379150 0.537830 0.583060 -0.503228
O49   O     O_3   0.857920 0.398470 0.626650 -0.482386
P1    P     P_3+3 0.970290 0.672580 0.555000 1.004428
P2    P     P_3+3 0.347000 0.441860 0.341200 1.006502
P3    P     P_3+3 0.919414 0.599465 0.281615 1.013975
P4    P     P_3+3 0.840010 0.327410 0.444950 1.098714
P5    P     P_3+3 0.875951 0.401782 0.719867 1.106546
P6    P     P_3+3 0.410404 0.739932 0.411750 0.958841
P7    P     P_3+3 0.461946 0.563714 0.670612 1.021581
P8    P     P_3+3 0.404527 0.258215 0.585071 1.048322
S1    S     S_3+6 0.937467 0.691647 0.804831 -0.033640
S2    S     S_3+6 0.861313 0.184634 0.689832 -0.024313
S3    S     S_3+6 0.318481 0.310189 0.742696 -0.071599
S4    S     S_3+6 0.424157 0.192107 0.860634 0.017821
S5    S     S_3+6 0.715028 0.125685 0.418269 -0.026849
S6    S     S_3+6 0.272768 0.355929 0.079689 -0.061128

loop_
_geom_bond_atom_site_label_1
_geom_bond_atom_site_label_2
_ccdc_geom_bond_type
C4    H19   S    
C12   H6    S    
C30   S6    S    
Ba2   O49   S    
C44   S2    S    
C47   O31   S    
C25   H28   S    
C40   H53   S    
C9    P4    S    
C5    C6    A    
C1    H14   S    
C25   C31   A    
C16   H15   S    
C9    C17   A    
C26   O39   S    
O13   P1    S    
O30   S3    S    
O38   S5    S    
O43   S6    S    
C26   C27   A    
H42   O26   S    
C22   C24   A    
C20   H29   S    
C47   S4    S    
C35   C38   A    
H43   O27   S    
C8    C13   A    
O34   P4    D    
C36   C37   A    
C32   C33   A    
C40   O13   S    
C28   O44   S    
H41   O25   S    
C13   C14   S    
Ba1   Ba2   S    
C41   H55   S    
C3    H24   S    
C22   H32   S    
C41   H54   S    
O7    P7    S    
C33   P5    S    
C28   O47   S    
Ba2   O4    S    
C29   C30   A    
H50   O40   S    
C14   C15   T    
C21   C31   S    
H44   O30   S    
H40   O21   S    
O28   S3    D    
C28   C39   S    
C24   P3    S    
C32   H31   S    
C34   H13   S    
O1    P1    D    
H48   O38   S    
C41   S1    S    
C42   H2    S    
H49   O39   S    
Ba2   O48   S    
O15   P2    D    
C19   C20   A    
C45   O27   S    
C38   H33   S    
C39   H12   S    
C4    O23   S    
O20   S1    S    
C45   H17   S    
O23   P3    S    
H39   O20   S    
Ba2   O46   S    
C4    C16   S    
O25   S2    S    
Ba2   O5    S    
O35   S4    S    
C32   C37   A    
O10   P6    S    
C29   H30   S    
H46   O31   S    
C3    C5    A    
C6    C7    A    
O11   P6    D    
C39   H34   S    
O36   S5    D    
C40   H45   S    
C2    C48   A    
O32   S4    D    
O45   P4    S    
O47   P4    S    
Ba1   P1    S    
O33   S4    D    
C35   C36   A    
C23   O7    S    
Ba1   O4    S    
C12   H1    S    
C42   O12   S    
C21   C22   A    
Ba2   O6    S    
C18   H35   S    
C27   C37   S    
O42   S6    D    
O16   P3    S    
C16   H36   S    
C46   H18   S    
C7    P6    S    
H47   O35   S    
C1    C12   S    
O14   P6    S    
H52   O44   S    
C46   O9    S    
C1    H7    S    
C8    S5    S    
C46   C47   S    
C11   H22   S    
Ba1   O1    S    
C43   H4    S    
C12   O14   S    
C47   H20   S    
C11   C13   A    
O22   S2    D    
O19   S1    D    
C40   C41   S    
Ba2   P4    S    
C28   H38   S    
C34   H11   S    
C42   C43   S    
Ba2   O45   S    
Ba1   O10   S    
C44   C45   S    
C17   H26   S    
C6    H21   S    
O17   P3    D    
C2    P1    S    
O49   P5    S    
C19   P2    S    
O48   P7    S    
C7    C48   A    
C2    C3    A    
C34   H10   S    
C5    C15   S    
C44   H16   S    
O2    P5    D    
C36   H27   S    
C42   H56   S    
O6    P7    D    
C16   H37   S    
C45   O26   S    
Ba2   O34   S    
C30   C31   A    
Ba1   P2    S    
C33   C38   A    
O5    P2    S    
C27   C29   A    
C48   H25   S    
Ba1   O5    S    
C10   P8    S    
C1    H3    S    
O24   S2    D    
O8    P8    D    
C18   C24   A    
C43   O21   S    
C4    O40   S    
C10   C17   A    
H51   O43   S    
O29   S3    D    
Ba1   O45   S    
O9    P8    S    
Ba1   O48   S    
Ba1   O15   S    
O37   S5    D    
O46   P8    S    
O4    P1    S    
C8    C9    A    
C23   C34   S    
C39   H23   S    
O41   S6    D    
C46   S3    S    
C10   C11   A    
C43   H5    S    
C18   C19   A    
C23   H8    S    
C44   O3    S    
C25   C26   A    
C20   C21   A    
O12   P2    S    
C23   H9    S    
O3    P5    S    
Ba1   O16   S    
C35   P7    S    
O18   S1    D    
