data_mof_unit_9372.cif
_audit_creation_date              2012-10-26T21:33:02-0400
_audit_creation_method            fapswitch 2.2
_symmetry_space_group_name_H-M    P1
_symmetry_Int_Tables_number       1
_space_group_crystal_system       triclinic
_cell_length_a                    28.296603
_cell_length_b                    18.432791
_cell_length_c                    17.020021
_cell_angle_alpha                 89.841111
_cell_angle_beta                  60.831458
_cell_angle_gamma                 89.574243
_cell_volume                      7751.4321881

loop_
_atom_site_label
_atom_site_type_symbol
_atom_type_description
_atom_site_fract_x
_atom_site_fract_y
_atom_site_fract_z
_atom_type_partial_charge
C1    C     C_R   0.702056 0.269510 0.675981 0.914471
C2    C     C_R   0.954388 0.635836 0.478667 0.471817
C3    C     C_R   0.071557 0.897278 0.936351 0.880118
C4    C     C_R   0.577451 0.594585 0.930623 0.922283
C5    C     C_R   0.426469 0.399658 0.065518 0.893433
C6    C     C_R   0.424827 0.598450 0.066772 0.928983
C7    C     C_R   0.571592 0.397313 0.936330 0.879147
C8    C     C_R   0.532344 0.002569 0.556603 -0.113803
C9    C     C_R   0.444286 0.001760 0.521543 -0.106265
C10   C     C_R   0.032954 0.509141 0.549443 -0.117472
C11   C     C_R   0.941165 0.508960 0.525906 -0.106640
C12   C     C_R   0.517011 0.067584 0.529092 -0.065713
C13   C     C_R   0.922182 0.381898 0.572128 0.458432
C14   C     C_R   0.457783 0.937785 0.554140 -0.053403
C15   C     C_R   0.472158 0.067488 0.512754 -0.063170
C16   C     C_R   0.501281 0.939142 0.574860 -0.076746
C17   C     C_R   0.010863 0.577545 0.543589 -0.027405
C18   C     C_R   0.956010 0.443969 0.554271 -0.056074
C19   C     C_R   0.968495 0.576462 0.518485 -0.030375
C20   C     C_R   0.005245 0.443341 0.557813 -0.069313
C21   C     C_R   0.601027 0.935919 0.578804 -0.004014
C22   C     C_R   0.388726 0.063012 0.464400 0.025022
C23   C     C_R   0.368218 0.939065 0.519424 0.016169
C24   C     C_R   0.033432 0.640184 0.564207 0.480655
C25   C     C_R   0.605208 0.067156 0.564672 0.011043
C26   C     C_R   0.112279 0.439519 0.532669 -0.013309
C27   C     C_R   0.888224 0.564775 0.461834 0.031351
C28   C     C_R   0.866470 0.443261 0.520926 0.020178
C29   C     C_R   0.105012 0.568022 0.565803 0.028393
C30   C     C_R   0.655669 0.935253 0.563328 -0.101742
C31   C     C_R   0.340982 0.063456 0.455236 -0.078980
C32   C     C_R   0.328883 0.937689 0.489343 -0.076174
C33   C     C_R   0.657170 0.065568 0.558745 -0.089252
C34   C     C_R   0.162791 0.437707 0.533433 -0.100767
C35   C     C_R   0.512842 0.882697 0.621075 0.559937
C36   C     C_R   0.841252 0.564227 0.451288 -0.076370
C37   C     C_R   0.828824 0.439150 0.487547 -0.077581
C38   C     C_R   0.157972 0.565677 0.555823 -0.076225
C39   C     C_R   0.681016 0.000098 0.559050 -0.303361
C40   C     C_R   0.315982 0.999501 0.458352 -0.328855
C41   C     C_R   0.184240 0.500667 0.545226 -0.315927
C42   C     C_R   0.816551 0.500007 0.454104 -0.324095
C43   C     C_R   0.579900 0.001621 0.565694 -0.019979
C44   C     C_R   0.400898 0.000905 0.500776 -0.038518
C45   C     C_R   0.083418 0.505755 0.549634 -0.027953
C46   C     C_R   0.453185 0.130719 0.488324 0.501629
C47   C     C_R   0.898846 0.505611 0.502772 -0.035811
C48   C     C_R   0.086951 0.377886 0.521389 0.045833
C49   C     C_R   0.923251 0.623673 0.436175 0.009592
C50   C     C_R   0.873093 0.388139 0.571555 -0.007207
C51   C     C_R   0.072376 0.630114 0.592632 -0.001904
C52   C     C_R   0.564139 0.877580 0.615916 -0.015944
C53   C     C_R   0.422165 0.123834 0.445665 0.005331
C54   C     C_R   0.377052 0.881213 0.565663 -0.011074
C55   C     C_R   0.578360 0.131411 0.564061 0.020304
C56   C     C_3   0.981865 0.362352 0.717678 -0.234280
C57   C     C_R   0.426599 0.875011 0.564659 0.490519
C58   C     C_3   0.928126 0.747461 0.540490 -0.231835
C59   C     C_3   0.957340 0.270937 0.516973 -0.259774
C60   C     C_3   0.055933 0.751467 0.498422 -0.213279
C61   C     C_3   0.438025 0.876802 0.759131 -0.268664
C62   C     C_3   0.421230 0.209334 0.605721 -0.294109
C63   C     C_3   0.479147 0.779839 0.485857 -0.294113
C64   C     C_3   0.589945 0.167827 0.375717 -0.288614
C65   C     C_3   0.562534 0.282666 0.093199 -0.324767
C66   C     C_3   0.333531 0.571721 0.988225 -0.235342
C67   C     C_3   0.419002 0.288614 0.904330 -0.301290
C68   C     C_R   0.547636 0.130425 0.521028 0.497890
C69   C     C_3   0.675516 0.532847 0.965189 -0.271798
C70   C     C_3   0.061959 0.782277 0.093182 -0.325296
C71   C     C_3   0.834117 0.073628 0.986821 -0.240656
C72   C     C_3   0.919657 0.787909 0.904404 -0.292411
C73   C     C_3   0.175411 0.033263 0.966126 -0.275006
C74   C     C_R   0.714918 0.255736 0.959438 0.152547
C75   C     C_R   0.273194 0.730552 0.053164 0.140461
C76   C     C_R   0.284691 0.256015 0.041746 0.156787
C77   C     C_R   0.298080 0.731383 0.324136 0.930662
C78   C     C_R   0.732139 0.717914 0.941949 0.153173
C79   C     C_R   0.214307 0.754636 0.959928 0.153322
C80   C     C_R   0.774098 0.232301 0.052309 0.142486
C81   C     C_R   0.784963 0.755721 0.041458 0.155927
C82   C     C_R   0.232022 0.218141 0.942062 0.153136
C83   C     C_R   0.690656 0.222447 0.044709 -0.106232
C84   C     C_R   0.298059 0.762734 0.967586 -0.099277
C85   C     C_R   0.283335 0.183669 0.018048 -0.229402
C86   C     C_R   0.734804 0.790685 0.964115 -0.215374
C87   C     C_R   0.189914 0.720991 0.045004 -0.104224
C88   C     C_R   0.298166 0.268690 0.324105 0.900501
C89   C     C_R   0.798895 0.264175 0.966457 -0.099443
C90   C     C_R   0.783186 0.683315 0.018390 -0.227944
C91   C     C_R   0.234263 0.290858 0.964843 -0.213042
C92   C     C_R   0.719631 0.211865 0.091136 -0.242635
C93   C     C_R   0.268926 0.775069 0.921699 -0.220193
C94   C     C_R   0.258077 0.165126 0.967663 -0.113306
C95   C     C_R   0.761125 0.809413 0.012911 -0.108804
C96   C     C_R   0.218766 0.710050 0.091615 -0.241349
C97   C     C_R   0.769565 0.276167 0.920812 -0.218436
C98   C     C_R   0.757857 0.664798 0.968101 -0.106705
C99   C     C_R   0.701767 0.731811 0.675969 0.898611
C100  C     C_R   0.260514 0.309626 0.013735 -0.109826
C101  C     C_R   0.633512 0.309986 0.955678 0.511057
C102  C     C_R   0.350127 0.665473 0.057913 0.500729
C103  C     C_R   0.360681 0.319478 0.048825 0.505165
C104  C     C_R   0.659851 0.646105 0.928808 0.517963
C105  C     C_R   0.133166 0.809484 0.955868 0.510492
C106  C     C_R   0.850836 0.166774 0.057190 0.497785
C107  C     C_R   0.860974 0.819082 0.048608 0.503800
C108  C     C_R   0.159778 0.146273 0.928998 0.520434
C109  C     C_R   0.611253 0.339430 0.903230 -0.190817
C110  C     C_R   0.202022 0.769448 0.676000 0.913346
C111  C     C_R   0.380525 0.649525 0.102620 -0.179032
C112  C     C_R   0.385038 0.344851 0.099621 -0.185433
C113  C     C_R   0.624696 0.639843 0.890988 -0.184478
C114  C     C_R   0.111100 0.839240 0.903294 -0.190013
C115  C     C_R   0.880879 0.150102 0.102317 -0.179997
C116  C     C_R   0.885199 0.844645 0.099517 -0.184229
C117  C     C_R   0.124726 0.139790 0.891009 -0.185811
C118  C     C_R   0.631456 0.320037 0.814653 -0.335111
C119  C     C_R   0.365786 0.677669 0.185980 -0.339091
C120  C     C_R   0.366786 0.322252 0.186584 -0.342436
C121  C     C_R   0.798146 0.231506 0.324097 0.924057
C122  C     C_R   0.635875 0.674811 0.812667 -0.330558
C123  C     C_R   0.131365 0.819940 0.814663 -0.336896
C124  C     C_R   0.865992 0.177931 0.185896 -0.337872
C125  C     C_R   0.866881 0.822137 0.186537 -0.342652
C126  C     C_R   0.135995 0.174574 0.812550 -0.331553
C127  C     C_R   0.678492 0.280510 0.772129 -0.039908
C128  C     C_R   0.319188 0.717677 0.229499 -0.050667
C129  C     C_R   0.321311 0.280220 0.228225 -0.044042
C130  C     C_R   0.681560 0.715902 0.770169 -0.044348
C131  C     C_R   0.178344 0.780275 0.772206 -0.038845
C132  C     C_R   0.798195 0.768643 0.324083 0.916941
C133  C     C_R   0.819512 0.218212 0.229279 -0.050943
C134  C     C_R   0.821422 0.780062 0.228144 -0.047350
C135  C     C_R   0.181627 0.215771 0.770110 -0.048301
C136  C     C_R   0.705379 0.257588 0.819701 -0.301786
C137  C     C_R   0.289399 0.737428 0.185567 -0.283334
C138  C     C_R   0.295004 0.255980 0.180487 -0.290982
C139  C     C_R   0.711943 0.732967 0.813774 -0.293003
C140  C     C_R   0.205060 0.757038 0.819931 -0.299800
C141  C     C_R   0.790078 0.238628 0.184972 -0.285970
C142  C     C_R   0.795202 0.755709 0.180305 -0.285992
C143  C     C_R   0.201791 0.231765 0.675952 0.918185
C144  C     C_R   0.211964 0.232950 0.813753 -0.298075
C145  C     C_R   0.683343 0.272475 0.911954 -0.037996
C146  C     C_R   0.305339 0.712554 0.098651 -0.045563
C147  C     C_R   0.314213 0.276335 0.090700 -0.046834
C148  C     C_R   0.701051 0.698539 0.894427 -0.038679
C149  C     C_R   0.182905 0.771749 0.912254 -0.038407
C150  C     C_R   0.806239 0.214192 0.097775 -0.044926
C151  C     C_R   0.814480 0.775985 0.090459 -0.047209
C152  C     C_R   0.200999 0.198665 0.894504 -0.038891
C153  C     C_R   0.691670 0.129360 0.534695 0.914943
C154  C     C_R   0.030880 0.378972 0.564937 0.549597
C155  C     C_R   0.302621 0.872150 0.484685 0.935809
C156  C     C_R   0.308612 0.129016 0.466241 0.912045
C157  C     C_R   0.690849 0.870406 0.537014 0.881418
C158  C     C_R   0.191224 0.629937 0.536619 0.925164
C159  C     C_R   0.802859 0.372508 0.483821 0.933371
C160  C     C_R   0.808786 0.629488 0.464566 0.919180
C161  C     C_R   0.194008 0.372069 0.524530 0.897156
C162  C     C_R   0.077480 0.094535 0.930609 0.922074
C163  C     C_R   0.926534 0.899583 0.065465 0.894937
C164  C     C_R   0.924921 0.098589 0.066687 0.928992
H1    H     H_    0.721872 0.999567 0.549140 0.196218
H2    H     H_    0.700045 0.185444 0.156210 0.130283
H3    H     H_    0.180884 0.003698 0.018017 0.199907
H4    H     H_    0.762600 0.865872 0.029026 0.134085
H5    H     H_    0.259985 0.109342 0.947848 0.137162
H6    H     H_    0.649502 0.203468 0.075330 0.141523
H7    H     H_    0.340129 0.778282 0.936496 0.140268
H8    H     H_    0.303005 0.141728 0.036727 0.135492
H9    H     H_    0.715774 0.833021 0.944744 0.138973
H10   H     H_    0.148756 0.702058 0.075314 0.144140
H11   H     H_    0.841042 0.279790 0.934780 0.145686
H12   H     H_    0.802573 0.641283 0.037504 0.136198
H13   H     H_    0.283374 0.999005 0.442074 0.193023
H14   H     H_    0.214967 0.333101 0.945864 0.140319
H15   H     H_    0.612656 0.340553 0.776605 0.199601
H16   H     H_    0.388633 0.663993 0.219977 0.197607
H17   H     H_    0.386067 0.341575 0.224129 0.199377
H18   H     H_    0.610830 0.666126 0.781494 0.198956
H19   H     H_    0.112685 0.840661 0.776519 0.197957
H20   H     H_    0.888570 0.163720 0.220189 0.197611
H21   H     H_    0.886085 0.841580 0.224152 0.197913
H22   H     H_    0.111025 0.165718 0.781281 0.199823
H23   H     H_    0.743806 0.229118 0.784973 0.178949
H24   H     H_    0.223597 0.499718 0.541526 0.197971
H25   H     H_    0.252962 0.770212 0.219563 0.180232
H26   H     H_    0.258510 0.223895 0.213734 0.182396
H27   H     H_    0.746185 0.769238 0.782455 0.177008
H28   H     H_    0.243438 0.728442 0.785282 0.180302
H29   H     H_    0.753690 0.271515 0.218928 0.182514
H30   H     H_    0.758712 0.723616 0.213523 0.182854
H31   H     H_    0.246201 0.269232 0.782439 0.177382
H32   H     H_    0.152627 0.351929 0.398695 0.202163
H33   H     H_    0.113734 0.280269 0.459326 0.222239
H34   H     H_    0.970136 0.663562 0.311095 0.176164
H35   H     H_    0.784512 0.498860 0.436492 0.191957
H36   H     H_    0.923573 0.723215 0.381445 0.224509
H37   H     H_    0.818989 0.353875 0.696067 0.172350
H38   H     H_    0.840644 0.288309 0.617241 0.238745
H39   H     H_    0.035652 0.674584 0.717046 0.175705
H40   H     H_    0.079439 0.731037 0.637786 0.221735
H41   H     H_    0.583422 0.773440 0.628912 0.230774
H42   H     H_    0.600195 0.834857 0.686487 0.171154
H43   H     H_    0.467408 0.174365 0.327009 0.163672
H44   H     H_    0.421412 0.228536 0.407847 0.241696
H45   H     H_    0.325576 0.842446 0.689293 0.167338
H46   H     H_    0.789469 0.302275 0.855602 0.136620
H47   H     H_    0.347510 0.779791 0.606851 0.245390
H48   H     H_    0.534226 0.195572 0.671603 0.151092
H49   H     H_    0.581207 0.240020 0.581245 0.235414
H50   H     H_    0.946006 0.395406 0.729279 0.161877
H51   H     H_    0.011665 0.396362 0.725580 0.131456
H52   H     H_    0.967628 0.319873 0.770457 0.188656
H53   H     H_    0.913262 0.725171 0.609417 0.181559
H54   H     H_    0.893798 0.751711 0.526479 0.149357
H55   H     H_    0.942375 0.803446 0.539844 0.172524
H56   H     H_    0.969109 0.218202 0.534175 0.196459
H57   H     H_    0.199120 0.683394 0.156522 0.139350
H58   H     H_    0.994629 0.295706 0.461956 0.153620
H59   H     H_    0.928050 0.259590 0.492722 0.144926
H60   H     H_    0.069509 0.726417 0.431222 0.180283
H61   H     H_    0.091880 0.759507 0.506995 0.135874
H62   H     H_    0.039511 0.806170 0.497926 0.172747
H63   H     H_    0.414821 0.918644 0.744602 0.136724
H64   H     H_    0.460555 0.902239 0.790207 0.148476
H65   H     H_    0.408331 0.838913 0.809057 0.184422
H66   H     H_    0.430271 0.172240 0.648470 0.143695
H67   H     H_    0.378900 0.201568 0.619306 0.160022
H68   H     H_    0.261686 0.366042 0.030313 0.134219
H69   H     H_    0.424448 0.265706 0.625163 0.189061
H70   H     H_    0.492284 0.724289 0.492101 0.195108
H71   H     H_    0.516088 0.813848 0.451551 0.152615
H72   H     H_    0.458783 0.776222 0.444136 0.155596
H73   H     H_    0.573719 0.122464 0.353073 0.143299
H74   H     H_    0.630339 0.152995 0.367518 0.154115
H75   H     H_    0.595656 0.214834 0.331176 0.190074
H76   H     H_    0.569162 0.224619 0.072246 0.126765
H77   H     H_    0.529093 0.305204 0.083934 0.171985
H78   H     H_    0.549199 0.284459 0.166207 0.190749
H79   H     H_    0.759463 0.608933 0.948800 0.139115
H80   H     H_    0.338091 0.532861 0.034393 0.154877
H81   H     H_    0.348534 0.544063 0.922433 0.196777
H82   H     H_    0.290016 0.584618 0.014127 0.145406
H83   H     H_    0.400878 0.233883 0.912206 0.150553
H84   H     H_    0.453844 0.286094 0.917537 0.149453
H85   H     H_    0.434905 0.305255 0.833220 0.185673
H86   H     H_    0.715706 0.535095 0.903106 0.110777
H87   H     H_    0.648070 0.501016 0.949781 0.190339
H88   H     H_    0.680695 0.502775 0.017061 0.201406
H89   H     H_    0.068485 0.724213 0.072294 0.128529
H90   H     H_    0.288946 0.801463 0.856668 0.133465
H91   H     H_    0.028690 0.805009 0.083576 0.171010
H92   H     H_    0.048426 0.784090 0.166260 0.191178
H93   H     H_    0.790708 0.086894 0.012363 0.145997
H94   H     H_    0.838298 0.034459 0.033051 0.156706
H95   H     H_    0.849197 0.046162 0.920917 0.194982
H96   H     H_    0.901629 0.733100 0.912381 0.152948
H97   H     H_    0.954364 0.785672 0.917978 0.145279
H98   H     H_    0.935747 0.804316 0.833174 0.194229
H99   H     H_    0.215474 0.035367 0.903764 0.108973
H100  H     H_    0.147860 0.001020 0.951393 0.192012
N1    N     N_3   0.113114 0.334356 0.441220 -0.473570
N2    N     N_3   0.929975 0.668756 0.362248 -0.442467
N3    N     N_3   0.828601 0.342690 0.629717 -0.422662
N4    N     N_3   0.073485 0.677230 0.659063 -0.442413
N5    N     N_3   0.571555 0.820937 0.667300 -0.405337
N6    N     N_3   0.427488 0.176662 0.379638 -0.428021
N7    N     N_3   0.334063 0.833487 0.623033 -0.413019
N8    N     N_3   0.574196 0.192628 0.619212 -0.418189
O1    O     O_R   0.746490 0.236330 0.638080 -0.648759
O2    O     O_R   0.325830 0.813840 0.483730 -0.626337
O3    O     O_R   0.325830 0.186160 0.483730 -0.620270
O4    O     O_R   0.674170 0.813840 0.516270 -0.634477
O5    O     O_R   0.174170 0.686160 0.516270 -0.637010
O6    O     O_R   0.825830 0.313840 0.483730 -0.632694
O7    O     O_R   0.825830 0.686160 0.483730 -0.636807
O8    O     O_R   0.174170 0.313840 0.516270 -0.637325
O9    O     O_R   0.739960 0.127620 0.525000 -0.636610
O10   O     O_R   0.260040 0.872380 0.475000 -0.638169
O11   O     O_R   0.260040 0.127620 0.475000 -0.629350
O12   O     O_R   0.253510 0.763670 0.361920 -0.640687
O13   O     O_R   0.739960 0.872380 0.525000 -0.626106
O14   O     O_R   0.239960 0.627620 0.525000 -0.634088
O15   O     O_R   0.760040 0.372380 0.475000 -0.635880
O16   O     O_R   0.760040 0.627620 0.475000 -0.626228
O17   O     O_R   0.239960 0.372380 0.525000 -0.629089
O18   O     O_R   0.680700 0.294870 0.629350 -0.634624
O19   O     O_R   0.319300 0.705130 0.370650 -0.625598
O20   O     O_R   0.319300 0.294870 0.370650 -0.631979
O21   O     O_R   0.680700 0.705130 0.629350 -0.634458
O22   O     O_R   0.180700 0.794870 0.629350 -0.644375
O23   O     O_R   0.253510 0.236330 0.361920 -0.647366
O24   O     O_R   0.819300 0.205130 0.370650 -0.628202
O25   O     O_R   0.819300 0.794870 0.370650 -0.634261
O26   O     O_R   0.180700 0.205130 0.629350 -0.618689
O27   O     O_R   0.062020 0.072840 0.007170 -0.575484
O28   O     O_R   0.937980 0.927160 0.992830 -0.574778
O29   O     O_R   0.937980 0.072840 0.992830 -0.569240
O30   O     O_R   0.062020 0.927160 0.007170 -0.584664
O31   O     O_R   0.562020 0.572840 0.007170 -0.575415
O32   O     O_R   0.437980 0.427160 0.992830 -0.574954
O33   O     O_R   0.437980 0.572840 0.992830 -0.567923
O34   O     O_R   0.746490 0.763670 0.638080 -0.642194
O35   O     O_R   0.562020 0.427160 0.007170 -0.583966
O36   O     O_R   0.947860 0.073950 0.109290 -0.630076
O37   O     O_R   0.052140 0.926050 0.890710 -0.635761
O38   O     O_R   0.052140 0.073950 0.890710 -0.626921
O39   O     O_R   0.947860 0.926050 0.109290 -0.640336
O40   O     O_R   0.447860 0.573950 0.109290 -0.630193
O41   O     O_R   0.552140 0.426050 0.890710 -0.635372
O42   O     O_R   0.552140 0.573950 0.890710 -0.625676
O43   O     O_R   0.447860 0.426050 0.109290 -0.639828
O44   O     O_3   0.005596 0.328058 0.632680 -0.557296
O45   O     O_R   0.246490 0.736330 0.638080 -0.644822
O46   O     O_3   0.971896 0.705585 0.475020 -0.602963
O47   O     O_3   0.934093 0.315098 0.594765 -0.573650
O48   O     O_3   0.014622 0.709965 0.568641 -0.597714
O49   O     O_3   0.472958 0.837000 0.681243 -0.532553
O50   O     O_3   0.458694 0.199938 0.513595 -0.559197
O51   O     O_3   0.443411 0.806265 0.572796 -0.563540
O52   O     O_3   0.553522 0.188200 0.465209 -0.553269
O53   O     O_3   0.610222 0.324187 0.047003 -0.598139
O54   O     O_3   0.364090 0.635372 0.974811 -0.599371
O55   O     O_3   0.380027 0.340147 0.960179 -0.601933
O56   O     O_R   0.753510 0.263670 0.361920 -0.636123
O57   O     O_3   0.653727 0.602459 0.999498 -0.599195
O58   O     O_3   0.109788 0.823561 0.047233 -0.599176
O59   O     O_3   0.864915 0.136967 0.973896 -0.603569
O60   O     O_3   0.880520 0.839454 0.959816 -0.603510
O61   O     O_3   0.153529 0.102925 0.999995 -0.598379
O62   O     O_R   0.753510 0.736330 0.361920 -0.634084
O63   O     O_R   0.246490 0.263670 0.638080 -0.639087
O64   O     O_R   0.674170 0.186160 0.516270 -0.614794
Zn1   Zn    Zn3+2 0.792340 0.208750 0.507670 0.930551
Zn2   Zn    Zn3+2 0.494040 0.500000 0.919480 0.992076
Zn3   Zn    Zn3+2 0.005960 0.000000 0.080520 0.984141
Zn4   Zn    Zn3+2 0.994040 0.000000 0.919480 0.986571
Zn5   Zn    Zn3+2 0.207660 0.791250 0.492330 0.918672
Zn6   Zn    Zn3+2 0.207660 0.208750 0.492330 0.945732
Zn7   Zn    Zn3+2 0.792340 0.791250 0.507670 0.916253
Zn8   Zn    Zn3+2 0.292340 0.708750 0.507670 0.944101
Zn9   Zn    Zn3+2 0.707660 0.291250 0.492330 0.957119
Zn10  Zn    Zn3+2 0.707660 0.708750 0.492330 0.945645
Zn11  Zn    Zn3+2 0.292340 0.291250 0.507670 0.946501
Zn12  Zn    Zn3+2 0.505960 0.500000 0.080520 0.989048

loop_
_geom_bond_atom_site_label_1
_geom_bond_atom_site_label_2
_ccdc_geom_bond_type
C28   C47   A    
C82   C94   A    
C36   C42   A    
C74   C83   A    
C34   C161  S    
C95   H4    S    
C79   C87   A    
C144  H31   S    
C66   O54   S    
O62   Zn10  S    
C71   H94   S    
C72   H97   S    
C61   H63   S    
C124  C133  A    
C40   H13   S    
O17   Zn11  S    
C16   C35   A    
C81   C95   A    
C58   H53   S    
H43   N6    S    
C90   H12   S    
C37   C42   A    
C87   H10   S    
C56   H51   S    
C123  H19   S    
C131  C140  A    
C113  C122  A    
C10   C20   A    
C91   C100  A    
C22   C53   A    
C117  C126  A    
C64   H74   S    
C73   H100  S    
C78   C148  S    
C79   C149  S    
C119  C128  A    
C84   H7    S    
C24   C51   A    
C8    C16   A    
O7    Zn7   S    
H47   N7    S    
C102  C111  A    
C109  C118  A    
C67   O55   S    
H40   N4    S    
O5    Zn5   S    
O22   Zn5   S    
C85   H8    S    
C4    C113  S    
C127  C136  A    
C97   H46   S    
C70   H92   S    
C112  C120  A    
C93   H90   S    
C158  O5    A    
C106  O59   S    
O4    Zn10  S    
C82   C91   A    
C29   C45   A    
C108  O61   S    
C4    O31   A    
C142  C151  A    
C80   C92   A    
O36   Zn3   S    
C164  O36   A    
C142  H30   S    
C110  C131  S    
C81   C90   A    
C13   C18   A    
C101  O53   S    
C46   O50   S    
H44   N6    S    
C66   H82   S    
C14   C57   A    
C50   N3    S    
C2    C19   A    
C88   O20   A    
O24   Zn1   S    
C25   C55   A    
C90   C98   A    
O28   Zn4   S    
C161  O8    A    
C156  O11   A    
C76   C100  A    
C106  C115  A    
C9    C15   A    
C68   O52   S    
O56   Zn9   S    
C48   N1    S    
C46   C53   A    
C162  O38   A    
C60   H62   S    
O43   Zn12  S    
C77   O12   A    
C159  O15   A    
O3    Zn11  S    
C86   C95   A    
C69   H87   S    
O40   Zn12  S    
C132  C134  S    
C96   H57   S    
H37   N3    S    
C76   C85   A    
C56   O44   S    
C143  O26   A    
C11   C18   A    
C106  C150  A    
C6    C111  S    
C110  O45   A    
C104  O57   S    
C25   C43   A    
C157  O4    A    
C31   C156  S    
C103  C147  A    
C49   N2    S    
C12   C68   A    
C101  C145  A    
C59   H58   S    
C124  H20   S    
H39   N4    S    
C33   C153  S    
C75   C84   A    
C71   H95   S    
C111  C119  A    
C67   H84   S    
C26   C45   A    
C63   H72   S    
C67   H83   S    
O16   Zn10  S    
C62   H66   S    
C29   C38   A    
O1    Zn1   S    
C8    C12   A    
C84   C93   A    
C107  C151  A    
C135  C143  S    
C7    O35   A    
C88   C129  S    
C155  O2    A    
C65   O53   S    
C141  C150  A    
C75   C146  S    
O25   Zn7   S    
C139  C148  A    
C120  C129  A    
C38   C41   A    
C81   C151  S    
C65   H77   S    
C143  O63   A    
C2    O46   S    
O33   Zn2   S    
C161  O17   A    
O45   Zn8   S    
O19   Zn8   S    
C72   O60   S    
C10   C45   A    
C107  O60   S    
C141  H29   S    
C114  C123  A    
C116  C125  A    
O29   Zn4   S    
C118  C127  A    
O39   Zn3   S    
C35   C52   A    
C29   C51   A    
C27   C47   A    
C48   C154  A    
C59   O47   S    
C108  C117  A    
C3    C114  S    
C70   O58   S    
C121  O56   A    
C5    C112  S    
C117  C162  S    
C71   H93   S    
C72   H98   S    
C88   O23   A    
C37   C159  S    
C144  C152  A    
C63   H70   S    
C58   H54   S    
C28   C37   A    
C57   O51   S    
C30   C39   A    
C62   O50   S    
H33   N1    S    
C63   O51   S    
C107  C116  A    
C56   H52   S    
C5    O43   A    
C13   C50   A    
C53   N6    S    
C103  O55   S    
C15   C46   A    
C140  C149  A    
C162  O27   A    
C73   H99   S    
C25   C33   A    
C54   C57   A    
C125  C134  A    
C30   C157  S    
C71   O59   S    
O31   Zn12  S    
C104  C148  A    
C116  C163  S    
C11   C47   A    
C8    C43   A    
C73   H3    S    
C55   C68   A    
C110  O22   A    
C11   C19   A    
O21   Zn10  S    
C42   H35   S    
C139  H27   S    
C59   H56   S    
O42   Zn2   S    
H48   N8    S    
C101  C109  A    
C91   H14   S    
C31   C40   A    
C80   C89   A    
C74   C145  S    
C108  C152  A    
C154  O44   S    
C6    O40   A    
C61   H65   S    
C65   H76   S    
O26   Zn6   S    
C153  O64   A    
C3    O30   A    
O63   Zn11  S    
C26   C48   A    
C60   O48   S    
C62   H69   S    
O9    Zn1   S    
C34   C41   A    
C130  C139  A    
C75   C96   A    
C6    O33   A    
C61   H64   S    
C61   O49   S    
C126  H22   S    
C38   C158  S    
C157  O13   A    
C23   C44   A    
C41   H24   S    
O11   Zn6   S    
C9    C14   A    
O35   Zn12  S    
C134  C142  A    
C137  C146  A    
C52   N5    S    
C12   C15   A    
C51   N4    S    
C132  O62   A    
C98   H79   S    
C59   H59   S    
C69   H86   S    
C121  O24   A    
O20   Zn11  S    
C126  C135  A    
C119  H16   S    
C89   H11   S    
C163  O39   A    
C115  C124  A    
C99   C130  S    
C123  C131  A    
C99   O21   A    
C70   H91   S    
C79   C93   A    
C27   C36   A    
C21   C30   A    
C133  C141  A    
C86   H9    S    
C23   C32   A    
C164  O29   A    
C163  O28   A    
C66   H80   S    
H49   N8    S    
C104  C113  A    
C1    O18   A    
O13   Zn7   S    
C63   H71   S    
C62   H67   S    
H42   N5    S    
O12   Zn5   S    
C156  O3    A    
O41   Zn2   S    
C103  C112  A    
C55   N8    S    
C82   C152  S    
C66   H81   S    
C39   H1    S    
O27   Zn3   S    
C13   O47   S    
O38   Zn4   S    
C80   C150  S    
C83   C92   A    
C105  O58   S    
C33   C39   A    
C20   C154  A    
O37   Zn4   S    
C125  H21   S    
H34   N2    S    
C94   H5    S    
C10   C17   A    
C83   H6    S    
O64   Zn9   S    
C99   O34   A    
C60   H61   S    
C115  C164  S    
C64   H75   S    
C69   H88   S    
C21   C43   A    
C28   C50   A    
C26   C34   A    
C22   C44   A    
C129  C138  A    
C76   C147  S    
O15   Zn9   S    
C78   C98   A    
C120  H17   S    
C1    O1    A    
C136  C145  A    
C118  H15   S    
C78   C86   A    
C85   C94   A    
C32   C40   A    
C3    O37   A    
H32   N1    S    
C138  H26   S    
C160  O7    A    
C60   H60   S    
C70   H89   S    
C74   C97   A    
H41   N5    S    
C17   C24   A    
C22   C31   A    
C153  O9    A    
O6    Zn1   S    
C105  C114  A    
C100  H68   S    
C4    O42   A    
C73   O61   S    
C7    O41   A    
O2    Zn8   S    
C7    C109  S    
C89   C97   A    
C160  O16   A    
C58   O46   S    
C128  C137  A    
C2    C49   A    
C92   H2    S    
C32   C155  S    
C58   H55   S    
H45   N7    S    
C138  C147  A    
C87   C96   A    
C54   N7    S    
C64   H73   S    
C132  O25   A    
C77   C128  S    
O34   Zn7   S    
C137  H25   S    
C64   O52   S    
C135  C144  A    
C72   H96   S    
C136  H23   S    
C140  H28   S    
C14   C16   A    
C35   O49   S    
O14   Zn8   S    
C67   H85   S    
C23   C54   A    
H38   N3    S    
C158  O14   A    
C9    C44   A    
C56   H50   S    
C1    C127  S    
C77   O19   A    
C69   O57   S    
C105  C149  A    
C65   H78   S    
C155  O10   A    
O18   Zn9   S    
C24   O48   S    
C102  C146  A    
O10   Zn5   S    
H36   N2    S    
C17   C19   A    
O32   Zn2   S    
C18   C20   A    
C102  O54   S    
C5    O32   A    
C36   C160  S    
O30   Zn3   S    
C27   C49   A    
C122  H18   S    
C159  O6    A    
O23   Zn6   S    
C121  C133  S    
O8    Zn6   S    
C122  C130  A    
C21   C52   A    
