data_mof_unit_8627.cif
_audit_creation_date              2013-03-05T15:42:41-0500
_audit_creation_method            fapswitch 2.2
_symmetry_space_group_name_H-M    P1
_symmetry_Int_Tables_number       1
_space_group_crystal_system       triclinic
_cell_length_a                    19.168592
_cell_length_b                    11.172768
_cell_length_c                    18.732858
_cell_angle_alpha                 90.384449
_cell_angle_beta                  91.873555
_cell_angle_gamma                 90.939715
_cell_volume                      4009.15616735

loop_
_atom_site_label
_atom_site_type_symbol
_atom_site_description
_atom_site_fract_x
_atom_site_fract_y
_atom_site_fract_z
_atom_type_partial_charge
O1    O     O_R   0.788190 0.043000 0.172520 -0.514444
O2    O     O_R   0.211810 0.043000 0.827480 -0.525956
O3    O     O_R   0.288190 0.543000 0.172520 -0.523886
O4    O     O_R   0.711810 0.543000 0.827480 -0.514726
O5    O     O_R   0.766240 0.292300 0.176860 -0.529184
O6    O     O_R   0.233760 0.292300 0.823140 -0.527629
O7    O     O_R   0.266240 0.792300 0.176860 -0.531284
O8    O     O_R   0.733760 0.792300 0.823140 -0.534856
C1    C     C_R   0.730902 0.380552 0.148897 0.566862
C2    C     C_R   0.285348 0.343675 0.861504 0.548717
C3    C     C_R   0.230939 0.878352 0.147809 0.566190
C4    C     C_R   0.770391 0.877877 0.852742 0.562677
O9    O     O_R   0.670310 0.409160 0.168720 -0.413439
O10   O     O_R   0.329690 0.409160 0.831280 -0.430589
O11   O     O_R   0.170310 0.909160 0.168720 -0.409064
O12   O     O_R   0.829690 0.909160 0.831280 -0.415693
O13   O     O_R   0.556160 0.251900 0.173380 -0.481822
O14   O     O_R   0.443840 0.251900 0.826620 -0.470614
O15   O     O_R   0.056160 0.751900 0.173380 -0.486650
O16   O     O_R   0.943840 0.751900 0.826620 -0.494251
C5    C     C_R   0.536123 0.153363 0.142896 0.542864
C6    C     C_R   0.468264 0.156263 0.855060 0.539219
C7    C     C_R   0.034398 0.654837 0.143564 0.544851
C8    C     C_R   0.967961 0.656761 0.855168 0.532689
O17   O     O_R   0.545410 0.050140 0.168240 -0.541741
O18   O     O_R   0.454590 0.050140 0.831760 -0.521655
O19   O     O_R   0.045410 0.550140 0.168240 -0.538049
O20   O     O_R   0.954590 0.550140 0.831760 -0.527088
O21   O     O_R   0.681530 0.958350 0.176970 -0.491549
O22   O     O_R   0.318470 0.958350 0.823030 -0.503476
O23   O     O_R   0.181530 0.458350 0.176970 -0.501413
O24   O     O_R   0.818470 0.458350 0.823030 -0.493944
C9    C     C_R   0.740230 0.970627 0.147800 0.585734
C10   C     C_R   0.258932 0.973445 0.852556 0.534387
C11   C     C_R   0.241381 0.467459 0.149771 0.564147
C12   C     C_R   0.760428 0.476583 0.854142 0.563755
O25   O     O_R   0.788610 0.044480 0.334450 -0.521283
O26   O     O_R   0.211390 0.044480 0.665550 -0.522840
O27   O     O_R   0.288610 0.544480 0.334450 -0.540558
O28   O     O_R   0.711390 0.544480 0.665550 -0.530452
O29   O     O_R   0.766630 0.293670 0.326970 -0.535826
O30   O     O_R   0.233370 0.293670 0.673030 -0.512683
O31   O     O_R   0.266630 0.793670 0.326970 -0.527111
O32   O     O_R   0.733370 0.793670 0.673030 -0.515593
C13   C     C_R   0.733221 0.383136 0.351427 0.572110
C14   C     C_R   0.269010 0.381734 0.646428 0.581667
C15   C     C_R   0.230511 0.877259 0.355311 0.582232
C16   C     C_R   0.765945 0.886991 0.650308 0.576311
O33   O     O_R   0.670730 0.410640 0.330640 -0.497669
O34   O     O_R   0.329270 0.410640 0.669360 -0.463654
O35   O     O_R   0.170730 0.910640 0.330640 -0.470538
O36   O     O_R   0.829270 0.910640 0.669360 -0.490130
O37   O     O_R   0.556550 0.253260 0.323480 -0.512461
O38   O     O_R   0.443450 0.253260 0.676520 -0.500000
O39   O     O_R   0.056550 0.753260 0.323480 -0.507469
O40   O     O_R   0.943450 0.753260 0.676520 -0.509368
C17   C     C_R   0.532888 0.158191 0.352579 0.521280
C18   C     C_R   0.466708 0.155926 0.646366 0.539277
C19   C     C_R   0.030774 0.658180 0.351725 0.536942
C20   C     C_R   0.966455 0.657673 0.646085 0.527302
O41   O     O_R   0.545830 0.051610 0.330160 -0.539261
O42   O     O_R   0.454170 0.051610 0.669840 -0.528338
O43   O     O_R   0.045830 0.551610 0.330160 -0.521855
O44   O     O_R   0.954170 0.551610 0.669840 -0.524148
O45   O     O_R   0.681920 0.959720 0.327070 -0.459207
O46   O     O_R   0.318080 0.959720 0.672930 -0.472193
O47   O     O_R   0.181920 0.459720 0.327070 -0.465829
O48   O     O_R   0.818080 0.459720 0.672930 -0.460264
C21   C     C_R   0.730670 0.015808 0.364853 0.572220
C22   C     C_R   0.255867 0.966413 0.645814 0.567762
C23   C     C_R   0.242970 0.469032 0.355547 0.581337
C24   C     C_R   0.758544 0.479668 0.640254 0.587919
Cr1   Cr    Cr6+3 0.772820 0.169820 0.252640 1.018041
Cr2   Cr    Cr6+3 0.227180 0.169820 0.747360 1.015939
Cr3   Cr    Cr6+3 0.272820 0.669820 0.252640 1.008636
Cr4   Cr    Cr6+3 0.727180 0.669820 0.747360 1.026990
Cr5   Cr    Cr6+3 0.615040 0.323610 0.249150 1.095034
Cr6   Cr    Cr6+3 0.384960 0.323610 0.750850 1.124726
Cr7   Cr    Cr6+3 0.115040 0.823610 0.249150 1.118161
Cr8   Cr    Cr6+3 0.884960 0.823610 0.750850 1.102664
Cr9   Cr    Cr6+3 0.616720 0.011130 0.250660 1.050878
Cr10  Cr    Cr6+3 0.383280 0.011130 0.749340 1.061192
Cr11  Cr    Cr6+3 0.116720 0.511130 0.250660 1.069114
Cr12  Cr    Cr6+3 0.883280 0.511130 0.749340 1.072365
O49   O     O_3   0.668190 0.168190 0.250820 -0.300900
O50   O     O_3   0.331810 0.168190 0.749180 -0.295873
O51   O     O_3   0.168190 0.668190 0.250820 -0.287538
O52   O     O_3   0.831810 0.668190 0.749180 -0.287023
C25   C     C_3   0.517727 0.271780 0.975540 -0.020221
C26   C     C_3   0.463813 0.236101 0.032430 -0.058375
C27   C     C_3   0.010298 0.779640 0.975336 -0.055676
C28   C     C_3   0.957299 0.738707 0.031630 -0.085456
C29   C     C_3   0.571937 0.190715 0.012118 -0.133795
C30   C     C_3   0.438423 0.129084 0.985691 -0.124736
C31   C     C_3   0.067636 0.706235 0.013659 -0.121556
C32   C     C_3   0.937565 0.627961 0.985044 -0.114131
H1    H     H_    0.627316 0.215316 0.025129 0.123878
H2    H     H_    0.382883 0.104649 0.973488 0.118424
H3    H     H_    0.121602 0.738433 0.027328 0.127853
H4    H     H_    0.883275 0.598404 0.971539 0.124981
H5    H     H_    0.534035 0.359916 0.954418 0.215057
H6    H     H_    0.430654 0.288667 0.067487 0.149710
H7    H     H_    0.022282 0.868625 0.952783 0.200190
H8    H     H_    0.920046 0.795449 0.060006 0.145310
C33   C     C_3   0.517583 0.155889 0.067136 0.034820
C34   C     C_3   0.492366 0.164454 0.929918 0.034023
C35   C     C_3   0.014101 0.663858 0.068009 0.044441
C36   C     C_3   0.990967 0.668361 0.930116 0.031636
C37   C     C_3   0.492931 0.048013 0.021536 -0.107888
C38   C     C_3   0.546518 0.083875 0.965151 -0.129548
C39   C     C_3   0.995228 0.554168 0.021945 -0.107280
C40   C     C_3   0.048167 0.596380 0.966794 -0.134940
H9    H     H_    0.480666 0.958220 0.042750 0.132256
H10   H     H_    0.581618 0.034232 0.931515 0.136970
H11   H     H_    0.990358 0.463570 0.043955 0.141984
H12   H     H_    0.087256 0.551110 0.935658 0.130429
H13   H     H_    0.850604 0.998743 0.072186 0.186692
H14   H     H_    0.169168 0.067475 0.942319 0.179912
H15   H     H_    0.359958 0.449086 0.092193 0.184942
H16   H     H_    0.662835 0.552185 0.940191 0.182103
C41   C     C_R   0.754216 0.919106 0.924539 -0.011270
C42   C     C_R   0.252395 0.925273 0.077944 -0.013071
C43   C     C_R   0.273846 0.386145 0.934131 -0.014867
C44   C     C_R   0.751868 0.434739 0.081018 -0.003410
C45   C     C_R   0.692098 0.879955 0.955974 -0.032297
C46   C     C_R   0.304256 0.867372 0.039467 -0.021345
C47   C     C_R   0.205703 0.375236 0.960341 -0.023060
C48   C     C_R   0.810017 0.391876 0.046794 -0.022773
C49   C     C_R   0.687909 0.881623 0.031465 0.009573
C50   C     C_R   0.299650 0.864192 0.963730 -0.002165
C51   C     C_R   0.196140 0.374476 0.034458 0.015532
C52   C     C_R   0.810412 0.388740 0.971016 -0.012236
C53   C     C_R   0.806159 0.963604 0.041003 -0.149787
C54   C     C_R   0.205342 0.006149 0.967665 -0.153314
C55   C     C_R   0.317964 0.425210 0.054555 -0.144487
C56   C     C_R   0.703228 0.502104 0.967904 -0.152228
C57   C     C_R   0.809702 0.967917 0.968106 0.188474
C58   C     C_R   0.206499 0.001921 0.041320 0.182316
C59   C     C_R   0.331551 0.418441 0.982474 0.160648
C60   C     C_R   0.702305 0.501119 0.041545 0.183689
C61   C     C_R   0.633580 0.839321 0.913606 -0.105157
C62   C     C_R   0.359170 0.808168 0.074736 -0.102019
C63   C     C_R   0.145877 0.362086 0.914536 -0.097889
C64   C     C_R   0.866238 0.345589 0.087207 -0.092337
C65   C     C_R   0.085765 0.310159 0.938824 -0.137265
C66   C     C_R   0.913295 0.273494 0.055430 -0.132038
C67   C     C_R   0.575594 0.790192 0.944463 -0.116342
C68   C     C_R   0.399280 0.729323 0.038254 -0.116850
C69   C     C_R   0.572886 0.787902 0.017782 -0.081656
C70   C     C_R   0.393541 0.721716 0.964195 -0.089119
C71   C     C_R   0.081203 0.289362 0.011029 -0.110928
C72   C     C_R   0.914677 0.269258 0.981546 -0.081477
C73   C     C_R   0.626200 0.836015 0.060777 -0.029280
C74   C     C_R   0.343535 0.786680 0.927026 -0.084146
C75   C     C_R   0.131632 0.333083 0.058996 -0.028925
C76   C     C_R   0.865161 0.327480 0.939566 -0.045846
C77   C     C_R   0.745619 0.927430 0.073981 -0.036935
C78   C     C_R   0.251482 0.938414 0.927598 -0.048700
C79   C     C_R   0.251867 0.410608 0.080710 -0.021920
C80   C     C_R   0.756115 0.445887 0.930767 -0.051220
H17   H     H_    0.628939 0.853317 0.856706 0.146717
H18   H     H_    0.372263 0.821937 0.130745 0.142115
H19   H     H_    0.143864 0.393747 0.860159 0.151577
H20   H     H_    0.873078 0.361125 0.144071 0.145607
H21   H     H_    0.043578 0.287686 0.901278 0.128647
H22   H     H_    0.949169 0.224051 0.089160 0.141397
H23   H     H_    0.532234 0.757606 0.911196 0.130332
H24   H     H_    0.434641 0.675045 0.069235 0.181236
H25   H     H_    0.039912 0.237484 0.031064 0.160131
H26   H     H_    0.952777 0.216915 0.955509 0.190459
H27   H     H_    0.529756 0.748285 0.042848 0.148317
H28   H     H_    0.428123 0.666598 0.934855 0.201811
H29   H     H_    0.618174 0.826248 0.116777 0.204038
H30   H     H_    0.338325 0.771225 0.870137 0.166756
H31   H     H_    0.121428 0.318425 0.114378 0.204584
H32   H     H_    0.868581 0.312931 0.883163 0.208747
H33   H     H_    0.552865 0.342555 0.446371 0.142085
H34   H     H_    0.526559 0.341914 0.573945 0.134110
H35   H     H_    0.007724 0.861996 0.434285 0.144765
H36   H     H_    0.985478 0.859146 0.563572 0.144432
C81   C     C_R   0.493164 0.156371 0.572805 0.008090
C82   C     C_R   0.503035 0.170207 0.423370 0.001988
C83   C     C_R   0.991701 0.665986 0.571945 -0.006249
C84   C     C_R   0.995713 0.669354 0.421017 0.008766
C85   C     C_R   0.482644 0.053098 0.527987 0.034836
C86   C     C_R   0.473422 0.068500 0.453897 0.033544
C87   C     C_R   0.996319 0.560121 0.531187 0.036775
C88   C     C_R   0.980931 0.563781 0.457521 0.040302
C89   C     C_R   0.525300 0.266460 0.467958 -0.149234
C90   C     C_R   0.514846 0.263217 0.541406 -0.142046
C91   C     C_R   0.998700 0.777334 0.460515 -0.139947
C92   C     C_R   0.990834 0.775569 0.534956 -0.147982
C93   C     C_R   0.482628 0.934393 0.553112 -0.084362
C94   C     C_R   0.445592 0.973752 0.411020 -0.061461
C95   C     C_R   0.015294 0.450061 0.560787 -0.085486
C96   C     C_R   0.961150 0.457834 0.421295 -0.063825
C97   C     C_R   0.005900 0.346239 0.520967 -0.152223
C98   C     C_R   0.975645 0.349201 0.452265 -0.131614
C99   C     C_R   0.461917 0.840499 0.508514 -0.163338
C100  C     C_R   0.444721 0.858697 0.437250 -0.138271
H37   H     H_    0.502236 0.909894 0.605545 0.163057
H38   H     H_    0.430004 0.986910 0.355552 0.143769
H39   H     H_    0.039464 0.443670 0.613618 0.138619
H40   H     H_    0.939512 0.458986 0.367123 0.145756
H41   H     H_    0.021990 0.264990 0.544948 0.100581
H42   H     H_    0.965778 0.269549 0.420590 0.110891
H43   H     H_    0.457453 0.754124 0.530673 0.129791
H44   H     H_    0.430104 0.783932 0.402561 0.119977
H45   H     H_    0.627608 0.920161 0.445709 0.149420
H46   H     H_    0.338685 0.812082 0.572972 0.199305
H47   H     H_    0.144727 0.360929 0.435625 0.177819
H48   H     H_    0.843256 0.344398 0.566162 0.166517
C101  C     C_R   0.737123 0.957410 0.589949 0.036583
C102  C     C_R   0.246975 0.910336 0.429360 0.026558
C103  C     C_R   0.253618 0.428554 0.575133 0.029600
C104  C     C_R   0.761072 0.440097 0.416404 0.029899
C105  C     C_R   0.782244 0.041358 0.559241 0.028813
C106  C     C_R   0.199323 0.981210 0.466009 0.023946
C107  C     C_R   0.309981 0.481493 0.537124 0.021529
C108  C     C_R   0.722620 0.532601 0.445743 0.021659
C109  C     C_R   0.791650 0.027961 0.485722 -0.012008
C110  C     C_R   0.186001 0.947486 0.535964 -0.006445
C111  C     C_R   0.314717 0.450223 0.465029 -0.011785
C112  C     C_R   0.705705 0.520690 0.517855 -0.008188
C113  C     C_R   0.675010 0.942601 0.475989 -0.148181
C114  C     C_R   0.294584 0.846419 0.543374 -0.113599
C115  C     C_R   0.193319 0.384542 0.463637 -0.115882
C116  C     C_R   0.804212 0.387430 0.533296 -0.140380
C117  C     C_R   0.679177 0.916055 0.548978 -0.148598
C118  C     C_R   0.291326 0.835689 0.469595 -0.164371
C119  C     C_R   0.195353 0.381786 0.537425 -0.170374
C120  C     C_R   0.805432 0.372935 0.460292 -0.163253
C121  C     C_R   0.830290 0.112478 0.600806 0.233752
C122  C     C_R   0.158872 0.073069 0.434665 0.246036
C123  C     C_R   0.367148 0.547655 0.569868 0.240351
C124  C     C_R   0.689941 0.620672 0.402279 0.245218
C125  C     C_R   0.896055 0.134715 0.573680 -0.125058
C126  C     C_R   0.098364 0.107033 0.468426 -0.138768
C127  C     C_R   0.432595 0.540961 0.539345 -0.135662
C128  C     C_R   0.630211 0.675198 0.426513 -0.107860
C129  C     C_R   0.910253 0.096266 0.504870 -0.206170
C130  C     C_R   0.080017 0.054529 0.533089 -0.186322
C131  C     C_R   0.438274 0.501164 0.469577 -0.186277
C132  C     C_R   0.606872 0.649613 0.494041 -0.204856
C133  C     C_R   0.859204 0.044860 0.461094 -0.112735
C134  C     C_R   0.122433 0.972701 0.565534 -0.090978
C135  C     C_R   0.379790 0.456879 0.432117 -0.088120
C136  C     C_R   0.643484 0.573800 0.539486 -0.110846
C137  C     C_R   0.734312 0.989014 0.442073 0.005270
C138  C     C_R   0.241454 0.905622 0.577556 0.021535
C139  C     C_R   0.252899 0.420212 0.426774 0.047421
C140  C     C_R   0.751440 0.453698 0.563667 0.007581
H49   H     H_    0.639431 0.860414 0.572438 0.134358
H50   H     H_    0.322185 0.768362 0.444715 0.148533
H51   H     H_    0.152346 0.341152 0.564971 0.134224
H52   H     H_    0.837314 0.303544 0.438619 0.151189
H53   H     H_    0.935838 0.180042 0.606325 0.137922
H54   H     H_    0.066724 0.174623 0.444239 0.130286
H55   H     H_    0.478919 0.572740 0.568436 0.127899
H56   H     H_    0.601237 0.736690 0.392971 0.147370
H57   H     H_    0.959943 0.107571 0.482373 0.113276
H58   H     H_    0.035841 0.079599 0.562842 0.110027
H59   H     H_    0.487738 0.507676 0.443816 0.128024
H60   H     H_    0.561025 0.690813 0.512291 0.114508
H61   H     H_    0.876176 0.010823 0.410747 0.174497
H62   H     H_    0.108544 0.936985 0.616964 0.140050
H63   H     H_    0.385835 0.425525 0.377867 0.154215
H64   H     H_    0.619411 0.553084 0.589228 0.158208
N1    N     N_R   0.813725 0.155664 0.670891 0.083533
O53   O     O_R   0.862606 0.197626 0.714461 -0.330056
O54   O     O_R   0.749066 0.161228 0.689637 -0.353515
N2    N     N_R   0.180638 0.136404 0.372203 0.082290
O55   O     O_R   0.134934 0.188674 0.330595 -0.336676
O56   O     O_R   0.246585 0.147292 0.358572 -0.359085
N3    N     N_R   0.359525 0.619917 0.633463 0.071306
O57   O     O_R   0.414162 0.663793 0.668205 -0.381045
O58   O     O_R   0.297837 0.647086 0.655136 -0.367163
N4    N     N_R   0.716390 0.652806 0.333735 0.091411
O59   O     O_R   0.676086 0.703190 0.285877 -0.291749
O60   O     O_R   0.782251 0.640861 0.320914 -0.352562
N5    N     N_R   0.871755 0.020243 0.939762 0.081987
O61   O     O_R   0.931670 0.006599 0.972896 -0.411798
O62   O     O_R   0.867570 0.093336 0.886043 -0.329506
N6    N     N_R   0.158265 0.072781 0.078852 0.070651
O63   O     O_R   0.091896 0.048422 0.070240 -0.352808
O64   O     O_R   0.180451 0.132286 0.135411 -0.331610
N7    N     N_R   0.403414 0.450243 0.964587 0.033095
O65   O     O_R   0.447217 0.486113 0.015086 -0.403443
O66   O     O_R   0.427266 0.453748 0.900792 -0.330548
N8    N     N_R   0.648704 0.565003 0.075863 0.075353
O67   O     O_R   0.583739 0.538438 0.060058 -0.329718
O68   O     O_R   0.664262 0.627461 0.133265 -0.308595

loop_
_geom_bond_atom_site_label_1
_geom_bond_atom_site_label_2
_geom_bond_distance
_ccdc_geom_bond_type
O4    C12   1.290677 A    
C53   C57   1.370594 A    
O39   C19   1.288405 A    
C98   H42   1.076976 S    
C56   C60   1.380311 A    
H13   C53   1.083780 S    
Cr7   O51   2.027549 S    
C55   C59   1.385306 A    
C129  C133  1.372107 A    
C127  H55   1.080271 S    
N6    O63   1.301241 A    
O25   C21   1.301006 A    
C31   H3    1.110991 S    
C95   H39   1.082259 S    
C111  C139  1.399405 A    
C73   H29   1.071271 S    
C128  C132  1.385545 A    
C93   H37   1.078796 S    
C1    O9    1.275865 A    
O44   Cr12  2.095271 S    
C3    O11   1.289819 A    
C70   H28   1.073977 S    
C72   C76   1.385929 A    
N2    O55   1.301670 A    
C25   C34   1.531208 S    
N7    O66   1.294040 A    
C71   C75   1.379231 A    
C96   H40   1.083905 S    
C21   C137  1.478820 S    
C29   C38   1.541185 S    
O2    C10   1.280880 A    
C32   C36   1.539578 S    
C99   C100  1.381762 A    
C100  H44   1.082439 S    
C129  H57   1.060094 S    
C64   H20   1.081512 S    
O17   Cr9   2.081538 S    
C23   C139  1.452815 S    
O9    Cr5   2.096812 S    
O31   Cr3   1.964175 S    
C55   C79   1.380864 A    
O16   Cr8   1.967382 S    
C91   C92   1.407757 A    
C105  C121  1.416567 A    
C74   H30   1.079587 S    
C93   C99   1.381660 A    
O13   C5    1.284135 A    
O28   Cr4   2.080469 S    
O12   Cr8   2.103425 S    
O22   Cr10  1.973753 S    
O15   C7    1.274294 A    
O6    C2    1.324083 A    
C107  C123  1.430693 A    
O46   Cr10  1.946584 S    
C72   H26   1.070852 S    
C81   C90   1.397474 A    
O14   Cr6   1.967382 S    
C7    C35   1.460136 S    
C84   C91   1.410389 A    
C47   C63   1.414707 A    
C48   C64   1.404322 A    
C67   H23   1.079308 S    
N1    O54   1.301547 A    
C102  C106  1.410714 A    
C101  C117  1.399631 A    
C115  C139  1.407245 A    
C16   C101  1.479215 S    
C101  C105  1.404244 A    
C25   H5    1.107787 S    
C133  H61   1.076701 S    
Cr12  O52   2.027159 S    
C26   C33   1.510784 S    
C27   H7    1.106437 S    
C17   O41   1.290631 A    
C30   C37   1.535040 S    
C19   O43   1.294856 A    
C20   O44   1.289390 A    
O1    Cr1   2.088347 S    
Cr8   O52   1.998359 S    
O46   C22   1.284359 A    
O19   Cr11  2.081538 S    
C47   C51   1.406463 A    
C61   C67   1.377359 A    
C124  C128  1.393298 A    
C16   O36   1.276912 A    
H35   C91   1.082837 S    
C14   C103  1.460504 S    
C46   C50   1.418799 A    
C127  C131  1.385911 A    
O31   C15   1.293067 A    
O32   C16   1.288477 A    
C115  C119  1.382084 A    
O47   Cr11  1.964270 S    
O21   C9    1.272651 A    
C39   C40   1.542367 S    
O5    C1    1.308096 A    
C18   C81   1.483849 S    
C124  N4    1.441335 S    
O24   C12   1.291225 A    
C68   C70   1.390016 A    
O30   C14   1.299973 A    
C15   C102  1.456378 S    
C43   C59   1.445984 A    
O8    Cr4   1.964762 S    
C41   C57   1.418801 A    
O32   Cr4   1.974570 S    
C26   H6    1.102074 S    
C69   C73   1.380003 A    
O11   Cr7   2.096812 S    
C4    C41   1.463181 S    
C45   C61   1.419325 A    
O27   Cr3   2.100893 S    
O3    Cr3   2.088347 S    
C38   H10   1.092056 S    
H14   C54   1.083578 S    
C135  H63   1.083150 S    
Cr5   O49   2.027549 S    
H46   C114  1.073347 S    
C131  H59   1.079493 S    
C17   C82   1.467586 S    
C32   C39   1.538479 S    
O22   C10   1.297377 A    
C4    O12   1.262761 A    
C2    O10   1.262914 A    
C27   C28   1.553881 S    
C28   H8    1.108850 S    
C111  C135  1.410448 A    
O27   C23   1.278689 A    
C114  C118  1.385751 A    
C24   C140  1.463367 S    
C41   C45   1.410013 A    
C45   C49   1.419066 A    
C43   C47   1.414094 A    
O3    C11   1.282331 A    
O8    C4    1.288460 A    
C130  H58   1.068978 S    
C50   C74   1.408585 A    
C51   C79   1.405475 A    
Cr1   O49   2.004568 S    
C8    C36   1.462064 S    
C110  C138  1.386637 A    
Cr3   O51   2.004568 S    
C54   C78   1.405726 A    
C3    C42   1.481278 S    
C29   H1    1.111047 S    
C40   H12   1.092931 S    
O26   Cr2   2.080469 S    
C5    O17   1.263217 A    
O29   C13   1.285783 A    
O28   C24   1.269164 A    
O14   C6    1.285504 A    
C35   C39   1.525878 S    
C86   C94   1.411530 A    
C8    O20   1.285569 A    
N5    O62   1.301496 A    
O40   Cr8   1.982408 S    
C125  C129  1.392675 A    
N6    O64   1.302782 A    
O41   Cr9   2.100573 S    
C49   C73   1.409537 A    
C32   H4    1.107430 S    
C52   C76   1.405521 A    
O33   Cr5   2.062732 S    
C53   C77   1.387994 A    
O5    Cr1   1.980848 S    
C97   C98   1.395059 A    
O35   Cr7   2.062732 S    
C112  C140  1.430469 A    
C60   N8    1.428116 S    
C56   C80   1.402627 A    
N2    O56   1.301714 A    
C58   N6    1.426534 S    
N4    O59   1.301244 A    
O38   Cr6   1.982408 S    
C134  H62   1.084782 S    
Cr9   O49   1.998914 S    
C95   C97   1.380996 A    
C18   O42   1.270480 A    
Cr11  O51   1.998914 S    
O26   C22   1.290344 A    
O20   Cr12  2.067768 S    
C123  N3    1.447328 S    
C97   H41   1.061416 S    
N3    O57   1.301944 A    
C83   C92   1.410925 A    
C65   H21   1.079545 S    
C130  C134  1.365950 A    
C67   C69   1.376536 A    
C31   C40   1.538052 S    
C34   C38   1.522327 S    
H34   C90   1.082793 S    
C30   H2    1.110831 S    
C94   H38   1.083397 S    
N8    O67   1.299646 A    
C82   C86   1.396175 A    
C63   H19   1.080270 S    
C33   C37   1.531918 S    
C112  C136  1.410803 A    
O6    Cr2   1.964762 S    
C132  H60   1.063901 S    
C119  H51   1.081975 S    
C22   C138  1.460059 S    
C44   C48   1.393887 A    
C20   C83   1.488604 S    
O42   Cr10  2.095271 S    
C57   N5    1.435683 S    
O18   Cr10  2.067768 S    
C69   H27   1.056459 S    
N1    O53   1.301671 A    
C105  C109  1.402139 A    
H45   C113  1.080336 S    
O34   Cr6   2.088731 S    
C9    C77   1.468969 S    
C26   C30   1.540165 S    
O24   Cr12  1.973753 S    
O30   Cr2   1.974570 S    
O48   Cr12  1.946584 S    
C104  C108  1.399057 A    
C42   C58   1.404002 A    
C64   C66   1.367236 A    
C2    C43   1.462580 S    
O37   C17   1.280329 A    
C15   O35   1.283549 A    
Cr10  O50   2.027159 S    
C46   C62   1.401911 A    
C113  C117  1.401035 A    
C36   C40   1.519251 S    
O43   Cr11  2.100573 S    
H16   C56   1.083476 S    
O37   Cr5   1.975223 S    
O21   Cr9   1.980379 S    
C103  C107  1.434957 A    
O39   Cr7   1.975223 S    
O45   Cr9   1.964270 S    
N7    O65   1.300934 A    
C13   O33   1.290008 A    
O13   Cr5   1.944416 S    
C59   N7    1.466897 S    
C128  H56   1.082019 S    
O15   Cr7   1.944416 S    
C31   C35   1.540331 S    
C96   C98   1.377274 A    
C109  C137  1.409508 A    
C131  C135  1.385538 A    
C125  H53   1.079185 S    
C68   H24   1.075404 S    
O23   C11   1.273288 A    
C102  C118  1.405788 A    
C116  C120  1.377060 A    
C75   H31   1.075132 S    
C114  C138  1.394190 A    
C14   O34   1.255613 A    
C76   H32   1.072217 S    
C123  C127  1.398477 A    
C27   C36   1.533266 S    
C44   C60   1.408530 A    
C118  H50   1.077447 S    
C71   H25   1.053837 S    
C62   H18   1.080202 S    
C50   C78   1.410701 A    
C121  C125  1.393704 A    
C51   C75   1.405498 A    
C87   C88   1.402704 A    
C37   C38   1.547403 S    
C110  C134  1.387195 A    
C85   C86   1.405461 A    
O45   C21   1.303262 A    
O47   C23   1.272512 A    
C89   C90   1.397496 A    
H15   C55   1.081466 S    
C107  C111  1.398927 A    
H48   C116  1.075154 S    
O40   C20   1.297600 A    
C6    O18   1.280810 A    
C25   C26   1.557840 S    
O36   Cr8   2.088731 S    
C5    C33   1.452289 S    
C116  C140  1.397026 A    
C61   H17   1.079366 S    
C120  H52   1.080241 S    
C28   C32   1.544113 S    
C13   C104  1.451740 S    
C49   C77   1.427709 A    
O1    C9    1.286932 A    
O7    C3    1.297195 A    
C52   C80   1.427008 A    
C103  C119  1.394172 A    
N3    O58   1.302597 A    
C83   C87   1.409095 A    
C121  N1    1.442613 S    
C1    C44   1.476711 S    
O23   Cr11  1.980379 S    
C29   C33   1.536704 S    
O16   C8    1.279554 A    
C82   C89   1.409228 A    
C7    O19   1.278881 A    
Cr4   O52   2.005170 S    
O2    Cr2   2.095444 S    
O48   C24   1.300467 A    
Cr6   O50   1.998359 S    
C66   H22   1.079824 S    
H47   C115  1.081972 S    
C25   C29   1.536973 S    
C48   C52   1.420012 A    
C106  C110  1.396352 A    
C94   C100  1.379301 A    
H33   C89   1.081385 S    
C62   C68   1.372114 A    
C106  C122  1.415543 A    
H36   C92   1.081611 S    
C81   C85   1.430116 A    
O7    Cr3   1.980848 S    
N5    O61   1.299207 A    
C6    C34   1.463817 S    
O29   Cr1   1.964175 S    
C84   C88   1.397052 A    
C42   C46   1.409939 A    
C28   C35   1.529137 S    
C132  C136  1.387392 A    
C99   H43   1.056377 S    
Cr2   O50   2.005170 S    
C65   C71   1.379298 A    
C66   C72   1.385684 A    
C10   C78   1.472549 S    
N4    O60   1.301620 A    
C108  C112  1.406177 A    
O38   C18   1.313233 A    
C63   C65   1.373760 A    
O25   Cr1   2.100893 S    
C30   C34   1.542635 S    
C113  C137  1.413170 A    
C87   C95   1.400883 A    
C108  C124  1.421686 A    
C85   C93   1.410272 A    
C54   C58   1.380354 A    
C117  H49   1.081697 S    
C122  N2    1.441272 S    
C136  H64   1.078081 S    
C37   H9    1.106074 S    
C126  C130  1.402040 A    
C109  C133  1.399100 A    
C104  C120  1.394836 A    
C126  H54   1.070076 S    
N8    O68   1.301656 A    
O10   Cr6   2.103425 S    
C122  C126  1.395867 A    
C19   C84   1.486545 S    
C11   C79   1.458667 S    
O4    Cr4   2.095444 S    
C12   C80   1.482660 S    
C88   C96   1.401121 A    
C27   C31   1.543335 S    
C70   C74   1.384342 A    
C39   H11   1.099253 S    
