data_mof_unit_19981.cif
_audit_creation_date              2012-12-11T15:20:39-0500
_audit_creation_method            fapswitch 2.2
_symmetry_space_group_name_H-M    P1
_symmetry_Int_Tables_number       1
_space_group_crystal_system       triclinic
_cell_length_a                    13.095796
_cell_length_b                    13.023044
_cell_length_c                    15.284971
_cell_angle_alpha                 117.236328
_cell_angle_beta                  63.470661
_cell_angle_gamma                 97.457408
_cell_volume                      2064.58725554

loop_
_atom_site_label
_atom_site_type_symbol
_atom_type_description
_atom_site_fract_x
_atom_site_fract_y
_atom_site_fract_z
_atom_type_partial_charge
C1    C     C_R   0.024448 0.835088 0.030046 -0.131863
C2    C     C_R   0.320278 0.520295 0.779127 -0.167610
C3    C     C_R   0.243534 0.480400 0.107124 -0.226096
C4    C     C_R   0.700375 0.405699 0.207662 -0.211175
C5    C     C_R   0.984426 0.300172 0.696427 -0.137344
C6    C     C_R   0.332403 0.545945 0.078774 0.155886
C7    C     C_R   0.924162 0.205267 0.696300 0.049408
C8    C     C_R   0.326456 0.444030 0.676821 0.054329
C9    C     C_R   0.076626 0.142558 0.974471 0.044808
C10   C     C_R   0.925208 0.046787 0.423939 -0.178780
C11   C     C_R   0.919419 0.141497 0.518639 -0.168675
C12   C     C_R   0.705290 0.427577 0.302068 0.019587
C13   C     C_R   0.885578 0.128530 0.613819 0.142134
C14   C     C_R   0.832986 0.029813 0.619986 -0.174811
C15   C     C_R   0.838440 0.935387 0.525452 -0.172053
C16   C     C_R   0.742335 0.559050 0.929332 -0.154514
C17   C     C_R   0.897539 0.939715 0.424934 0.149022
C18   C     C_R   0.624270 0.362328 0.447510 -0.213597
C19   C     C_R   0.531040 0.365944 0.542031 0.213083
C20   C     C_R   0.424893 0.420429 0.574566 0.067079
C21   C     C_R   0.411831 0.464160 0.511594 -0.209138
C22   C     C_R   0.503968 0.461307 0.420566 -0.190638
C23   C     C_R   0.640685 0.530537 0.993026 0.153127
C24   C     C_R   0.610721 0.414351 0.390614 0.141458
C25   C     C_2   0.437177 0.548939 0.086753 -0.207897
C26   C     C_2   0.532107 0.548742 0.002231 -0.198065
C27   C     C_2   0.887240 0.968956 0.040294 -0.204703
C28   C     C_R   0.937073 0.721886 0.314758 -0.158416
C29   C     C_2   0.877355 0.061010 0.133123 -0.147487
C30   C     C_R   0.662604 0.463964 0.031612 -0.121344
C31   C     C_R   0.027126 0.822248 0.221839 -0.123248
C32   C     C_R   0.802560 0.483788 0.302692 0.217541
C33   C     C_R   0.920662 0.749749 0.937842 -0.141587
C34   C     C_R   0.948168 0.832520 0.323731 0.042399
C35   C     C_R   0.945436 0.856449 0.001413 0.141621
C36   C     C_3   0.548385 0.314545 0.606098 -0.419259
C37   C     C_3   0.577574 0.183246 0.540097 -0.846286
C38   C     C_3   0.862434 0.490616 0.369499 -0.384167
C39   C     C_3   0.796373 0.573825 0.491480 -0.940158
C40   C     C_3   0.351844 0.702796 0.014157 -0.395262
C41   C     C_3   0.343415 0.799695 0.123451 -0.873903
C42   C     C_R   0.315079 0.589597 0.019628 0.193884
C43   C     C_R   0.903270 0.200411 0.791356 -0.138942
C44   C     C_R   0.216671 0.433534 0.685353 -0.124720
C45   C     C_R   0.093101 0.249803 0.046825 -0.131523
C46   C     C_R   0.993627 0.165504 0.950409 -0.088535
H1    H     H_    0.071976 0.899283 0.067400 0.087522
H2    H     H_    0.952991 0.219632 0.512965 0.105568
H3    H     H_    0.798961 0.019693 0.694035 0.107712
H4    H     H_    0.642147 0.352492 0.176784 0.115316
H5    H     H_    0.807659 0.856417 0.530721 0.110189
H6    H     H_    0.331099 0.507001 0.536238 0.131307
H7    H     H_    0.492824 0.501335 0.376475 0.126869
H8    H     H_    0.438369 0.539056 0.153124 0.128970
H9    H     H_    0.531875 0.550960 0.932361 0.123180
H10   H     H_    0.843473 0.975271 0.996893 0.130260
H11   H     H_    0.754124 0.598252 0.877101 0.089907
H12   H     H_    0.845668 0.147027 0.825352 0.084430
H13   H     H_    0.883138 0.697836 0.377798 0.133442
H14   H     H_    0.604272 0.417508 0.074053 0.090502
H15   H     H_    0.065717 0.891830 0.202936 0.088729
H16   H     H_    0.867989 0.735318 0.896438 0.092121
H17   H     H_    0.707218 0.322425 0.420501 0.130896
H18   H     H_    0.508404 0.141585 0.516247 0.257673
H19   H     H_    0.660075 0.161026 0.465295 0.253211
H20   H     H_    0.586019 0.148168 0.590745 0.252748
H21   H     H_    0.619107 0.355096 0.627916 0.187581
H22   H     H_    0.470936 0.331842 0.683825 0.201100
H23   H     H_    0.191796 0.385418 0.619770 0.100273
H24   H     H_    0.915104 0.058951 0.182773 0.120308
H25   H     H_    0.745850 0.646009 0.504547 0.254706
H26   H     H_    0.736927 0.527581 0.536750 0.260862
H27   H     H_    0.857612 0.611079 0.527620 0.249628
H28   H     H_    0.876385 0.402772 0.359263 0.178093
H29   H     H_    0.949354 0.518879 0.336652 0.185198
H30   H     H_    0.257822 0.807352 0.190911 0.260369
H31   H     H_    0.410515 0.782865 0.142029 0.267807
H32   H     H_    0.356306 0.883457 0.119003 0.241066
H33   H     H_    0.439965 0.691412 0.949096 0.172881
H34   H     H_    0.152199 0.264834 0.082125 0.099535
H35   H     H_    0.294909 0.732002 0.991914 0.193189
H36   H     H_    0.960488 0.102048 0.895840 0.091313
H37   H     H_    0.391131 0.551048 0.799492 0.094547
H38   H     H_    0.224995 0.444281 0.163240 0.107644
H39   H     H_    0.001514 0.339919 0.643431 0.083324
H40   H     H_    0.962504 0.055138 0.348778 0.101762
N1    N     N_R   0.037310 0.720000 0.995790 -0.044110
N2    N     N_R   0.824890 0.517960 0.936420 -0.038650
N3    N     N_R   0.003210 0.648190 0.211380 -0.039791
N4    N     N_R   0.774330 0.457010 0.995840 -0.041189
N5    N     N_R   0.053760 0.709140 0.151960 -0.033658
N6    N     N_R   0.853860 0.498840 0.211410 -0.069876
N7    N     N_R   0.974240 0.667310 0.936390 -0.040602
N8    N     N_R   0.225670 0.542990 0.004160 -0.069803
N9    N     N_R   0.946240 0.290860 0.848040 -0.037727
N10   N     N_R   0.146140 0.501160 0.788590 -0.040701
N11   N     N_R   0.025760 0.332690 0.063610 -0.044303
N12   N     N_R   0.962690 0.280000 0.004210 -0.042128
N13   N     N_R   0.209210 0.553840 0.847990 -0.042800
N14   N     N_R   0.175110 0.482040 0.063580 -0.049145
N15   N     N_R   0.996790 0.351810 0.788620 -0.036768
N16   N     N_R   0.790790 0.446160 0.152010 -0.046864
Ni1   Ni    Ni4+2 0.130310 0.630310 0.999970 0.205794
Ni2   Ni    Ni4+2 0.869690 0.369690 0.000030 0.208668
Ni3   Ni    Ni4+2 0.985640 0.509470 0.863740 0.209359
Ni4   Ni    Ni4+2 0.014360 0.490530 0.136260 0.198984

loop_
_geom_bond_atom_site_label_1
_geom_bond_atom_site_label_2
_ccdc_geom_bond_type
C1    N1    A    
N13   Ni1   S    
N10   Ni3   S    
C9    C45   A    
C27   C29   D    
C31   H15   S    
C19   C20   A    
C30   N4    A    
C3    C6    A    
C26   H9    S    
N11   N12   A    
C11   H2    S    
C36   H21   S    
C8    C20   S    
C18   C24   A    
C36   C37   S    
C19   C36   S    
C41   H31   S    
C38   C39   S    
C18   H17   S    
C6    C25   S    
C10   C17   A    
N10   N13   A    
C18   C19   A    
C23   C26   S    
C43   H12   S    
N7    Ni3   S    
C46   H36   S    
C3    N14   A    
C33   H16   S    
C37   H19   S    
N3    Ni4   S    
C43   N9    A    
C39   H26   S    
C28   N3    A    
C7    C43   A    
N3    N5    A    
N6    N16   A    
C5    H39   S    
C40   C42   S    
C46   N12   A    
C28   C34   A    
C9    C46   A    
C13   C14   A    
C12   C32   A    
C4    N16   A    
C2    H37   S    
C22   H7    S    
C38   H29   S    
N15   Ni3   S    
C5    N15   A    
C31   C34   A    
C23   C30   A    
C25   H8    S    
C41   H32   S    
C5    C7    A    
C27   H10   S    
C1    H1    S    
C27   C35   S    
C25   C26   D    
C4    H4    S    
C44   N10   A    
C15   H5    S    
N8    N14   A    
C37   H20   S    
C40   H33   S    
C44   H23   S    
N16   Ni2   S    
N4    Ni2   S    
N1    Ni1   S    
N11   Ni4   S    
N6    Ni4   S    
C40   C41   S    
N2    N4    A    
N8    Ni1   S    
C16   C23   A    
C32   C38   S    
C22   C24   A    
C4    C12   A    
C17   C34   S    
C37   H18   S    
C30   H14   S    
N9    Ni2   S    
C1    C35   A    
C29   H24   S    
C38   H28   S    
C28   H13   S    
C15   C17   A    
C10   H40   S    
C42   N8    A    
N14   Ni4   S    
C40   H35   S    
C2    C8    A    
C8    C44   A    
N5    Ni1   S    
C33   N7    A    
C2    N13   A    
C36   H22   S    
C12   C24   S    
C31   N5    A    
C45   N11   A    
C41   H30   S    
N2    Ni3   S    
C11   C13   A    
C32   N6    A    
N12   Ni2   S    
N1    N7    A    
C33   C35   A    
C45   H34   S    
C16   H11   S    
C39   H27   S    
C10   C11   A    
C14   H3    S    
C7    C13   S    
C20   C21   A    
C6    C42   A    
C3    H38   S    
C16   N2    A    
C39   H25   S    
C14   C15   A    
C21   C22   A    
C21   H6    S    
N9    N15   A    
