data_mof_unit_50531.cif
_audit_creation_date              2012-12-10T20:31:50-0500
_audit_creation_method            fapswitch 2.2
_symmetry_space_group_name_H-M    P1
_symmetry_Int_Tables_number       1
_space_group_crystal_system       triclinic
_cell_length_a                    9.863015
_cell_length_b                    10.721056
_cell_length_c                    15.342979
_cell_angle_alpha                 90.374155
_cell_angle_beta                  69.097599
_cell_angle_gamma                 89.985926
_cell_volume                      1515.58755707

loop_
_atom_site_label
_atom_site_type_symbol
_atom_type_description
_atom_site_fract_x
_atom_site_fract_y
_atom_site_fract_z
_atom_type_partial_charge
C1    C     C_R   0.504409 0.739459 0.492998 0.883290
C2    C     C_R   0.437323 0.409281 0.903537 0.087671
C3    C     C_R   0.302018 0.352849 0.950306 0.102664
C4    C     C_R   0.546369 0.407752 0.942806 0.084127
C5    C     C_R   0.508678 0.378097 0.037836 -0.027078
C6    C     C_R   0.376280 0.311835 0.082913 -0.011783
C7    C     C_R   0.274420 0.301039 0.038239 -0.230755
C8    C     C_R   0.692611 0.433829 0.889429 -0.214221
C9    C     C_R   0.793343 0.454448 0.931784 -0.227984
C10   C     C_R   0.748236 0.458162 0.028955 0.155040
C11   C     C_R   0.604047 0.420676 0.082762 0.040720
C12   C     C_R   0.410060 0.495333 0.676176 0.888479
C13   C     C_R   0.841911 0.502967 0.073642 0.197586
C14   C     C_R   0.791016 0.511738 0.170806 -0.263286
C15   C     C_R   0.553443 0.442869 0.178769 -0.290829
C16   C     C_R   0.380975 0.935046 0.502841 0.106877
C17   C     C_R   0.511562 0.871721 0.484046 -0.197266
C18   C     C_R   0.643465 0.936957 0.467253 0.215689
C19   C     C_R   0.636020 0.065896 0.478001 -0.237574
C20   C     C_R   0.503727 0.128025 0.496704 -0.158345
C21   C     C_R   0.376936 0.062550 0.509024 0.121372
C22   C     C_3   0.280006 0.073979 0.453580 -0.445875
C23   C     C_R   0.500867 0.260134 0.498816 0.896968
C24   C     C_3   0.286973 0.933732 0.444766 -0.459832
C25   C     C_R   0.904055 0.593124 0.544286 0.090012
C26   C     C_R   0.956396 0.415102 0.448982 -0.110387
C27   C     C_R   0.100369 0.415156 0.448898 -0.114250
C28   C     C_R   0.046843 0.593198 0.544947 0.135654
C29   C     C_3   0.992839 0.621560 0.647879 -0.088444
C30   C     C_3   0.839240 0.622476 0.645437 -0.292297
C31   C     C_R   0.589945 0.498618 0.324009 0.869945
C32   C     C_R   0.359100 0.462205 0.775169 -0.069661
C33   C     C_R   0.646114 0.485270 0.222880 -0.081261
C34   C     C_R   0.198096 0.346973 0.907015 -0.165063
C35   C     C_R   0.227337 0.400149 0.819058 -0.190087
C36   C     C_R   0.458523 0.471331 0.820216 -0.217813
H1    H     H_    0.173552 0.251412 0.071724 0.188116
H2    H     H_    0.733972 0.119138 0.466071 0.182895
H3    H     H_    0.170403 0.109601 0.496459 0.199379
H4    H     H_    0.332527 0.122311 0.385917 0.213298
H5    H     H_    0.181020 0.888248 0.480267 0.190872
H6    H     H_    0.345474 0.900230 0.372196 0.207931
H7    H     H_    0.924134 0.344960 0.409274 0.157263
H8    H     H_    0.176817 0.345206 0.408986 0.164123
H9    H     H_    0.011082 0.543536 0.690078 0.158403
H10   H     H_    0.439611 0.432401 0.219786 0.170391
H11   H     H_    0.773272 0.543881 0.684025 0.155945
H12   H     H_    0.862793 0.545736 0.205121 0.161923
H13   H     H_    0.903926 0.475758 0.888111 0.168170
H14   H     H_    0.095368 0.300245 0.940622 0.142380
H15   H     H_    0.149679 0.389413 0.784406 0.142714
H16   H     H_    0.553743 0.527219 0.788992 0.182711
H17   H     H_    0.731319 0.435666 0.814361 0.133007
N1    N     N_R   0.856900 0.500860 0.500610 -0.106970
N2    N     N_R   0.142540 0.500820 0.500610 -0.110991
O1    O     O_R   0.385310 0.683210 0.499990 -0.607825
O2    O     O_R   0.614650 0.683240 0.500000 -0.599276
O3    O     O_R   0.319830 0.499970 0.632240 -0.620648
O4    O     O_R   0.549170 0.500000 0.632250 -0.600862
O5    O     O_R   0.385350 0.316760 0.500000 -0.621003
O6    O     O_R   0.614690 0.316790 0.500010 -0.628003
O7    O     O_R   0.450830 0.500000 0.367750 -0.617216
O8    O     O_R   0.680170 0.500030 0.367760 -0.621955
Zn1   Zn    Zn3+2 0.346870 0.499980 0.499990 0.941530
Zn2   Zn    Zn3+2 0.653130 0.500020 0.500010 0.952964
N3    N     N_2   0.984893 0.544540 0.021726 -0.320141
H18   H     H_    0.058049 0.527098 0.054338 0.239509
C37   C     C_3   0.992598 0.672696 0.991454 -0.783813
H19   H     H_    0.106142 0.695009 0.947072 0.250144
H20   H     H_    0.958137 0.736699 0.052808 0.243366
H21   H     H_    0.922215 0.687849 0.949838 0.254877
N4    N     N_2   0.780395 0.872786 0.433289 -0.284383
H22   H     H_    0.791314 0.811314 0.379155 0.235368
C38   C     C_3   0.913553 0.937154 0.424658 -0.817421
H23   H     H_    0.938961 0.008157 0.368714 0.262132
H24   H     H_    0.004036 0.868683 0.405562 0.240889
H25   H     H_    0.904909 0.981473 0.492074 0.234887
N5    N     N_2   0.038082 0.743024 0.670530 -0.289637
H26   H     H_    0.056106 0.811782 0.621217 0.214765
C39   C     C_3   0.134328 0.745236 0.722807 -0.691664
H27   H     H_    0.127699 0.838070 0.756536 0.226733
H28   H     H_    0.247773 0.729816 0.675570 0.255877
H29   H     H_    0.103008 0.673443 0.778277 0.231110
C40   C     C_2   0.760247 0.745737 0.662928 0.544355
H30   H     H_    0.809412 0.827150 0.622352 0.060052
O9    O     O_2   0.639324 0.754782 0.722497 -0.593633
C41   C     C_2   0.351211 0.237657 0.168807 0.357862
H31   H     H_    0.441341 0.213578 0.190371 0.068660
O10   O     O_2   0.229978 0.201141 0.215863 -0.601163

loop_
_geom_bond_atom_site_label_1
_geom_bond_atom_site_label_2
_ccdc_geom_bond_type
C8    C9    A    
N3    C37   S    
C41   H31   S    
O8    Zn2   S    
C16   C21   A    
C24   H6    S    
C19   C20   A    
C4    C8    A    
C14   C33   A    
N1    Zn2   S    
C25   C28   A    
C26   C27   A    
C38   H24   S    
C32   C36   A    
C28   C29   S    
C1    O1    A    
C40   O9    D    
C5    C11   A    
C3    C7    A    
C5    C6    A    
C39   H27   S    
N5    C39   S    
C18   C19   A    
C34   C35   A    
O7    Zn1   S    
C37   H19   S    
C12   O4    A    
C11   C15   A    
C27   H8    S    
C29   N5    S    
C16   C17   A    
C38   H25   S    
O1    Zn1   S    
C9    C10   A    
C36   H16   S    
C12   O3    A    
N3    H18   S    
C16   C24   S    
C21   C22   S    
C12   C32   S    
C18   N4    S    
C24   H5    S    
C31   O7    A    
C39   H29   S    
C26   N1    A    
C28   N2    A    
C26   H7    S    
C13   N3    S    
O3    Zn1   S    
C23   O5    A    
C34   H14   S    
C38   H23   S    
C32   C35   A    
C31   O8    A    
C30   H11   S    
C9    H13   S    
C25   N1    A    
C39   H28   S    
N5    H26   S    
N4    H22   S    
C14   H12   S    
C3    C34   A    
C6    C41   S    
C29   H9    S    
C2    C4    A    
C29   C30   S    
C19   H2    S    
C1    O2    A    
C20   C23   S    
C22   H4    S    
N2    Zn1   S    
C31   C33   S    
C17   C18   A    
C7    H1    S    
C40   H30   S    
N4    C38   S    
C41   O10   D    
C35   H15   S    
C22   C24   S    
C2    C36   A    
C25   C30   S    
O2    Zn2   S    
C4    C5    A    
C10   C13   A    
C8    H17   S    
C6    C7    A    
C1    C17   S    
O5    Zn1   S    
C2    C3    A    
O4    Zn2   S    
C37   H21   S    
C22   H3    S    
C27   N2    A    
C30   C40   S    
C10   C11   A    
O6    Zn2   S    
C23   O6    A    
C20   C21   A    
C37   H20   S    
C15   H10   S    
C13   C14   A    
C15   C33   A    
