data_mof_unit_56629.cif
_audit_creation_date              2012-12-10T19:46:37-0500
_audit_creation_method            fapswitch 2.2
_symmetry_space_group_name_H-M    P1
_symmetry_Int_Tables_number       1
_space_group_crystal_system       triclinic
_cell_length_a                    12.904086
_cell_length_b                    14.981228
_cell_length_c                    14.129822
_cell_angle_alpha                 89.662354
_cell_angle_beta                  97.937443
_cell_angle_gamma                 89.974416
_cell_volume                      2705.34472764

loop_
_atom_site_label
_atom_site_type_symbol
_atom_type_description
_atom_site_fract_x
_atom_site_fract_y
_atom_site_fract_z
_atom_type_partial_charge
C1    C     C_R   0.502045 0.327628 0.500502 0.872224
C2    C     C_R   0.519549 0.951962 0.502715 0.060879
C3    C     C_R   0.419123 0.460040 0.094643 -0.303086
C4    C     C_R   0.583170 0.463958 0.906275 -0.299357
C5    C     C_R   0.420762 0.459992 0.194311 0.015524
C6    C     C_R   0.581789 0.463943 0.806660 0.016071
C7    C     C_R   0.579912 0.539925 0.214538 -0.003218
C8    C     C_R   0.417584 0.536485 0.784590 -0.045647
C9    C     C_R   0.582415 0.540913 0.114985 0.012252
C10   C     C_R   0.414831 0.537206 0.884152 0.014455
C11   C     C_R   0.500466 0.500688 0.053311 0.154738
C12   C     C_R   0.502081 0.672309 0.500007 0.880187
C13   C     C_R   0.499154 0.500654 0.946680 0.156612
C14   C     C_R   0.297583 0.500086 0.480574 0.915925
C15   C     C_R   0.702349 0.500695 0.519413 0.876121
C16   C     C_R   0.815101 0.502549 0.532364 -0.154977
C17   C     C_R   0.184677 0.501756 0.467717 -0.160727
C18   C     C_R   0.016610 0.529548 0.374528 -0.330760
C19   C     C_R   0.983460 0.479108 0.626419 -0.311800
C20   C     C_R   0.124945 0.520479 0.378244 0.507307
C21   C     C_R   0.875303 0.486305 0.621930 0.467864
C22   C     C_R   0.136780 0.486421 0.549075 -0.334917
C23   C     C_R   0.510840 0.231744 0.501595 -0.148177
C24   C     C_R   0.862980 0.519290 0.451312 -0.338245
C25   C     C_R   0.030213 0.493131 0.544276 0.124039
C26   C     C_R   0.969875 0.514646 0.456549 0.128070
C27   C     C_R   0.563377 0.093822 0.582635 -0.265853
C28   C     C_R   0.565617 0.905507 0.434092 -0.265854
C29   C     C_R   0.562492 0.186229 0.582458 0.495718
C30   C     C_R   0.564950 0.813068 0.434658 0.500240
C31   C     C_3   0.856127 0.529431 0.775381 0.068558
C32   C     C_3   0.890736 0.479152 0.868912 -0.344180
C33   C     C_3   0.914272 0.543097 0.952777 -0.978175
C34   C     C_R   0.510896 0.768068 0.501010 -0.147395
C35   C     C_3   0.129715 0.490376 0.216209 0.090624
C36   C     C_3   0.128645 0.388380 0.231024 -0.404361
C37   C     C_3   0.104463 0.339813 0.135907 -0.952371
C38   C     C_3   0.706851 0.264237 0.649074 0.127093
C39   C     C_3   0.792796 0.193895 0.673357 -0.408267
C40   C     C_3   0.901056 0.234281 0.671087 -0.909013
C41   C     C_3   0.711584 0.735062 0.409835 0.107869
C42   C     C_3   0.797092 0.806065 0.410006 -0.397667
C43   C     C_3   0.905318 0.766352 0.442030 -0.924066
C44   C     C_R   0.468908 0.184853 0.419759 -0.267148
C45   C     C_R   0.466379 0.815311 0.570495 -0.264663
C46   C     C_R   0.474065 0.092863 0.419407 -0.168561
C47   C     C_R   0.471333 0.907281 0.571719 -0.170653
C48   C     C_R   0.519822 0.047777 0.501292 0.060904
H1    H     H_    0.817015 0.533901 0.382793 0.166448
H2    H     H_    0.426112 0.781188 0.622589 0.173030
H3    H     H_    0.439944 0.056682 0.356544 0.152829
H4    H     H_    0.435331 0.943770 0.624649 0.151715
H5    H     H_    0.355171 0.427652 0.050109 0.151901
H6    H     H_    0.649137 0.434674 0.951575 0.156471
H7    H     H_    0.358723 0.427653 0.225348 0.139756
H8    H     H_    0.646375 0.435051 0.776601 0.158893
H9    H     H_    0.736564 0.553977 0.107372 0.172278
H10   H     H_    0.668773 0.650836 0.099058 0.195741
H11   H     H_    0.260030 0.543500 0.891593 0.172008
H12   H     H_    0.182549 0.469970 0.617268 0.180343
H13   H     H_    0.321685 0.643186 0.897982 0.186753
H14   H     H_    0.785769 0.570070 0.783246 0.169775
H15   H     H_    0.919099 0.577103 0.761904 0.123659
H16   H     H_    0.827972 0.432368 0.883526 0.220157
H17   H     H_    0.962066 0.439438 0.862023 0.215228
H18   H     H_    0.979764 0.588253 0.941477 0.265226
H19   H     H_    0.937005 0.504399 0.019663 0.256226
H20   H     H_    0.843927 0.583591 0.960817 0.275806
H21   H     H_    0.178354 0.505467 0.159084 0.178264
H22   H     H_    0.050413 0.515837 0.188761 0.122114
H23   H     H_    0.642218 0.571376 0.261520 0.122008
H24   H     H_    0.205685 0.365514 0.268011 0.224295
H25   H     H_    0.068084 0.370121 0.276462 0.217707
H26   H     H_    0.026931 0.360898 0.098300 0.265232
H27   H     H_    0.102869 0.266699 0.148981 0.268961
H28   H     H_    0.165596 0.354360 0.089819 0.258377
H29   H     H_    0.724292 0.320922 0.698560 0.209848
H30   H     H_    0.708597 0.291321 0.575584 0.109090
H31   H     H_    0.788565 0.166006 0.745789 0.234590
H32   H     H_    0.781173 0.138676 0.620845 0.214889
H33   H     H_    0.916453 0.287452 0.725694 0.277038
H34   H     H_    0.353546 0.565641 0.736920 0.131846
H35   H     H_    0.961617 0.181599 0.686869 0.258684
H36   H     H_    0.906870 0.263100 0.599372 0.267436
H37   H     H_    0.731736 0.678248 0.365922 0.160375
H38   H     H_    0.710602 0.708186 0.483510 0.101702
H39   H     H_    0.794838 0.834528 0.336925 0.235434
H40   H     H_    0.783169 0.860789 0.459464 0.214216
H41   H     H_    0.908926 0.736065 0.514391 0.263537
H42   H     H_    0.965307 0.819696 0.444466 0.266275
H43   H     H_    0.923436 0.714508 0.390887 0.268831
H44   H     H_    0.968561 0.549175 0.308822 0.134613
H45   H     H_    0.030370 0.461670 0.693684 0.145676
H46   H     H_    0.599556 0.057987 0.645524 0.153414
H47   H     H_    0.603779 0.941018 0.381460 0.153432
H48   H     H_    0.430435 0.219243 0.356844 0.172194
N1    N     N_R   0.500000 0.499980 0.252470 -0.095839
N2    N     N_R   0.500000 0.500020 0.747530 -0.097190
N3    N     N_3   0.666686 0.584277 0.077036 -0.474108
N4    N     N_3   0.327919 0.576785 0.921264 -0.465795
O1    O     O_R   0.500010 0.369070 0.579480 -0.578023
O2    O     O_3   0.175191 0.536997 0.298826 -0.628879
O3    O     O_3   0.607712 0.230433 0.663508 -0.646873
O4    O     O_3   0.613148 0.768223 0.367232 -0.639992
O5    O     O_R   0.499990 0.630930 0.420520 -0.571063
O6    O     O_R   0.500010 0.369060 0.420520 -0.634534
O7    O     O_R   0.499990 0.630940 0.579480 -0.634182
O8    O     O_R   0.346360 0.499990 0.566340 -0.644658
O9    O     O_R   0.653640 0.500010 0.433660 -0.646853
O10   O     O_R   0.346360 0.499980 0.407390 -0.576056
O11   O     O_R   0.653640 0.500020 0.592610 -0.594493
O12   O     O_3   0.827823 0.466755 0.701634 -0.670639
Zn1   Zn    Zn3+2 0.500000 0.500010 0.606140 0.958450
Zn2   Zn    Zn3+2 0.500000 0.499990 0.393860 0.972265

loop_
_geom_bond_atom_site_label_1
_geom_bond_atom_site_label_2
_ccdc_geom_bond_type
C27   C48   A    
C37   H26   S    
C16   C21   A    
C27   C29   A    
O1    Zn1   S    
C41   C42   S    
C40   H36   S    
C35   C36   S    
C18   C26   A    
C35   O2    S    
C41   H38   S    
C43   H41   S    
O6    Zn2   S    
C28   H47   S    
C8    H34   S    
C23   C29   A    
C36   C37   S    
C19   C21   A    
C24   C26   A    
C22   H12   S    
C38   C39   S    
C20   O2    S    
C15   C16   S    
H9    N3    S    
C17   C20   A    
C29   O3    S    
C14   O10   A    
C4    C13   A    
C15   O9    A    
O7    Zn1   S    
C8    N2    A    
C35   H22   S    
C22   C25   A    
C31   O12   S    
O10   Zn2   S    
C19   H45   S    
C1    O6    A    
C14   O8    A    
C37   H27   S    
C9    N3    S    
C3    H5    S    
H11   N4    S    
C14   C17   S    
C40   H35   S    
C44   C46   A    
C33   H18   S    
C45   C47   A    
C46   C48   A    
C43   H42   S    
C30   C34   A    
C6    N2    A    
C31   H15   S    
O5    Zn2   S    
C32   H16   S    
C4    C6    A    
C39   C40   S    
N2    Zn1   S    
C38   H30   S    
C2    C48   S    
C25   C26   A    
C46   H3    S    
C43   H43   S    
C23   C44   A    
C39   H31   S    
O8    Zn1   S    
C38   O3    S    
C44   H48   S    
C15   O11   A    
C31   C32   S    
O11   Zn1   S    
C34   C45   A    
C10   N4    S    
C9    C11   A    
C31   H14   S    
O9    Zn2   S    
C8    C10   A    
C37   H28   S    
C5    N1    A    
C1    C23   S    
H13   N4    S    
C42   H40   S    
C42   C43   S    
C12   C34   S    
C1    O1    A    
C21   O12   S    
C33   H19   S    
C24   H1    S    
C7    C9    A    
C7    N1    A    
C4    H6    S    
C40   H33   S    
C5    H7    S    
H10   N3    S    
C6    H8    S    
C3    C5    A    
C10   C13   A    
C12   O7    A    
C47   H4    S    
C38   H29   S    
C2    C47   A    
C41   H37   S    
C17   C22   A    
C41   O4    S    
C18   H44   S    
C32   C33   S    
C28   C30   A    
C39   H32   S    
C7    H23   S    
C11   C13   S    
C12   O5    A    
C45   H2    S    
C18   C20   A    
C19   C25   A    
C3    C11   A    
C36   H25   S    
C35   H21   S    
C16   C24   A    
C30   O4    S    
C27   H46   S    
C2    C28   A    
C42   H39   S    
N1    Zn2   S    
C36   H24   S    
C33   H20   S    
C32   H17   S    
