data_mof_unit_37364.cif
_audit_creation_date              2012-12-11T15:24:24-0500
_audit_creation_method            fapswitch 2.2
_symmetry_space_group_name_H-M    P1
_symmetry_Int_Tables_number       1
_space_group_crystal_system       triclinic
_cell_length_a                    8.230482
_cell_length_b                    14.726371
_cell_length_c                    19.006976
_cell_angle_alpha                 93.149449
_cell_angle_beta                  94.298179
_cell_angle_gamma                 91.909893
_cell_volume                      2292.17137272

loop_
_atom_site_label
_atom_site_type_symbol
_atom_type_description
_atom_site_fract_x
_atom_site_fract_y
_atom_site_fract_z
_atom_type_partial_charge
Ba1   Ba    Ba6+2 0.150350 0.545800 0.464500 1.628982
Ba2   Ba    Ba6+2 0.659830 0.454190 0.535450 1.638817
C1    C     C_3   0.346659 0.750524 0.183907 -0.369394
C2    C     C_R   0.821622 0.809125 0.505042 0.009946
C3    C     C_R   0.670405 0.779357 0.470882 -0.290904
C4    C     C_3   0.876029 0.793447 0.294441 0.347905
C5    C     C_R   0.562760 0.838269 0.438367 0.002305
C6    C     C_R   0.608239 0.930675 0.437300 -0.146657
C7    C     C_R   0.757624 0.966209 0.471352 -0.017295
C8    C     C_R   0.866832 0.906790 0.507457 -0.015797
C9    C     C_R   0.936396 0.103429 0.506005 -0.042480
C10   C     C_R   0.039655 0.046327 0.545754 -0.016067
C11   C     C_R   0.980121 0.200300 0.506148 0.065606
C12   C     C_3   0.368623 0.731022 0.261685 0.360240
C13   C     C_R   0.125740 0.233111 0.542416 -0.268346
C14   C     C_R   0.226826 0.175582 0.578707 0.001557
C15   C     C_R   0.176309 0.086889 0.586186 -0.160817
C16   C     C_3   0.912591 0.890157 0.273162 -0.180288
C17   C     C_R   0.796526 0.061209 0.468752 -0.050054
C18   C     C_R   0.607615 0.538758 0.297824 -0.270886
C19   C     C_R   0.462559 0.489651 0.277467 0.069955
C20   C     C_R   0.408795 0.478092 0.205701 -0.126616
C21   C     C_R   0.502783 0.513358 0.153593 -0.017201
C22   C     C_R   0.652922 0.559331 0.175139 -0.140998
C23   C     C_3   0.422137 0.732783 0.658310 0.289954
C24   C     C_R   0.705235 0.570979 0.246926 0.018597
C25   C     C_R   0.479532 0.566363 0.029481 -0.080769
C26   C     C_R   0.432224 0.551930 0.957341 -0.087409
C27   C     C_R   0.351852 0.469880 0.930685 0.064736
C28   C     C_3   0.878267 0.310536 0.314800 0.320940
C29   C     C_R   0.316249 0.404136 0.978621 -0.074994
C30   C     C_R   0.364892 0.418009 0.050578 -0.085237
C31   C     C_R   0.448024 0.499176 0.077033 0.065807
C32   C     C_R   0.156416 0.407922 0.829033 -0.127845
C33   C     C_R   0.110901 0.397011 0.756350 -0.010654
C34   C     C_3   0.465247 0.826566 0.694895 -0.410220
C35   C     C_R   0.358417 0.477536 0.730971 0.055602
C36   C     C_R   0.405759 0.487928 0.803324 -0.111352
C37   C     C_R   0.306269 0.452645 0.853415 0.003510
C38   C     C_R   0.219022 0.425085 0.707672 -0.274852
C39   C     C_3   0.986478 0.267548 0.260977 -0.332935
C40   C     C_3   0.874721 0.732099 0.684520 0.504945
C41   C     C_3   0.907586 0.811508 0.742197 0.088732
C42   C     C_3   0.320374 0.269578 0.395499 0.320547
C43   C     C_3   0.342578 0.167329 0.386692 -0.382945
C44   C     C_3   0.017166 0.597840 0.727298 -0.103706
C45   C     C_3   0.905308 0.198341 0.710854 0.386686
C46   C     C_3   0.075907 0.807664 0.783096 -0.387332
C47   C     C_3   0.752573 0.898958 0.827894 -0.273050
C48   C     C_3   0.022250 0.047400 0.736396 -0.534323
C49   C     C_3   0.243229 0.176583 0.872541 -0.264024
C50   C     C_3   0.298447 0.904721 0.552127 -0.098570
C51   C     C_3   0.828803 0.907726 0.201080 -0.411314
C52   C     C_3   0.719481 0.332857 0.276029 -0.334232
C53   C     C_3   0.891214 0.113625 0.752465 -0.216551
C54   C     C_3   0.441043 0.221151 0.740424 0.377650
C55   C     C_3   0.492134 0.176553 0.809270 -0.042360
C56   C     C_R   0.012269 0.949298 0.543095 0.163815
H1    H     H_    0.275391 0.678422 0.272023 0.112099
H2    H     H_    0.254009 0.135352 0.345071 0.099923
H3    H     H_    0.323553 0.135032 0.436921 0.075536
H4    H     H_    0.467920 0.154177 0.371849 0.130738
H5    H     H_    0.492034 0.705406 0.273012 -0.051527
H6    H     H_    0.353791 0.686572 0.150858 0.077873
H7    H     H_    0.500366 0.719779 0.613890 -0.013525
H8    H     H_    0.294168 0.730347 0.636637 0.099268
H9    H     H_    0.487423 0.821335 0.752626 0.177882
H10   H     H_    0.573337 0.858678 0.673303 0.082289
H11   H     H_    0.363138 0.872610 0.689910 0.068820
H12   H     H_    0.916813 0.215606 0.224994 0.091382
H13   H     H_    0.443613 0.799480 0.170652 0.101549
H14   H     H_    0.869185 0.939412 0.313418 0.069043
H15   H     H_    0.851778 0.183491 0.655797 0.072644
H16   H     H_    0.036235 0.218007 0.709020 -0.077259
H17   H     H_    0.769186 0.080275 0.739111 0.124909
H18   H     H_    0.902752 0.132751 0.810059 0.105527
H19   H     H_    0.307310 0.213217 0.729772 -0.072432
H20   H     H_    0.477221 0.294691 0.746225 0.065340
H21   H     H_    0.624806 0.189915 0.821589 0.106502
H22   H     H_    0.928264 0.789276 0.349703 0.067549
H23   H     H_    0.038371 0.320662 0.228924 0.089139
H24   H     H_    0.471923 0.101380 0.802134 0.068623
H25   H     H_    0.634767 0.707842 0.469706 0.066166
H26   H     H_    0.525668 0.975275 0.410138 0.071958
H27   H     H_    0.249090 0.050253 0.623448 0.081674
H28   H     H_    0.166192 0.303244 0.538752 0.058840
H29   H     H_    0.714453 0.102336 0.438183 0.113726
H30   H     H_    0.515513 0.528170 0.820326 0.082263
H31   H     H_    0.456867 0.605837 0.922710 0.058699
H32   H     H_    0.539535 0.630693 0.048076 0.059405
H33   H     H_    0.741914 0.781133 0.292740 -0.048602
H34   H     H_    0.086210 0.231974 0.287982 0.132021
H35   H     H_    0.294938 0.440610 0.190872 0.078451
H36   H     H_    0.253021 0.341079 0.960416 0.075189
H37   H     H_    0.340025 0.364064 0.085147 0.055021
H38   H     H_    0.070220 0.387838 0.866134 0.063370
H39   H     H_    0.731613 0.583488 0.136441 0.072394
H40   H     H_    0.181108 0.420229 0.651788 0.060140
H41   H     H_    0.650044 0.546168 0.353176 0.075877
H42   H     H_    0.046500 0.901687 0.271964 0.147012
H43   H     H_    0.936952 0.374032 0.339536 0.089945
H44   H     H_    0.788371 0.639389 0.756860 0.195751
H45   H     H_    0.755665 0.741385 0.655891 -0.054115
H46   H     H_    0.019187 0.563177 0.777504 0.056603
H47   H     H_    0.128446 0.642281 0.729965 0.077706
H48   H     H_    0.019648 0.549994 0.680597 0.100714
H49   H     H_    0.104836 0.869442 0.818079 0.100962
H50   H     H_    0.079640 0.749499 0.817828 0.112130
H51   H     H_    0.172042 0.801149 0.746211 0.128160
H52   H     H_    0.788094 0.760835 0.827344 0.197757
H53   H     H_    0.651716 0.890465 0.862930 0.104772
H54   H     H_    0.714400 0.948136 0.788520 0.118308
H55   H     H_    0.862654 0.925576 0.860845 0.112615
H56   H     H_    0.902536 0.874273 0.712997 0.059279
H57   H     H_    0.029563 0.998228 0.777830 0.143622
H58   H     H_    0.990074 0.012065 0.684304 0.135531
H59   H     H_    0.144137 0.081560 0.736930 0.138296
H60   H     H_    0.476658 0.211493 0.915961 0.200468
H61   H     H_    0.200128 0.194288 0.925266 0.097566
H62   H     H_    0.237848 0.101156 0.865150 0.108593
H63   H     H_    0.160765 0.206918 0.832402 0.126050
H64   H     H_    0.128909 0.893524 0.629508 0.174776
H65   H     H_    0.346187 0.836584 0.541609 0.102332
H66   H     H_    0.385933 0.939501 0.592411 0.038086
H67   H     H_    0.195155 0.282214 0.409635 -0.043586
H68   H     H_    0.301744 0.945548 0.504825 0.113117
H69   H     H_    0.858545 0.978530 0.187722 0.116531
H70   H     H_    0.871303 0.860166 0.159525 0.150715
H71   H     H_    0.694493 0.899144 0.202180 0.125807
H72   H     H_    0.655134 0.270856 0.250117 0.121990
H73   H     H_    0.644555 0.360496 0.316645 0.087050
H74   H     H_    0.740242 0.382817 0.235755 0.052301
H75   H     H_    0.408333 0.296387 0.439260 0.100155
H76   H     H_    0.225632 0.779669 0.171891 0.144951
N1    N     N_2   0.869608 0.647014 0.718746 -0.391696
N2    N     N_2   0.782216 0.812155 0.792567 -0.432603
N3    N     N_2   0.407668 0.212670 0.868424 -0.440943
N4    N     N_2   0.134180 0.895834 0.575787 -0.401711
O1    O     O_2   0.108370 0.727470 0.525290 -0.435750
O2    O     O_2   0.779983 0.440965 0.753303 -0.484312
O3    O     O_3   0.818422 0.266408 0.744232 -0.602039
O4    O     O_3   0.865330 0.611210 0.531230 -0.466806
O5    O     O_3   0.438280 0.453360 0.418700 -0.494876
O6    O     O_2   0.627420 0.543410 0.667830 -0.427246
O7    O     O_3   0.440762 0.668947 0.709617 -0.653943
O8    O     O_2   0.548180 0.167424 0.550112 -0.487738
O9    O     O_3   0.521663 0.178589 0.685681 -0.609645
O10   O     O_3   0.346360 0.671710 0.401620 -0.485371
O11   O     O_2   0.210523 0.828525 0.418911 -0.490925
O12   O     O_3   0.345744 0.309246 0.331446 -0.646278
O13   O     O_3   0.999977 0.731280 0.637609 -0.652100
O14   O     O_3   0.349919 0.811466 0.302637 -0.604538
O15   O     O_2   0.182890 0.456530 0.332150 -0.474368
O16   O     O_3   0.933230 0.625130 0.368420 -0.486006
O17   O     O_2   0.042379 0.561983 0.247896 -0.494560
O18   O     O_3   0.947096 0.730248 0.248820 -0.605409
O19   O     O_2   0.701930 0.272470 0.474700 -0.456861
O20   O     O_3   0.944970 0.388780 0.468720 -0.499609
O21   O     O_3   0.463940 0.328280 0.598320 -0.478673
O22   O     O_3   0.842350 0.246746 0.363936 -0.636041
O23   O     O_3   0.372010 0.546630 0.581240 -0.481713
O24   O     O_3   0.877070 0.374860 0.631520 -0.471107
P1    P     P_3+3 0.937730 0.712710 0.546710 1.000129
P2    P     P_3+3 0.357970 0.428340 0.344000 0.963730
P3    P     P_3+3 0.907049 0.620850 0.276537 0.939438
P4    P     P_3+3 0.872570 0.287280 0.453240 0.969378
P5    P     P_3+3 0.896857 0.371269 0.723089 0.958388
P6    P     P_3+3 0.367962 0.788870 0.392410 0.930422
P7    P     P_3+3 0.441028 0.558652 0.671430 0.950916
P8    P     P_3+3 0.438910 0.211707 0.603996 0.941669

loop_
_geom_bond_atom_site_label_1
_geom_bond_atom_site_label_2
_ccdc_geom_bond_type
C47   H55   S    
C5    P6    S    
C43   H2    S    
O21   P8    S    
C48   H59   S    
Ba2   O6    S    
C55   H21   S    
H52   N2    S    
C40   H45   S    
Ba2   O24   S    
C50   H66   S    
C34   H9    S    
C5    C6    A    
C24   P3    S    
C1    H6    S    
C25   C31   A    
C50   N4    S    
C28   O22   S    
C52   H73   S    
C28   C52   S    
C9    C17   A    
C15   H27   S    
C26   C27   A    
C8    C56   A    
C32   H38   S    
C48   H57   S    
C35   C38   A    
C17   H29   S    
C41   H56   S    
C38   H40   S    
C36   C37   A    
C3    H25   S    
C50   H65   S    
C46   H49   S    
C4    H33   S    
C55   H24   S    
C44   H47   S    
C44   H48   S    
C43   H4    S    
C54   H20   S    
C54   C55   S    
C25   H32   S    
C32   C33   A    
C43   H3    S    
H44   N1    S    
Ba1   O4    S    
C51   H69   S    
C16   C51   S    
C44   N1    S    
C7    C17   A    
Ba1   P2    S    
C6    C7    A    
C21   C31   S    
C10   C15   A    
C49   H61   S    
C21   C22   A    
O16   P3    S    
C26   H31   S    
O22   P4    S    
H60   N3    S    
C7    C8    A    
Ba2   P4    S    
Ba1   O1    S    
O9    P8    S    
C47   H53   S    
C53   H17   S    
C56   N4    S    
O2    P5    D    
C46   H51   S    
Ba1   O23   S    
C19   P2    S    
C19   C20   A    
Ba2   O5    S    
Ba1   O16   S    
O11   P6    D    
C16   H42   S    
C52   H72   S    
Ba2   O23   S    
O14   P6    S    
O23   P7    S    
C16   H14   S    
C4    C16   S    
O7    P7    S    
C42   H67   S    
O3    P5    S    
O15   P2    D    
C32   C37   A    
C23   H7    S    
C45   H15   S    
O4    P1    S    
C3    C5    A    
C34   H11   S    
C50   H68   S    
C14   C15   A    
C44   H46   S    
O6    P7    D    
C42   O12   S    
C54   H19   S    
C22   H39   S    
C36   H30   S    
C40   N1    S    
O10   P6    S    
C1    H13   S    
C35   C36   A    
C12   H1    S    
C51   H70   S    
C39   H34   S    
C4    H22   S    
C29   C30   A    
Ba2   O20   S    
C39   H23   S    
C27   C37   S    
C49   H62   S    
C2    P1    S    
C55   N3    S    
C28   C39   S    
Ba1   O15   S    
C40   O13   S    
H64   N4    S    
C1    C12   S    
C47   H54   S    
C53   H18   S    
C49   N3    S    
C47   N2    S    
O13   P1    S    
C13   H28   S    
C49   H63   S    
C20   H35   S    
C51   H71   S    
C40   C41   S    
Ba2   O21   S    
C2    C8    A    
O5    P2    S    
C52   H74   S    
C42   C43   S    
O20   P4    S    
C45   C53   S    
C41   C46   S    
C42   H75   S    
Ba1   O20   S    
C6    H26   S    
C23   H8    S    
C45   H16   S    
C22   C24   A    
C2    C3    A    
O19   P4    D    
C9    C10   A    
C34   H10   S    
Ba1   O5    S    
C29   H36   S    
O12   P2    S    
C45   O3    S    
C48   C53   S    
C1    H76   S    
C30   C31   A    
C54   O9    S    
C11   C13   A    
C33   C38   A    
C10   C56   A    
C27   C29   A    
C35   P7    S    
C9    C11   A    
C11   P4    S    
C46   H50   S    
C18   H41   S    
C18   C24   A    
O18   P3    S    
O17   P3    D    
Ba2   O19   S    
Ba2   O4    S    
C12   H5    S    
Ba1   Ba2   S    
C28   H43   S    
O1    P1    D    
C48   H58   S    
C41   N2    S    
O8    P8    D    
C23   C34   S    
O24   P5    S    
C14   P8    S    
C30   H37   S    
C18   C19   A    
Ba1   P1    S    
C33   P5    S    
C12   O14   S    
C25   C26   A    
C20   C21   A    
Ba1   O10   S    
C23   O7    S    
C4    O18   S    
C13   C14   A    
C39   H12   S    
