data_mof_unit_14747.cif
_audit_creation_date              2013-03-05T15:43:30-0500
_audit_creation_method            fapswitch 2.2
_symmetry_space_group_name_H-M    P1
_symmetry_Int_Tables_number       1
_space_group_crystal_system       triclinic
_cell_length_a                    10.863156
_cell_length_b                    11.010917
_cell_length_c                    9.741508
_cell_angle_alpha                 89.888672
_cell_angle_beta                  90.166772
_cell_angle_gamma                 92.614914
_cell_volume                      1163.99386051

loop_
_atom_site_label
_atom_site_type_symbol
_atom_site_description
_atom_site_fract_x
_atom_site_fract_y
_atom_site_fract_z
_atom_type_partial_charge
O1    O     O_R   0.500020 0.321960 0.617040 -0.505760
O2    O     O_R   0.499980 0.321920 0.382900 -0.512338
C1    C     C_R   0.497638 0.264996 0.499979 0.795249
O3    O     O_R   0.317710 0.500000 0.617070 -0.570614
O4    O     O_R   0.317670 0.499960 0.382930 -0.560969
C2    C     C_R   0.260817 0.509214 0.501011 0.782893
Cu1   Cu    Cu3+1 0.500030 0.500020 0.638630 1.074555
Cu2   Cu    Cu3+1 0.499970 0.499980 0.361370 1.050711
O5    O     O_R   0.500020 0.678080 0.617100 -0.572930
O6    O     O_R   0.499980 0.678040 0.382960 -0.576451
O7    O     O_R   0.682330 0.500040 0.617070 -0.525311
O8    O     O_R   0.682290 0.500000 0.382930 -0.579529
C3    C     C_R   0.500335 0.733729 0.500006 0.875382
C4    C     C_R   0.739752 0.502669 0.500940 0.834993
C5    C     C_3   0.071120 0.487792 0.656122 -0.163542
H1    H     H_    0.093526 0.390999 0.673219 0.176380
C6    C     C_3   0.927625 0.484450 0.654742 0.170969
H2    H     H_    0.897192 0.389304 0.680688 0.112199
H3    H     H_    0.099418 0.707904 0.537834 0.205540
C7    C     C_3   0.074579 0.642520 0.457141 -0.170212
C8    C     C_3   0.069318 0.414951 0.408175 -0.399280
C9    C     C_3   0.122854 0.516411 0.505647 -0.042585
H4    H     H_    0.099795 0.433986 0.301559 0.246048
H5    H     H_    0.108387 0.326694 0.437260 0.202782
C10   C     C_3   0.877588 0.507770 0.504906 -0.150070
C11   C     C_3   0.930536 0.631853 0.443328 0.190420
C12   C     C_3   0.926546 0.405997 0.409010 -0.210958
H6    H     H_    0.894737 0.425536 0.302590 0.206511
H7    H     H_    0.908880 0.628760 0.331406 0.120347
C13   C     C_2   0.461263 0.928045 0.400277 -0.214180
C14   C     C_2   0.512597 0.864249 0.499861 -0.205271
H8    H     H_    0.412258 0.880676 0.317735 0.183446
H9    H     H_    0.569528 0.906711 0.579334 0.209304
C15   C     C_2   0.480584 0.060671 0.389997 0.223066
C16   C     C_2   0.480697 0.132133 0.504247 0.034021
C17   C     C_2   0.438920 0.419899 0.924420 0.287074
N1    N     N_2   0.498630 0.498660 0.846910 -0.337205
H10   H     H_    0.530839 0.577786 0.893391 0.182901
C18   C     C_2   0.418387 0.440469 0.075518 0.343477
N2    N     N_2   0.498590 0.498630 0.153040 -0.346810
H11   H     H_    0.579825 0.527797 0.106883 0.192977
C19   C     C_3   0.131372 0.551306 0.787505 -0.264770
C20   C     C_3   0.180052 0.684709 0.777961 -0.328145
C21   C     C_3   0.253222 0.721201 0.906340 -0.785613
H12   H     H_    0.201711 0.692756 0.999961 0.252420
H13   H     H_    0.342681 0.677025 0.907301 0.241175
H14   H     H_    0.271771 0.821206 0.907104 0.289865
H15   H     H_    0.243510 0.699308 0.690116 0.220569
H16   H     H_    0.102739 0.746204 0.767519 0.281711
H17   H     H_    0.068367 0.542062 0.876622 0.242718
H18   H     H_    0.208684 0.497727 0.822970 0.253771
C22   C     C_3   0.134925 0.698766 0.325140 -0.456833
C23   C     C_3   0.102127 0.832804 0.307005 -0.364503
C24   C     C_3   0.152948 0.889543 0.175007 -0.752644
H19   H     H_    0.250935 0.868821 0.160637 0.267968
H20   H     H_    0.097440 0.855378 0.086184 0.264773
H21   H     H_    0.145952 0.989790 0.179379 0.279292
H22   H     H_    0.000894 0.840232 0.303758 0.262390
H23   H     H_    0.139408 0.886748 0.395479 0.252212
H24   H     H_    0.236661 0.698360 0.333027 0.218305
H25   H     H_    0.105706 0.645159 0.233179 0.231858
N3    N     N_R   0.499354 0.108601 0.253951 0.171836
O9    O     O_R   0.432809 0.062720 0.153999 -0.279208
O10   O     O_R   0.602013 0.167986 0.223971 -0.351428
N4    N     N_R   0.450271 0.080481 0.636225 0.133067
O11   O     O_R   0.530259 0.088413 0.735829 -0.282794
O12   O     O_R   0.342345 0.027678 0.657450 -0.323956
N5    N     N_R   0.388588 0.307658 0.868529 0.200747
O13   O     O_R   0.404993 0.207556 0.935363 -0.194756
O14   O     O_R   0.302999 0.307238 0.775243 -0.340020
N6    N     N_R   0.306116 0.389273 0.132633 0.156695
O15   O     O_R   0.202407 0.410906 0.072407 -0.440447
O16   O     O_R   0.309076 0.297873 0.216877 -0.299605
N7    N     N_R   0.873497 0.558421 0.763437 0.145579
O17   O     O_R   0.886100 0.676032 0.765072 -0.302567
O18   O     O_R   0.817070 0.504124 0.865848 -0.364138
N8    N     N_R   0.868992 0.739030 0.495580 0.136343
O19   O     O_R   0.763254 0.764495 0.442840 -0.403109
O20   O     O_R   0.928959 0.824204 0.564244 -0.364036
C25   C     C_3   0.877397 0.274356 0.442143 -0.388211
C26   C     C_3   0.894614 0.188833 0.319875 -0.345265
C27   C     C_3   0.852681 0.058764 0.355717 -0.651869
H26   H     H_    0.914378 0.023377 0.435690 0.274733
H27   H     H_    0.756643 0.054602 0.394615 0.268746
H28   H     H_    0.856999 0.000794 0.262927 0.252344
H29   H     H_    0.840493 0.219905 0.230576 0.272172
H30   H     H_    0.993087 0.189691 0.289172 0.239511
H31   H     H_    0.926042 0.238121 0.532916 0.217543
H32   H     H_    0.777628 0.273176 0.466733 0.198347

loop_
_geom_bond_atom_site_label_1
_geom_bond_atom_site_label_2
_geom_bond_distance
_ccdc_geom_bond_type
H3    C7    1.091911 S    
C26   C27   1.523165 S    
C23   H23   1.112501 S    
Cu1   Cu2   2.700930 S    
C23   C24   1.522528 S    
C22   C23   1.543686 S    
Cu1   O7    1.992056 S    
N3    O9    1.300133 A    
N7    O18   1.302408 A    
C17   N1    1.300733 D    
C22   H25   1.111303 S    
C13   C14   1.332464 D    
O7    C4    1.293092 A    
C16   N4    1.438091 S    
C5    H1    1.116072 S    
C2    C9    1.505228 S    
C15   N3    1.437201 S    
Cu1   O5    1.971391 S    
C15   C16   1.364246 D    
C25   H32   1.110146 S    
O5    C3    1.293720 A    
N3    O10   1.300441 A    
C22   H24   1.107829 S    
C5    C9    1.597088 S    
N5    O13   1.298061 A    
N4    O12   1.301577 A    
C14   H9    1.082908 S    
C20   H15   1.107313 S    
C26   H29   1.110703 S    
C21   H14   1.110380 S    
C19   H18   1.102486 S    
C8    C12   1.549630 S    
C8    C9    1.558691 S    
C25   H31   1.111530 S    
O3    Cu1   1.991057 S    
C21   H13   1.106419 S    
N8    O20   1.302100 A    
C24   H20   1.109656 S    
C11   N8    1.474805 S    
N7    O17   1.296118 A    
C13   C15   1.469086 S    
O3    C2    1.292941 A    
C12   C25   1.555260 S    
C18   N2    1.298711 D    
N6    O16   1.298828 A    
C20   H16   1.106949 S    
C10   C11   1.576226 S    
N8    O19   1.298981 A    
O1    C1    1.302154 A    
C20   C21   1.524558 S    
N1    H10   1.029236 S    
C1    C16   1.466641 S    
Cu2   O8    1.991059 S    
C6    H2    1.112921 S    
Cu1   N1    2.029085 S    
C26   H30   1.111211 S    
C19   H17   1.108699 S    
Cu2   O6    1.972254 S    
N2    H11   1.029542 S    
O8    C4    1.306276 A    
C27   H26   1.107950 S    
C27   H27   1.109948 S    
C8    H4    1.107722 S    
C6    N7    1.476814 S    
C19   C20   1.541045 S    
C21   H12   1.108538 S    
C5    C6    1.557592 S    
C24   H19   1.108089 S    
O1    Cu1   1.972254 S    
C3    C14   1.437237 S    
C17   C18   1.508454 S    
O2    Cu2   1.971391 S    
C5    C19   1.585054 S    
C7    C9    1.577628 S    
C25   C26   1.536924 S    
O6    C3    1.295593 A    
O4    Cu2   1.992056 S    
C23   H22   1.106811 S    
C17   N5    1.435972 S    
C10   C12   1.572471 S    
C27   H28   1.109916 S    
C6    C10   1.580681 S    
O2    C1    1.300097 A    
N6    O15   1.300111 A    
C7    C22   1.559350 S    
C13   H8    1.084341 S    
O4    C2    1.313512 A    
C7    C11   1.569222 S    
C4    C10   1.496208 S    
C11   H7    1.114971 S    
N5    O14   1.298080 A    
N4    O11   1.301004 A    
C8    H5    1.113845 S    
C12   H6    1.115454 S    
C18   N6    1.433454 S    
Cu2   N2    2.029538 S    
C24   H21   1.110789 S    
