data_mof_unit_28385.cif
_audit_creation_date              2013-03-05T16:06:16-0500
_audit_creation_method            fapswitch 2.2
_symmetry_space_group_name_H-M    P1
_symmetry_Int_Tables_number       1
_space_group_crystal_system       triclinic
_cell_length_a                    10.889888
_cell_length_b                    9.474416
_cell_length_c                    27.83444
_cell_angle_alpha                 89.951584
_cell_angle_beta                  90.272518
_cell_angle_gamma                 90.201512
_cell_volume                      2871.77627658

loop_
_atom_site_label
_atom_site_type_symbol
_atom_site_description
_atom_site_fract_x
_atom_site_fract_y
_atom_site_fract_z
_atom_type_partial_charge
O1    O     O_R   0.319640 0.618740 0.500000 -0.541958
O2    O     O_R   0.680360 0.381260 0.500000 -0.548936
O3    O     O_R   0.680360 0.618740 0.500000 -0.548311
O4    O     O_R   0.319640 0.381260 0.500000 -0.557068
C1    C     C_R   0.261990 0.499671 0.499641 0.895873
C2    C     C_R   0.738054 0.499899 0.498321 0.869819
O5    O     O_R   0.500020 0.618770 0.430260 -0.605084
O6    O     O_R   0.499980 0.381230 0.569740 -0.543449
O7    O     O_R   0.499980 0.618770 0.569740 -0.588133
O8    O     O_R   0.500020 0.381230 0.430260 -0.556451
C3    C     C_R   0.501021 0.500312 0.407326 0.837519
C4    C     C_R   0.500133 0.499968 0.592552 0.852813
Cu1   Cu    Cu3+1 0.500000 0.640660 0.500000 0.965264
Cu2   Cu    Cu3+1 0.500000 0.359340 0.500000 0.985971
C5    C     C_R   0.399514 0.491980 0.176918 0.660409
C6    C     C_R   0.618036 0.530990 0.821792 0.656945
O9    O     O_2   0.293909 0.499651 0.201930 -0.484843
O10   O     O_2   0.717116 0.572113 0.796381 -0.484718
N1    N     N_R   0.508778 0.489799 0.201266 -0.444562
N2    N     N_R   0.514088 0.490713 0.797784 -0.442551
C7    C     C_R   0.618457 0.489434 0.177627 0.554978
C8    C     C_R   0.410701 0.448787 0.821444 0.559220
C9    C     C_R   0.560099 0.605084 0.277592 -0.210634
C10   C     C_R   0.448700 0.601136 0.722542 -0.222268
C11   C     C_R   0.559936 0.610283 0.327666 0.154593
C12   C     C_R   0.441962 0.604966 0.672101 0.182981
C13   C     C_R   0.446696 0.386767 0.328980 0.331442
C14   C     C_R   0.572407 0.394457 0.669693 0.322687
C15   C     C_R   0.455438 0.378898 0.278768 0.454537
C16   C     C_R   0.572201 0.388474 0.720044 0.451926
C17   C     C_R   0.508285 0.490927 0.252959 0.116308
C18   C     C_R   0.512681 0.493995 0.746264 0.136833
C19   C     C_R   0.509446 0.492815 0.101155 -0.193098
C20   C     C_R   0.514322 0.490211 0.897714 -0.193016
C21   C     C_R   0.397055 0.488656 0.126268 -0.198707
C22   C     C_R   0.621095 0.531321 0.872478 -0.193086
C23   C     C_R   0.285540 0.484915 0.100237 0.412581
C24   C     C_R   0.726371 0.574857 0.898426 0.406771
C25   C     C_R   0.621642 0.494606 0.127041 -0.085214
C26   C     C_R   0.408550 0.445931 0.871998 -0.085173
C27   C     C_R   0.502202 0.500355 0.354169 -0.272796
C28   C     C_R   0.503816 0.499574 0.645505 -0.271699
C29   C     C_R   0.403059 0.462360 0.973644 0.045428
C30   C     C_R   0.622252 0.509752 0.025231 0.042584
C31   C     C_R   0.621208 0.527913 0.974533 -0.094180
C32   C     C_R   0.398135 0.482361 0.024231 -0.098821
C33   C     C_R   0.513086 0.493099 0.948695 0.003978
C34   C     C_R   0.509838 0.495017 0.050146 0.006231
C35   C     C_R   0.303042 0.407032 0.947468 -0.256443
C36   C     C_R   0.732470 0.501551 0.051618 -0.258912
C37   C     C_R   0.305000 0.397385 0.897524 0.480887
C38   C     C_R   0.733468 0.500105 0.101702 0.470954
O11   O     O_2   0.310556 0.410476 0.795797 -0.500746
O12   O     O_2   0.723758 0.483144 0.203272 -0.502086
C39   C     C_R   0.285951 0.491423 0.049945 0.358122
C40   C     C_R   0.723364 0.582211 0.948727 0.364924
H1    H     H_    0.402147 0.678930 0.744186 0.174984
H2    H     H_    0.601733 0.690655 0.257503 0.184657
H3    H     H_    0.223376 0.363991 0.965175 0.204916
H4    H     H_    0.820124 0.491387 0.034049 0.217943
C41   C     C_R   0.063539 0.371394 0.505258 0.346392
C42   C     C_R   0.937323 0.626087 0.489186 0.336566
C43   C     C_R   0.936374 0.369131 0.498745 0.352914
C44   C     C_R   0.064639 0.622921 0.485127 0.345552
C45   C     C_R   0.872017 0.498481 0.494979 -0.388449
C46   C     C_R   0.128277 0.498377 0.497119 -0.380517
C47   C     C_R   0.439942 0.074296 0.464831 -0.055076
C48   C     C_R   0.561230 0.925617 0.534888 -0.006174
C49   C     C_R   0.561640 0.074690 0.534778 0.007707
C50   C     C_R   0.439699 0.925273 0.464890 -0.012404
H5    H     H_    0.390904 0.130321 0.436954 0.166840
H6    H     H_    0.610333 0.869418 0.562772 0.127237
H7    H     H_    0.611580 0.131078 0.562417 0.175713
H8    H     H_    0.391335 0.868799 0.436862 0.127639
N3    N     N_R   0.500000 0.852070 0.500000 -0.153434
N4    N     N_R   0.500000 0.147930 0.500000 -0.166775
O13   O     O_3   0.387259 0.279185 0.353224 -0.560709
C51   C     C_3   0.262486 0.315857 0.357938 -0.277110
H9    H     H_    0.218527 0.335999 0.322388 0.196522
H10   H     H_    0.251505 0.409035 0.381832 0.122778
H11   H     H_    0.213060 0.226003 0.374631 0.156213
O14   O     O_3   0.636356 0.293330 0.644285 -0.573057
C52   C     C_3   0.755978 0.344639 0.635676 -0.220898
H12   H     H_    0.806953 0.362162 0.669922 0.190425
H13   H     H_    0.754469 0.443364 0.613961 0.123198
H14   H     H_    0.806799 0.264377 0.614739 0.197383
O15   O     O_3   0.404630 0.265122 0.254706 -0.545269
C53   C     C_3   0.495895 0.161139 0.249666 -0.279775
H15   H     H_    0.528759 0.122833 0.285289 0.179031
H16   H     H_    0.574444 0.200658 0.227954 0.162105
H17   H     H_    0.455517 0.069580 0.230361 0.182725
O16   O     O_3   0.637131 0.284383 0.743843 -0.550940
C54   C     C_3   0.561613 0.163721 0.747592 -0.271551
H18   H     H_    0.537439 0.120570 0.711584 0.183064
H19   H     H_    0.476827 0.186404 0.768335 0.160567
H20   H     H_    0.612932 0.080747 0.767288 0.189552
O17   O     O_3   0.173896 0.483095 0.123692 -0.536625
C55   C     C_3   0.130698 0.342554 0.125062 -0.153638
H21   H     H_    0.199432 0.270007 0.141540 0.137777
H22   H     H_    0.104525 0.305073 0.088534 0.154727
H23   H     H_    0.047334 0.338523 0.147759 0.222112
O18   O     O_3   0.830128 0.622824 0.874856 -0.538378
C56   C     C_3   0.918826 0.514471 0.875372 -0.114411
H24   H     H_    0.882664 0.415803 0.858644 0.152254
H25   H     H_    0.952264 0.492750 0.912472 0.169797
H26   H     H_    0.998971 0.549504 0.853908 0.212306
N5    N     N_2   0.370544 0.709458 0.647515 -0.388962
H27   H     H_    0.307987 0.670113 0.622967 0.259815
C57   C     C_3   0.331273 0.835280 0.672487 -0.654414
H28   H     H_    0.293837 0.911960 0.646072 0.234830
H29   H     H_    0.410382 0.885876 0.691122 0.223091
H30   H     H_    0.257891 0.808813 0.698600 0.224995
N6    N     N_2   0.620453 0.726544 0.349934 -0.419431
H31   H     H_    0.567666 0.785618 0.372927 0.273857
C58   C     C_3   0.743510 0.698001 0.367038 -0.603203
H32   H     H_    0.785295 0.796745 0.381174 0.229782
H33   H     H_    0.801351 0.658806 0.337134 0.226224
H34   H     H_    0.741845 0.618248 0.396273 0.219249
O19   O     O_3   0.201746 0.346858 0.873976 -0.557618
C59   C     C_3   0.204983 0.198043 0.874541 -0.273752
H35   H     H_    0.197200 0.156082 0.911761 0.132140
H36   H     H_    0.289675 0.157326 0.857123 0.160822
H37   H     H_    0.125160 0.157650 0.853742 0.199932
O20   O     O_3   0.845116 0.498425 0.125585 -0.548431
C60   C     C_3   0.896202 0.635483 0.124145 -0.187805
H38   H     H_    0.977419 0.638691 0.148288 0.229664
H39   H     H_    0.830509 0.716446 0.137345 0.127101
H40   H     H_    0.927728 0.662468 0.087312 0.157943
O21   O     O_3   0.174567 0.511970 0.026922 -0.579527
C61   C     C_3   0.160055 0.657546 0.018126 -0.286940
H41   H     H_    0.232885 0.698728 0.993884 0.155214
H42   H     H_    0.158871 0.718599 0.052280 0.157942
H43   H     H_    0.070473 0.674004 0.999899 0.218856
O22   O     O_3   0.820140 0.649512 0.971655 -0.591561
C62   C     C_3   0.786788 0.790832 0.980385 -0.315171
H44   H     H_    0.706442 0.797482 0.004836 0.158271
H45   H     H_    0.767491 0.847975 0.946219 0.185899
H46   H     H_    0.864926 0.844951 0.998360 0.169928
O23   O     O_3   0.121244 0.258643 0.527819 -0.543868
C63   C     C_3   0.137151 0.145191 0.495691 -0.162696
H47   H     H_    0.214640 0.080264 0.508934 0.184605
H48   H     H_    0.159665 0.180050 0.458543 0.099418
H49   H     H_    0.055655 0.074998 0.495827 0.197326
O24   O     O_3   0.877169 0.753698 0.483837 -0.554971
C64   C     C_3   0.884021 0.827452 0.527842 -0.220380
H50   H     H_    0.840329 0.766414 0.557426 0.136356
H51   H     H_    0.833356 0.928117 0.524032 0.183006
H52   H     H_    0.980395 0.854257 0.537665 0.181128
O25   O     O_3   0.875463 0.240818 0.500551 -0.552749
C65   C     C_3   0.853086 0.195217 0.452838 -0.283296
H53   H     H_    0.794227 0.270324 0.432494 0.166526
H54   H     H_    0.804014 0.092499 0.454006 0.196546
H55   H     H_    0.939831 0.179496 0.432685 0.121215
O26   O     O_3   0.126336 0.746334 0.473705 -0.548010
C66   C     C_3   0.128691 0.759710 0.423254 -0.287909
H56   H     H_    0.184240 0.674151 0.406814 0.138456
H57   H     H_    0.172454 0.861991 0.414010 0.160014
H58   H     H_    0.034546 0.760683 0.407477 0.174503

loop_
_geom_bond_atom_site_label_1
_geom_bond_atom_site_label_2
_geom_bond_distance
_ccdc_geom_bond_type
C9    H2    1.083778 S    
O15   C53   1.409420 S    
C43   C45   1.417458 A    
C54   H18   1.112847 S    
C62   H46   1.109324 S    
C63   H49   1.107158 S    
O3    C2    1.292300 A    
N1    C17   1.438938 S    
C35   C37   1.393511 A    
C23   O17   1.382763 S    
O17   C55   1.411184 S    
C62   H44   1.113024 S    
O13   C51   1.410416 S    
C59   H35   1.112828 S    
C48   N3    1.365606 A    
C5    N1    1.366738 A    
C19   C25   1.415533 A    
C37   O19   1.383050 S    
O1    C1    1.289125 A    
N1    C7    1.366390 A    
C10   C12   1.406014 A    
O21   C61   1.409901 S    
C57   H29   1.110972 S    
N2    C18   1.434354 S    
C7    O12   1.349312 S    
C51   H10   1.112870 S    
C13   C15   1.403377 A    
C58   H32   1.110424 S    
C44   O26   1.384037 S    
C49   N4    1.365703 A    
C62   H45   1.113420 S    
C14   C28   1.415060 A    
C41   C43   1.395871 A    
O7    Cu1   1.952048 S    
C43   O25   1.383816 S    
C4    C28   1.474277 S    
C41   C46   1.410973 A    
C2    C45   1.462350 S    
Cu1   N3    2.002986 S    
C31   C40   1.421683 A    
C48   C49   1.412367 A    
C58   H33   1.111146 S    
C65   H55   1.111464 S    
C32   C39   1.421709 A    
C50   H8    1.080332 S    
C60   H40   1.112014 S    
C36   C38   1.394104 A    
N5    H27   1.031580 S    
C49   H7    1.080595 S    
C42   C44   1.392019 A    
O3    Cu1   1.975776 S    
C59   H37   1.109274 S    
C6    N2    1.365187 A    
C25   C38   1.410951 A    
C54   H19   1.112968 S    
Cu1   Cu2   2.665343 S    
C66   H58   1.113466 S    
C15   C17   1.404345 A    
N5    C57   1.447382 S    
O2    C2    1.286700 A    
Cu2   N4    2.002987 S    
C5    C21   1.410331 A    
C64   H51   1.108266 S    
C59   H36   1.114263 S    
C64   H50   1.113490 S    
C8    O11   1.349422 S    
C31   C33   1.414923 A    
C32   C34   1.416049 A    
C14   O14   1.383353 S    
C63   H47   1.107552 S    
C16   O16   1.382290 S    
O8    Cu2   1.952048 S    
C57   H30   1.110670 S    
C11   C27   1.422224 A    
C51   H9    1.113771 S    
C29   C35   1.407493 A    
C39   O21   1.383432 S    
C48   H6    1.081283 S    
C9    C17   1.396983 A    
C61   H42   1.113367 S    
C42   O24   1.384707 S    
C10   C18   1.396899 A    
C11   N6    1.422654 S    
C13   C27   1.416954 A    
O5    C3    1.291736 A    
C52   H12   1.113066 S    
C7    C25   1.409448 A    
C53   H17   1.109254 S    
O6    C4    1.292261 A    
C58   H34   1.110145 S    
C8    C26   1.407670 A    
C56   H25   1.112602 S    
O19   C59   1.410568 S    
C66   H57   1.109001 S    
O26   C66   1.410236 S    
C52   H13   1.113349 S    
C53   H16   1.113282 S    
C55   H21   1.114848 S    
C54   H20   1.109202 S    
C55   H22   1.112764 S    
C60   H38   1.108585 S    
C65   H54   1.109143 S    
C61   H43   1.108881 S    
O1    Cu1   1.974323 S    
C26   C37   1.411157 A    
C66   H56   1.113166 S    
C64   H52   1.111856 S    
C30   C31   1.421457 A    
C12   C28   1.417573 A    
N6    H31   1.029413 S    
C10   H1    1.081418 S    
C30   C36   1.406519 A    
C5    O9    1.349381 S    
O6    Cu2   1.952397 S    
C42   C45   1.410020 A    
C21   C23   1.411492 A    
O7    C4    1.291859 A    
C41   O23   1.389327 S    
N2    C8    1.364750 A    
O4    C1    1.287524 A    
C13   O13   1.382602 S    
C12   N5    1.432654 S    
C40   O22   1.383508 S    
O23   C63   1.410506 S    
O22   C62   1.410139 S    
C20   C33   1.419435 A    
C55   H23   1.109013 S    
C35   H3    1.078467 S    
O24   C64   1.412215 S    
C47   C50   1.411895 A    
C36   H4    1.079226 S    
C22   C24   1.412599 A    
C61   H41   1.113107 S    
C24   O18   1.384402 S    
O25   C65   1.416677 S    
C1    C46   1.457481 S    
C16   C18   1.400915 A    
C38   O20   1.383066 S    
C51   H11   1.108527 S    
C14   C16   1.402583 A    
O16   C54   1.410000 S    
C19   C21   1.412757 A    
C20   C22   1.414648 A    
C3    C27   1.479718 S    
C56   H26   1.109700 S    
C47   H5    1.079990 S    
C9    C11   1.394703 A    
O4    Cu2   1.975776 S    
O18   C56   1.412041 S    
O2    Cu2   1.974323 S    
C29   C32   1.422203 A    
C15   O15   1.382101 S    
O8    C3    1.295872 A    
C23   C39   1.401210 A    
O5    Cu1   1.952397 S    
C52   H14   1.109479 S    
C24   C40   1.402416 A    
C53   H15   1.113507 S    
C50   N3    1.365009 A    
C6    O10   1.349095 S    
O14   C52   1.410326 S    
C56   H24   1.114528 S    
C60   H39   1.114462 S    
C19   C34   1.419966 A    
C65   H53   1.112174 S    
C20   C26   1.415764 A    
C47   N4    1.365499 A    
C63   H48   1.113380 S    
C57   H28   1.110382 S    
C29   C33   1.416981 A    
C6    C22   1.411057 A    
C30   C34   1.416236 A    
C44   C46   1.409583 A    
O20   C60   1.411510 S    
N6    C58   1.446324 S    
