data_mof_unit_27173.cif
_audit_creation_date              2012-12-11T16:26:20-0500
_audit_creation_method            fapswitch 2.2
_symmetry_space_group_name_H-M    P1
_symmetry_Int_Tables_number       1
_space_group_crystal_system       triclinic
_cell_length_a                    13.983818
_cell_length_b                    13.981543
_cell_length_c                    31.916657
_cell_angle_alpha                 90.036395
_cell_angle_beta                  89.931895
_cell_angle_gamma                 119.95681
_cell_volume                      5406.51524259

loop_
_atom_site_label
_atom_site_type_symbol
_atom_type_description
_atom_site_fract_x
_atom_site_fract_y
_atom_site_fract_z
_atom_type_partial_charge
C1    C     C_R   0.567048 0.444459 0.810403 0.548781
C2    C     C_R   0.876645 0.432361 0.689581 0.530407
C3    C     C_R   0.555645 0.122834 0.810359 0.546079
C4    C     C_R   0.567687 0.444275 0.689524 0.534232
C5    C     C_R   0.877159 0.432700 0.810343 0.534556
C6    C     C_R   0.555942 0.123138 0.689528 0.545239
C7    C     C_R   0.444311 0.566717 0.310296 0.538054
C8    C     C_R   0.432349 0.876555 0.189516 0.533328
C9    C     C_R   0.122987 0.555779 0.310405 0.544878
C10   C     C_R   0.444464 0.566766 0.189661 0.545963
C11   C     C_R   0.432483 0.876961 0.310356 0.533921
C12   C     C_R   0.123278 0.555886 0.189509 0.545359
C13   C     C_1   0.011954 0.536370 0.018099 -0.033998
C14   C     C_1   0.534228 0.001742 0.480700 -0.031403
C15   C     C_1   0.480847 0.484924 0.018748 -0.035184
C16   C     C_1   0.002729 0.534305 0.480863 -0.035034
C17   C     C_1   0.525315 0.988161 0.017743 -0.037255
C18   C     C_1   0.469561 0.467747 0.480431 -0.039168
C19   C     C_1   0.539825 0.012240 0.518060 -0.033763
C20   C     C_1   0.001981 0.531170 0.980747 -0.039303
C21   C     C_1   0.474139 0.463152 0.517826 -0.040334
C22   C     C_1   0.530612 0.998820 0.980423 -0.035198
C23   C     C_1   0.991618 0.528553 0.518161 -0.041046
C24   C     C_1   0.484151 0.481780 0.981255 -0.035513
C25   C     C_R   0.931262 0.469086 0.851582 -0.007418
C26   C     C_R   0.540013 0.068744 0.648304 0.011208
C27   C     C_R   0.527756 0.463252 0.851097 0.010167
C28   C     C_R   0.925759 0.465851 0.647564 -0.007261
C29   C     C_R   0.537848 0.065949 0.851075 0.010108
C30   C     C_R   0.533544 0.460543 0.647634 -0.004885
C31   C     C_R   0.468174 0.929813 0.351755 -0.010528
C32   C     C_R   0.069094 0.539429 0.148257 0.009713
C33   C     C_R   0.461913 0.526604 0.350914 -0.003805
C34   C     C_R   0.466518 0.926391 0.147559 -0.011046
C35   C     C_R   0.067159 0.538652 0.351329 0.010767
C36   C     C_R   0.462656 0.526331 0.149088 0.009552
C37   C     C_R   0.975766 0.579017 0.866314 0.163728
C38   C     C_R   0.616731 0.039447 0.632175 0.160272
C39   C     C_R   0.427364 0.382180 0.869813 0.164297
C40   C     C_R   0.981121 0.577265 0.633764 0.156564
C41   C     C_R   0.612180 0.033058 0.866744 0.163177
C42   C     C_R   0.423153 0.399047 0.633098 0.161461
C43   C     C_R   0.578918 0.977727 0.365683 0.163986
C44   C     C_R   0.038860 0.615274 0.131978 0.162762
C45   C     C_R   0.388159 0.419296 0.366966 0.159426
C46   C     C_R   0.575979 0.970066 0.132516 0.162672
C47   C     C_R   0.032977 0.612209 0.366849 0.162695
C48   C     C_R   0.378778 0.428407 0.129835 0.165304
C49   C     C_R   0.003851 0.602456 0.909146 0.181790
C50   C     C_R   0.616805 0.018741 0.588792 0.156822
C51   C     C_R   0.410058 0.389324 0.913118 0.160496
C52   C     C_R   0.007346 0.600329 0.590747 0.181369
C53   C     C_R   0.609394 0.007984 0.909831 0.159511
C54   C     C_R   0.400668 0.401982 0.590008 0.180043
C55   C     C_R   0.603027 0.003889 0.408569 0.185908
C56   C     C_R   0.017693 0.614228 0.088572 0.158713
C57   C     C_R   0.391758 0.397289 0.409846 0.181702
C58   C     C_R   0.597497 0.991135 0.089227 0.188072
C59   C     C_R   0.008892 0.610468 0.410025 0.157867
C60   C     C_R   0.385456 0.412128 0.086439 0.160477
C61   C     C_R   0.986199 0.515885 0.936454 0.010971
C62   C     C_R   0.538690 0.024248 0.562596 0.019237
C63   C     C_R   0.490894 0.478581 0.936553 0.022669
C64   C     C_R   0.974987 0.512063 0.562365 0.008534
C65   C     C_R   0.530797 0.012866 0.936033 0.020333
C66   C     C_R   0.488912 0.463920 0.562209 0.010488
C67   C     C_R   0.517149 0.985118 0.436466 0.008630
C68   C     C_R   0.023760 0.535890 0.062609 0.020054
C69   C     C_R   0.470221 0.480802 0.435941 0.012111
C70   C     C_R   0.510495 0.973039 0.062067 0.009558
C71   C     C_R   0.016542 0.533933 0.436476 0.019007
C72   C     C_R   0.477321 0.490773 0.063472 0.024027
C73   C     C_R   0.949837 0.410104 0.921007 -0.163236
C74   C     C_R   0.457277 0.042455 0.579533 -0.167302
C75   C     C_R   0.582666 0.563932 0.916797 -0.165080
C76   C     C_R   0.925475 0.403725 0.576705 -0.165425
C77   C     C_R   0.451616 0.034654 0.919399 -0.166312
C78   C     C_R   0.595762 0.528902 0.577329 -0.162697
C79   C     C_R   0.410070 0.945125 0.421793 -0.167835
C80   C     C_R   0.042839 0.455305 0.079707 -0.155040
C81   C     C_R   0.549995 0.581065 0.418987 -0.166117
C82   C     C_R   0.404970 0.937257 0.077703 -0.163350
C83   C     C_R   0.039704 0.455416 0.420039 -0.154259
C84   C     C_R   0.565420 0.578849 0.083800 -0.164746
C85   C     C_R   0.923223 0.386950 0.879072 -0.168698
C86   C     C_R   0.457415 0.063864 0.621947 -0.174774
C87   C     C_R   0.600664 0.556825 0.874467 -0.179169
C88   C     C_R   0.901866 0.380818 0.618803 -0.165005
C89   C     C_R   0.454693 0.060554 0.877361 -0.174355
C90   C     C_R   0.617792 0.527971 0.619514 -0.168428
C91   C     C_R   0.385650 0.917567 0.379964 -0.168709
C92   C     C_R   0.064954 0.456701 0.122069 -0.163983
C93   C     C_R   0.546393 0.603497 0.376905 -0.174238
C94   C     C_R   0.382985 0.913872 0.119901 -0.167314
C95   C     C_R   0.064444 0.457383 0.377919 -0.165967
C96   C     C_R   0.558639 0.596012 0.126268 -0.182232
Cr1   Cr    Cr6+3 0.504240 0.249200 0.750000 1.006597
Cr2   Cr    Cr6+3 0.744960 0.495760 0.750000 0.979687
Cr3   Cr    Cr6+3 0.750800 0.255040 0.750000 1.035608
Cr4   Cr    Cr6+3 0.249200 0.504240 0.250000 1.010708
Cr5   Cr    Cr6+3 0.495760 0.744960 0.250000 0.978848
Cr6   Cr    Cr6+3 0.255040 0.750800 0.250000 1.034549
H1    H     H_    0.045291 0.393625 0.059836 0.122682
H2    H     H_    0.343982 0.931284 0.443147 0.119717
H3    H     H_    0.637558 0.637698 0.066344 0.107699
H4    H     H_    0.043328 0.395047 0.440284 0.124486
H5    H     H_    0.338147 0.923828 0.056879 0.120487
H6    H     H_    0.612523 0.644396 0.438803 0.109387
H7    H     H_    0.395812 0.044627 0.559509 0.114244
H8    H     H_    0.938109 0.343848 0.941845 0.120601
H9    H     H_    0.663422 0.578266 0.556128 0.118362
H10   H     H_    0.390005 0.036616 0.939469 0.115962
H11   H     H_    0.902380 0.335927 0.555009 0.122163
H12   H     H_    0.643657 0.633837 0.934646 0.111480
O1    O     O_R   0.480350 0.140770 0.796330 -0.518713
O2    O     O_R   0.660420 0.519650 0.703670 -0.533399
O3    O     O_R   0.859230 0.339580 0.796330 -0.513014
O4    O     O_R   0.480350 0.140770 0.703670 -0.534489
O5    O     O_R   0.660420 0.519650 0.796330 -0.534681
O6    O     O_R   0.859230 0.339580 0.703670 -0.510312
O7    O     O_R   0.140770 0.480350 0.296330 -0.533313
O8    O     O_R   0.519650 0.660420 0.203670 -0.535945
O9    O     O_R   0.339580 0.859230 0.296330 -0.512849
O10   O     O_R   0.140770 0.480350 0.203670 -0.514891
O11   O     O_R   0.519650 0.660420 0.296330 -0.527586
O12   O     O_R   0.339580 0.859230 0.203670 -0.513155
O13   O     O_R   0.514930 0.348530 0.793250 -0.460913
O14   O     O_R   0.833600 0.485070 0.706750 -0.500652
O15   O     O_R   0.651470 0.166400 0.793250 -0.462647
O16   O     O_R   0.514930 0.348530 0.706750 -0.492124
O17   O     O_R   0.833600 0.485070 0.793250 -0.492164
O18   O     O_R   0.651470 0.166400 0.706750 -0.462527
O19   O     O_R   0.348530 0.514930 0.293250 -0.500808
O20   O     O_R   0.485070 0.833600 0.206750 -0.493055
O21   O     O_R   0.166400 0.651470 0.293250 -0.462335
O22   O     O_R   0.348530 0.514930 0.206750 -0.460013
O23   O     O_R   0.485070 0.833600 0.293250 -0.492617
O24   O     O_R   0.166400 0.651470 0.206750 -0.463894
O25   O     O_3   0.666667 0.333333 0.750000 -0.232453
O26   O     O_3   0.333333 0.666667 0.250000 -0.233012
N1    N     N_2   0.995198 0.666537 0.838395 -0.504748
H13   H     H_    0.013946 0.658911 0.807762 0.239793
C97   C     C_3   0.927301 0.717075 0.843802 -0.260847
H14   H     H_    0.981335 0.807998 0.845599 0.142342
H15   H     H_    0.876671 0.688255 0.872837 0.157001
H16   H     H_    0.871012 0.697117 0.816605 0.146572
N2    N     N_2   0.696779 0.036407 0.658998 -0.487257
H17   H     H_    0.768656 0.050434 0.644574 0.268949
C98   C     C_3   0.653074 0.943692 0.687569 -0.296756
H18   H     H_    0.619613 0.865035 0.669897 0.129056
H19   H     H_    0.586724 0.941578 0.707376 0.141698
H20   H     H_    0.720013 0.951496 0.708462 0.126595
N3    N     N_2   0.347396 0.290929 0.845884 -0.484099
H21   H     H_    0.298059 0.219990 0.862660 0.267180
C99   C     C_3   0.285498 0.317724 0.816492 -0.290682
H22   H     H_    0.341740 0.384744 0.794939 0.143322
H23   H     H_    0.231396 0.243770 0.797374 0.130145
H24   H     H_    0.233212 0.344078 0.833476 0.128741
N4    N     N_2   0.015468 0.666117 0.662803 -0.504225
H25   H     H_    0.030355 0.649372 0.692785 0.239911
C100  C     C_3   0.953339 0.723507 0.661798 -0.284313
H26   H     H_    0.993449 0.796839 0.682607 0.121967
H27   H     H_    0.867914 0.668763 0.673068 0.165080
H28   H     H_    0.950496 0.752253 0.629674 0.170180
N5    N     N_2   0.692788 0.030917 0.839881 -0.487410
H29   H     H_    0.763139 0.041608 0.854526 0.268164
C101  C     C_3   0.649254 0.941549 0.809775 -0.297808
H30   H     H_    0.612950 0.860754 0.826080 0.126939
H31   H     H_    0.716950 0.950110 0.789082 0.126103
H32   H     H_    0.585118 0.943398 0.789893 0.143159
N6    N     N_2   0.334471 0.337070 0.661478 -0.505790
H33   H     H_    0.344663 0.365968 0.691814 0.237386
C102  C     C_3   0.278591 0.217939 0.657697 -0.263169
H34   H     H_    0.303012 0.182541 0.683939 0.149407
H35   H     H_    0.188111 0.184539 0.659190 0.141814
H36   H     H_    0.298254 0.191257 0.627652 0.156748
N7    N     N_2   0.666737 0.007547 0.336523 -0.488882
H37   H     H_    0.655304 0.031474 0.307256 0.236344
C103  C     C_3   0.718433 0.939959 0.335997 -0.251393
H38   H     H_    0.808344 0.993152 0.341458 0.146781
H39   H     H_    0.705973 0.899160 0.305008 0.136148
H40   H     H_    0.683869 0.874897 0.360397 0.141814
N8    N     N_2   0.035638 0.695703 0.158606 -0.487936
H41   H     H_    0.048189 0.766731 0.143929 0.267418
C104  C     C_3   0.944177 0.652230 0.187806 -0.296730
H42   H     H_    0.864644 0.617066 0.170697 0.127783
H43   H     H_    0.952004 0.719728 0.208431 0.125484
H44   H     H_    0.943823 0.587197 0.207846 0.144320
N9    N     N_2   0.307265 0.333518 0.341443 -0.487689
H45   H     H_    0.243445 0.345136 0.331896 0.271277
C105  C     C_3   0.349776 0.291386 0.309388 -0.297482
H46   H     H_    0.406543 0.266217 0.323377 0.142564
H47   H     H_    0.280202 0.217957 0.294398 0.132490
H48   H     H_    0.394567 0.354607 0.284909 0.134847
N10   N     N_2   0.665474 0.000385 0.160807 -0.488140
H49   H     H_    0.657098 0.029912 0.189400 0.236439
C106  C     C_3   0.708288 0.925256 0.163650 -0.248713
H50   H     H_    0.793001 0.965544 0.150446 0.148901
H51   H     H_    0.655365 0.847163 0.146544 0.149971
H52   H     H_    0.712037 0.904189 0.196954 0.128204
N11   N     N_2   0.028548 0.691056 0.339724 -0.488331
H53   H     H_    0.037883 0.761221 0.354139 0.269144
C107  C     C_3   0.938880 0.645162 0.309788 -0.296511
H54   H     H_    0.945643 0.711757 0.288922 0.125837
H55   H     H_    0.858183 0.607673 0.326233 0.128690
H56   H     H_    0.942127 0.581431 0.290062 0.144490
N12   N     N_2   0.285577 0.349951 0.153385 -0.481099
H57   H     H_    0.214229 0.303630 0.136446 0.267390
C108  C     C_3   0.308322 0.283993 0.182266 -0.289954
H58   H     H_    0.377074 0.337345 0.203687 0.140089
H59   H     H_    0.233822 0.232385 0.201543 0.130488
H60   H     H_    0.330389 0.229006 0.164833 0.127704
N13   N     N_2   0.994633 0.694422 0.071207 -0.535500
H61   H     H_    0.037552 0.730176 0.043996 0.245205
C109  C     C_3   0.878317 0.657873 0.067361 -0.315766
H62   H     H_    0.838662 0.588811 0.044549 0.150685
H63   H     H_    0.867964 0.727283 0.056096 0.128328
H64   H     H_    0.836467 0.630457 0.098159 0.157250
N14   N     N_2   0.713662 0.050961 0.423087 -0.488163
H65   H     H_    0.740468 0.122012 0.440505 0.246039
C110  C     C_3   0.742444 0.973955 0.441554 -0.308376
H66   H     H_    0.751631 0.986050 0.475977 0.125973
H67   H     H_    0.822241 0.989205 0.428304 0.147616
H68   H     H_    0.678889 0.886548 0.435326 0.136371
N15   N     N_2   0.297433 0.319380 0.065959 -0.535413
H69   H     H_    0.271562 0.339035 0.038699 0.249234
C111  C     C_3   0.315375 0.226814 0.060569 -0.315208
H70   H     H_    0.386417 0.249309 0.039257 0.143478
H71   H     H_    0.240539 0.156372 0.046685 0.135879
H72   H     H_    0.331501 0.200212 0.091222 0.158567
N16   N     N_2   0.981065 0.688045 0.426677 -0.534885
H73   H     H_    0.021643 0.724739 0.454152 0.245407
C112  C     C_3   0.863717 0.647475 0.429476 -0.312298
H74   H     H_    0.824722 0.578264 0.452258 0.149298
H75   H     H_    0.824057 0.618874 0.398398 0.158792
H76   H     H_    0.849593 0.714983 0.440216 0.129306
N17   N     N_2   0.707039 0.034419 0.073766 -0.487489
H77   H     H_    0.732324 0.102997 0.055017 0.245790
C113  C     C_3   0.729010 0.953497 0.054525 -0.314416
H78   H     H_    0.680739 0.921107 0.025213 0.138705
H79   H     H_    0.707618 0.883485 0.076085 0.143801
H80   H     H_    0.818146 0.992666 0.046776 0.135015
N18   N     N_2   0.312604 0.292789 0.426593 -0.493548
H81   H     H_    0.279322 0.297498 0.454850 0.239421
C114  C     C_3   0.348927 0.212401 0.427380 -0.290799
H82   H     H_    0.420693 0.240036 0.448752 0.137200
H83   H     H_    0.372276 0.199851 0.395455 0.168175
H84   H     H_    0.280729 0.132101 0.438788 0.134697
N19   N     N_2   0.698293 0.997222 0.571707 -0.535560
H85   H     H_    0.736696 0.043414 0.545423 0.244636
C115  C     C_3   0.662003 0.881356 0.566155 -0.314617
H86   H     H_    0.595407 0.844343 0.542290 0.146939
H87   H     H_    0.631347 0.836247 0.596213 0.157896
H88   H     H_    0.732445 0.872066 0.555365 0.132581
N20   N     N_2   0.047627 0.712379 0.924353 -0.509265
H89   H     H_    0.023072 0.718061 0.954288 0.240216
C116  C     C_3   0.165275 0.781918 0.918280 -0.293823
H90   H     H_    0.210728 0.750267 0.936916 0.139112
H91   H     H_    0.191099 0.867148 0.928764 0.131136
H92   H     H_    0.187062 0.785079 0.884631 0.178599
N21   N     N_2   0.289895 0.341804 0.575121 -0.508399
H93   H     H_    0.281523 0.309084 0.545494 0.240022
C117  C     C_3   0.227836 0.398399 0.580382 -0.290657
H94   H     H_    0.264780 0.474902 0.561154 0.135677
H95   H     H_    0.226597 0.419815 0.613825 0.177730
H96   H     H_    0.141311 0.343748 0.570078 0.138935
N22   N     N_2   0.688347 0.982525 0.926700 -0.535380
H97   H     H_    0.724104 0.023684 0.954184 0.247309
C118  C     C_3   0.650301 0.865683 0.929494 -0.319451
H98   H     H_    0.580225 0.825152 0.951862 0.146253
H99   H     H_    0.718605 0.853575 0.940766 0.129283
H100  H     H_    0.623810 0.826028 0.898303 0.158998
N23   N     N_2   0.065694 0.711784 0.576487 -0.512778
H101  H     H_    0.043224 0.724073 0.547089 0.238864
C119  C     C_3   0.184104 0.765177 0.581545 -0.291125
H102  H     H_    0.218179 0.723616 0.561836 0.135970
H103  H     H_    0.205892 0.763243 0.614871 0.179651
H104  H     H_    0.222154 0.852762 0.571665 0.134623
N24   N     N_2   0.313800 0.304278 0.933034 -0.535157
H105  H     H_    0.329815 0.275901 0.960464 0.249298
C120  C     C_3   0.225420 0.328847 0.937774 -0.315324
H106  H     H_    0.250805 0.400184 0.959216 0.142787
H107  H     H_    0.151785 0.256037 0.951197 0.136271
H108  H     H_    0.202336 0.347930 0.906936 0.158557
H109  H     H_    0.086282 0.396951 0.133651 0.153055
H110  H     H_    0.300271 0.880906 0.370225 0.155479
H111  H     H_    0.626271 0.668220 0.140578 0.123273
H112  H     H_    0.088903 0.399433 0.366887 0.146597
H113  H     H_    0.298496 0.880276 0.130416 0.155195
H114  H     H_    0.606141 0.684400 0.365438 0.129673
H115  H     H_    0.396819 0.084049 0.633475 0.135428
H116  H     H_    0.889586 0.302258 0.868818 0.154013
H117  H     H_    0.702887 0.575311 0.629572 0.136316
H118  H     H_    0.396016 0.083828 0.866204 0.150982
H119  H     H_    0.858717 0.295013 0.628429 0.156982
H120  H     H_    0.676118 0.621761 0.860784 0.129589

loop_
_geom_bond_atom_site_label_1
_geom_bond_atom_site_label_2
_ccdc_geom_bond_type
C68   C80   A    
C97   H16   S    
C39   C51   A    
C107  H54   S    
N20   C116  S    
C114  H83   S    
N5    H29   S    
C82   C94   A    
C21   C66   S    
C99   H23   S    
C18   C21   T    
C7    C33   S    
N11   H53   S    
N16   H73   S    
C40   N4    S    
N2    H17   S    
C119  H103  S    
N6    H33   S    
C59   N16   S    
C96   H111  S    
C74   H7    S    
C29   C89   A    
C100  H26   S    
C4    C30   S    
C117  H94   S    
C101  H31   S    
C6    C26   S    
Cr5   O20   S    
C78   C90   A    
C120  H108  S    
C15   C72   S    
C107  H55   S    
C45   C57   A    
N19   H85   S    
C117  H96   S    
C31   C43   A    
Cr3   O18   S    
C39   N3    S    
Cr4   O7    S    
N2    C98   S    
C10   O22   A    
Cr1   O16   S    
C60   N15   S    
C110  H68   S    
C98   H19   S    
C1    O5    A    
N21   H93   S    
C49   N20   S    
C9    C35   S    
C89   H118  S    
C104  H43   S    
N14   C110  S    
C60   C72   A    
C19   C62   S    
N18   H81   S    
N17   C113  S    
Cr6   O24   S    
Cr1   O4    S    
C108  H60   S    
C33   C45   A    
C55   C67   A    
C47   N11   S    
C108  H58   S    
C106  H51   S    
C116  H90   S    
C84   C96   A    
C56   C68   A    
C20   C61   S    
N9    C105  S    
C111  H70   S    
C44   C56   A    
Cr6   O21   S    
C28   C40   A    
Cr4   O26   S    
C54   C66   A    
C25   C37   A    
Cr3   O6    S    
C8    C34   S    
C117  H95   S    
N1    H13   S    
C15   C24   T    
C113  H78   S    
C27   C39   A    
N7    C103  S    
N23   C119  S    
C41   N5    S    
Cr2   O17   S    
C28   C88   A    
Cr5   O11   S    
C14   C67   S    
N4    C100  S    
C78   H9    S    
C34   C46   A    
C76   H11   S    
N3    C99   S    
C58   N17   S    
C53   C65   A    
C112  H74   S    
C76   C88   A    
C79   C91   A    
C114  H84   S    
C30   C90   A    
C103  H40   S    
C18   C69   S    
Cr2   O14   S    
C81   H6    S    
C35   C47   A    
C17   C70   S    
N5    C101  S    
C102  H34   S    
C114  H82   S    
C46   C58   A    
C99   H24   S    
N11   C107  S    
C94   H113  S    
Cr3   O25   S    
N9    H45   S    
C16   C71   S    
C14   C19   T    
C87   H120  S    
C100  H27   S    
Cr5   O26   S    
C48   C60   A    
C101  H32   S    
C71   C83   A    
N13   C109  S    
C90   H117  S    
C64   C76   A    
C66   C78   A    
C107  H56   S    
C11   O9    A    
N19   C115  S    
C49   C61   A    
Cr3   O15   S    
C80   H1    S    
C8    O20   A    
N12   H57   S    
C103  H39   S    
C34   C94   A    
C73   H8    S    
C119  H104  S    
C67   C79   A    
C115  H86   S    
C52   C64   A    
C98   H20   S    
C101  H30   S    
N21   C117  S    
Cr5   O23   S    
C37   C49   A    
C58   C70   A    
C104  H44   S    
C55   N14   S    
N10   H49   S    
C6    O18   A    
C61   C73   A    
C120  H106  S    
C53   N22   S    
C47   C59   A    
C7    O11   A    
C24   C63   S    
C105  H46   S    
C5    O3    A    
C116  H91   S    
C80   C92   A    
C77   H10   S    
C27   C87   A    
N8    H41   S    
C105  H47   S    
C22   C65   S    
C110  H66   S    
Cr3   O3    S    
N8    C104  S    
N6    C102  S    
C36   C96   A    
Cr2   O2    S    
N4    H25   S    
C12   O10   A    
N13   H61   S    
C26   C86   A    
C62   C74   A    
C83   C95   A    
C25   C85   A    
N15   H69   S    
C32   C44   A    
C51   C63   A    
C113  H79   S    
C75   H12   S    
Cr6   O26   S    
C82   H5    S    
C74   C86   A    
C81   C93   A    
C112  H75   S    
C44   N8    S    
C41   C53   A    
C56   N13   S    
C72   C84   A    
C102  H35   S    
C37   N1    S    
C69   C81   A    
C5    C25   S    
C9    O21   A    
C8    O12   A    
C23   C64   S    
C111  H71   S    
C119  H102  S    
C16   C23   T    
C31   C91   A    
C106  H52   S    
C118  H99   S    
C50   C62   A    
C12   O24   A    
C79   H2    S    
C109  H64   S    
Cr1   O1    S    
N20   H89   S    
N14   H65   S    
C100  H28   S    
Cr4   O19   S    
Cr5   O8    S    
N12   C108  S    
C73   C85   A    
C102  H36   S    
C43   C55   A    
Cr1   O13   S    
C97   H15   S    
C85   H116  S    
C2    C28   S    
C43   N7    S    
C2    O6    A    
C86   H115  S    
C65   C77   A    
C13   C20   T    
C29   C41   A    
C115  H88   S    
C3    O15   A    
C54   N21   S    
C46   N10   S    
C4    O2    A    
C93   H114  S    
C26   C38   A    
C1    O13   A    
C92   H109  S    
Cr6   O12   S    
C33   C93   A    
C51   N24   S    
C4    O16   A    
N22   H97   S    
C7    O19   A    
C52   N23   S    
C38   C50   A    
C35   C95   A    
C120  H107  S    
C17   C22   T    
C83   H4    S    
C2    O14   A    
Cr2   O25   S    
C88   H119  S    
Cr6   O9    S    
C116  H92   S    
N1    C97   S    
C97   H14   S    
C11   O23   A    
N24   H105  S    
C110  H67   S    
C9    O7    A    
C40   C52   A    
C98   H18   S    
C42   C54   A    
N22   C118  S    
C3    C29   S    
C104  H42   S    
C32   C92   A    
C63   C75   A    
C84   H3    S    
C48   N12   S    
C77   C89   A    
N15   C111  S    
C10   C36   S    
C36   C48   A    
C113  H80   S    
N24   C120  S    
C109  H62   S    
C106  H50   S    
C70   C82   A    
C112  H76   S    
N17   H77   S    
C38   N2    S    
C105  H48   S    
C109  H63   S    
C115  H87   S    
C42   N6    S    
N16   C112  S    
C11   C31   S    
C103  H38   S    
Cr4   O22   S    
C10   O8    A    
C5    O17   A    
C111  H72   S    
C50   N19   S    
C57   N18   S    
N7    H37   S    
C118  H100  S    
C59   C71   A    
C99   H22   S    
C1    C27   S    
C45   N9    S    
C108  H59   S    
Cr2   O5    S    
C30   C42   A    
C91   H110  S    
C3    O1    A    
N18   C114  S    
C57   C69   A    
N3    H21   S    
C118  H98   S    
Cr4   O10   S    
Cr1   O25   S    
C12   C32   S    
C75   C87   A    
C95   H112  S    
C6    O4    A    
N10   C106  S    
C13   C68   S    
N23   H101  S    
