data_mof_unit_22364.cif
_audit_creation_date              2012-12-11T14:30:02-0500
_audit_creation_method            fapswitch 2.2
_symmetry_space_group_name_H-M    P1
_symmetry_Int_Tables_number       1
_space_group_crystal_system       triclinic
_cell_length_a                    12.685132
_cell_length_b                    12.685084
_cell_length_c                    27.078664
_cell_angle_alpha                 89.999863
_cell_angle_beta                  89.999644
_cell_angle_gamma                 120.000539
_cell_volume                      3773.49557054

loop_
_atom_site_label
_atom_site_type_symbol
_atom_type_description
_atom_site_fract_x
_atom_site_fract_y
_atom_site_fract_z
_atom_type_partial_charge
C1    C     C_R   0.557035 0.456032 0.821779 0.560951
C2    C     C_R   0.454840 0.561428 0.176670 0.562674
C3    C     C_R   0.899966 0.282331 0.463236 -0.058522
C4    C     C_R   0.271469 0.887663 0.014025 -0.058510
C5    C     C_R   0.717664 0.617654 0.463238 -0.058516
C6    C     C_R   0.383316 0.111760 0.514068 -0.058601
C7    C     C_R   0.100512 0.382815 0.963192 -0.058403
C8    C     C_R   0.728444 0.616704 0.514071 -0.058588
C9    C     C_R   0.282298 0.899485 0.963194 -0.058397
C10   C     C_R   0.888237 0.271550 0.514069 -0.058591
C11   C     C_R   0.617187 0.717702 0.963193 -0.058396
C12   C     C_R   0.442965 0.899002 0.321778 0.560875
C13   C     C_R   0.106594 0.545163 0.176670 0.562676
C14   C     C_R   0.017948 0.519328 0.970353 -0.043817
C15   C     C_R   0.523500 0.033864 0.521884 -0.046643
C16   C     C_R   0.480668 0.498623 0.970352 -0.043819
C17   C     C_R   0.966136 0.489632 0.521883 -0.046638
C18   C     C_R   0.501377 0.982055 0.970353 -0.043816
C19   C     C_R   0.510362 0.476511 0.521885 -0.046644
C20   C     C_R   0.519283 0.017931 0.470353 -0.043757
C21   C     C_R   0.893416 0.438574 0.676670 0.562587
C22   C     C_R   0.033922 0.523556 0.021881 -0.046700
C23   C     C_R   0.498651 0.480721 0.470353 -0.043761
C24   C     C_R   0.489632 0.966085 0.021882 -0.046697
C25   C     C_R   0.982063 0.501345 0.470351 -0.043755
C26   C     C_R   0.476449 0.510366 0.021882 -0.046699
C27   C     C_R   0.941413 0.661054 0.977473 0.241424
C28   C     C_R   0.664556 0.956401 0.529114 0.245951
C29   C     C_R   0.338938 0.280359 0.977472 0.241421
C30   C     C_R   0.043586 0.708150 0.529112 0.245945
C31   C     C_R   0.719638 0.058581 0.977472 0.241416
C32   C     C_R   0.543968 0.101007 0.821780 0.560957
C33   C     C_R   0.291841 0.335442 0.529114 0.245962
C34   C     C_R   0.661369 0.941829 0.477433 0.241223
C35   C     C_R   0.956004 0.664231 0.029153 0.246177
C36   C     C_R   0.280461 0.338624 0.477432 0.241224
C37   C     C_R   0.708226 0.043993 0.029150 0.246172
C38   C     C_R   0.058160 0.719535 0.477431 0.241218
C39   C     C_R   0.335769 0.291769 0.029152 0.246186
C40   C     C_R   0.940424 0.568146 0.897556 -0.147393
C41   C     C_R   0.599550 0.022565 0.603152 -0.110630
C42   C     C_R   0.431839 0.372283 0.897554 -0.147394
C43   C     C_R   0.561422 0.454846 0.676671 0.562585
C44   C     C_R   0.977429 0.576982 0.603150 -0.110644
C45   C     C_R   0.627722 0.059581 0.897556 -0.147396
C46   C     C_R   0.423008 0.400459 0.603153 -0.110626
C47   C     C_R   0.568297 0.940652 0.397530 -0.147343
C48   C     C_R   0.022381 0.599376 0.103168 -0.110287
C49   C     C_R   0.372361 0.431687 0.397529 -0.147347
C50   C     C_R   0.576995 0.977621 0.103168 -0.110289
C51   C     C_R   0.059346 0.627642 0.397529 -0.147349
C52   C     C_R   0.400635 0.422999 0.103169 -0.110280
C53   C     C_R   0.068045 0.529661 0.124570 0.000137
C54   C     C_R   0.898992 0.442962 0.821780 0.560956
C55   C     C_R   0.486339 0.960689 0.369621 -0.000531
C56   C     C_R   0.470347 0.538377 0.124571 0.000141
C57   C     C_R   0.039304 0.525646 0.369619 -0.000527
C58   C     C_R   0.461619 0.931964 0.124571 0.000131
C59   C     C_R   0.474354 0.513657 0.369619 -0.000537
C60   C     C_R   0.529622 0.067961 0.624576 -0.000196
C61   C     C_R   0.960646 0.486339 0.869627 -0.000463
C62   C     C_R   0.538331 0.470390 0.624579 -0.000197
C63   C     C_R   0.525691 0.039355 0.869627 -0.000460
C64   C     C_R   0.932045 0.461662 0.624576 -0.000206
C65   C     C_R   0.545158 0.106584 0.676670 0.562588
C66   C     C_R   0.513653 0.474312 0.869625 -0.000462
C67   C     C_R   0.968192 0.585202 0.948165 -0.043872
C68   C     C_R   0.595780 0.002918 0.551693 -0.038380
C69   C     C_R   0.414788 0.382995 0.948163 -0.043878
C70   C     C_R   0.997076 0.592858 0.551692 -0.038379
C71   C     C_R   0.617006 0.031808 0.948164 -0.043874
C72   C     C_R   0.407134 0.404226 0.551694 -0.038373
C73   C     C_R   0.585345 0.968410 0.448142 -0.043733
C74   C     C_R   0.002739 0.595626 0.051711 -0.038438
C75   C     C_R   0.383069 0.414647 0.448142 -0.043738
C76   C     C_R   0.456038 0.557032 0.321777 0.560869
C77   C     C_R   0.592885 0.997264 0.051710 -0.038435
C78   C     C_R   0.031584 0.616930 0.448140 -0.043733
C79   C     C_R   0.404380 0.407110 0.051711 -0.038427
C80   C     C_R   0.022865 0.432404 0.890741 0.393212
C81   C     C_R   0.454009 0.092911 0.594455 0.385263
C82   C     C_R   0.567590 0.590466 0.890740 0.393218
C83   C     C_R   0.907105 0.361100 0.594456 0.385276
C84   C     C_R   0.409536 0.977130 0.890741 0.393222
C85   C     C_R   0.638894 0.546011 0.594457 0.385272
C86   C     C_R   0.432234 0.022724 0.390758 0.393075
C87   C     C_R   0.438569 0.893407 0.176670 0.562673
C88   C     C_R   0.093300 0.454301 0.094428 0.385337
C89   C     C_R   0.590494 0.567774 0.390758 0.393078
C90   C     C_R   0.361004 0.906717 0.094430 0.385348
C91   C     C_R   0.977260 0.409503 0.390755 0.393089
C92   C     C_R   0.545708 0.638995 0.094429 0.385343
C93   C     C_R   0.049612 0.446621 0.941094 0.040599
C94   C     C_R   0.452988 0.078970 0.543589 0.041634
C95   C     C_R   0.553376 0.602995 0.941094 0.040603
C96   C     C_R   0.921036 0.374016 0.543589 0.041640
C97   C     C_R   0.397006 0.950388 0.941095 0.040604
C98   C     C_R   0.100994 0.543961 0.321777 0.560877
C99   C     C_R   0.625977 0.547032 0.543591 0.041640
C100  C     C_R   0.446398 0.049401 0.441115 0.040385
C101  C     C_R   0.079317 0.453270 0.043564 0.041852
C102  C     C_R   0.603005 0.553611 0.441116 0.040386
C103  C     C_R   0.373953 0.920692 0.043565 0.041857
C104  C     C_R   0.950589 0.396991 0.441113 0.040388
C105  C     C_R   0.546738 0.626046 0.043565 0.041857
C106  C     C_R   0.112334 0.383807 0.014023 -0.058517
C107  C     C_R   0.382365 0.100026 0.463236 -0.058525
C108  C     C_R   0.616197 0.728531 0.014024 -0.058510
Cl1   Cl    Cl    0.916471 0.756202 0.064945 -0.402847
Cl2   Cl    Cl    0.862743 0.106164 0.949779 -0.449300
Cl3   Cl    Cl    0.082902 0.839637 0.564882 -0.402616
Cl4   Cl    Cl    0.243431 0.137250 0.949781 -0.449318
Cl5   Cl    Cl    0.757078 0.894513 0.449717 -0.449188
Cl6   Cl    Cl    0.243805 0.160262 0.064944 -0.402846
Cl7   Cl    Cl    0.105471 0.862562 0.449714 -0.449171
Cl8   Cl    Cl    0.839730 0.083525 0.064942 -0.402853
Cl9   Cl    Cl    0.137431 0.242922 0.449717 -0.449193
Cl10  Cl    Cl    0.756723 0.917084 0.564885 -0.402615
Cl11  Cl    Cl    0.893815 0.756563 0.949782 -0.449312
Cl12  Cl    Cl    0.160352 0.243282 0.564886 -0.402609
Cr1   Cr    Cr6+3 0.487630 0.241180 0.750000 1.151224
Cr2   Cr    Cr6+3 0.753550 0.512370 0.750000 1.151228
Cr3   Cr    Cr6+3 0.758820 0.246450 0.750000 1.151228
Cr4   Cr    Cr6+3 0.241180 0.487630 0.250000 1.151247
Cr5   Cr    Cr6+3 0.512370 0.753550 0.250000 1.151253
Cr6   Cr    Cr6+3 0.246450 0.758820 0.250000 1.151249
F1    F     F_    0.138779 0.386380 0.113981 -0.595518
F2    F     F_    0.309503 0.950197 0.863149 -0.579802
F3    F     F_    0.861948 0.247756 0.614027 -0.595228
F4    F     F_    0.640707 0.690499 0.863150 -0.579797
F5    F     F_    0.358990 0.049501 0.363186 -0.579789
F6    F     F_    0.613625 0.752396 0.113982 -0.595523
F7    F     F_    0.950466 0.309479 0.363181 -0.579793
F8    F     F_    0.247606 0.861246 0.113984 -0.595505
F9    F     F_    0.690516 0.641032 0.363188 -0.579782
F10   F     F_    0.385827 0.138073 0.614025 -0.595243
F11   F     F_    0.049785 0.359292 0.863150 -0.579799
F12   F     F_    0.752240 0.614196 0.614027 -0.595234
H1    H     H_    0.004518 0.657319 0.126878 0.224602
H2    H     H_    0.716720 0.106020 0.880496 0.217557
H3    H     H_    0.995062 0.652751 0.626839 0.224814
H4    H     H_    0.389272 0.283286 0.880493 0.217560
H5    H     H_    0.145786 0.328425 0.030217 0.225838
H6    H     H_    0.326788 0.125554 0.441581 0.232421
H7    H     H_    0.671578 0.817367 0.030219 0.225843
H8    H     H_    0.874442 0.201223 0.441582 0.232428
H9    H     H_    0.182632 0.854204 0.030220 0.225834
H10   H     H_    0.798771 0.673242 0.441584 0.232441
H11   H     H_    0.327755 0.144981 0.530279 0.226325
H12   H     H_    0.610996 0.894371 0.380454 0.217624
H13   H     H_    0.126192 0.327378 0.941522 0.232053
H14   H     H_    0.817228 0.672267 0.530283 0.226343
H15   H     H_    0.201179 0.873805 0.941524 0.232056
H16   H     H_    0.855013 0.182766 0.530281 0.226330
H17   H     H_    0.672632 0.798822 0.941524 0.232063
H18   H     H_    0.342690 0.347190 0.126878 0.224596
H19   H     H_    0.105635 0.716625 0.380453 0.217617
H20   H     H_    0.652799 0.995471 0.126875 0.224613
H21   H     H_    0.283382 0.388976 0.380450 0.217621
H22   H     H_    0.657673 0.004917 0.626843 0.224802
H23   H     H_    0.893988 0.610706 0.880497 0.217559
H24   H     H_    0.347236 0.342327 0.626843 0.224802
O1    O     O_R   0.460870 0.120930 0.805240 -0.426853
O2    O     O_R   0.120930 0.460870 0.194760 -0.413615
O3    O     O_R   0.539130 0.660060 0.305240 -0.426805
O4    O     O_R   0.339940 0.879070 0.194760 -0.413615
O5    O     O_R   0.498910 0.350470 0.801870 -0.519550
O6    O     O_R   0.851560 0.501090 0.698130 -0.483946
O7    O     O_R   0.649530 0.148440 0.801870 -0.519547
O8    O     O_R   0.498910 0.350470 0.698130 -0.483937
O9    O     O_R   0.851560 0.501090 0.801870 -0.519545
O10   O     O_R   0.649530 0.148440 0.698130 -0.483945
O11   O     O_R   0.350470 0.498910 0.301870 -0.519565
O12   O     O_R   0.660060 0.539130 0.694760 -0.413493
O13   O     O_R   0.501090 0.851560 0.198130 -0.483731
O14   O     O_R   0.148440 0.649530 0.301870 -0.519563
O15   O     O_R   0.350470 0.498910 0.198130 -0.483727
O16   O     O_R   0.501090 0.851560 0.301870 -0.519559
O17   O     O_R   0.148440 0.649530 0.198130 -0.483736
O18   O     O_3   0.666667 0.333333 0.750000 -0.313610
O19   O     O_3   0.333333 0.666667 0.250000 -0.313566
O20   O     O_R   0.879070 0.339940 0.805240 -0.426849
O21   O     O_R   0.460870 0.120930 0.694760 -0.413491
O22   O     O_R   0.660060 0.539130 0.805240 -0.426850
O23   O     O_R   0.879070 0.339940 0.694760 -0.413490
O24   O     O_R   0.120930 0.460870 0.305240 -0.426815
O25   O     O_R   0.539130 0.660060 0.194760 -0.413617
O26   O     O_R   0.339940 0.879070 0.305240 -0.426808

loop_
_geom_bond_atom_site_label_1
_geom_bond_atom_site_label_2
_ccdc_geom_bond_type
C3    C104  A    
C84   F2    S    
C12   O16   A    
C32   O7    A    
C32   O1    A    
C35   C74   A    
C89   F9    S    
C89   C102  A    
C45   C71   A    
C29   Cl4   S    
Cr5   O3    S    
C91   C104  A    
C58   C87   S    
C10   H16   S    
C15   C94   A    
C88   C101  A    
C106  H5    S    
C37   Cl8   S    
C44   C64   A    
C34   Cl5   S    
Cr2   O18   S    
C22   C101  A    
C46   C62   A    
C18   C24   A    
C84   C97   A    
C76   O11   A    
C28   C68   A    
C8    C99   A    
C83   F3    S    
Cr3   O20   S    
C90   F8    S    
C43   O12   A    
C86   F5    S    
C87   O4    A    
C15   C68   A    
C61   C80   A    
C80   F11   S    
C12   O26   A    
C4    C103  A    
C101  C106  A    
C33   C36   A    
C30   C38   A    
C59   C89   A    
C2    O25   A    
C21   C64   S    
C33   C72   A    
C5    C102  A    
C6    H11   S    
C1    O22   A    
C44   H3    S    
C6    C94   A    
C40   C67   A    
C20   C100  A    
C42   H4    S    
C6    C107  A    
C49   C75   A    
C44   C70   A    
C51   C57   A    
C18   C97   A    
C82   F4    S    
C52   C79   A    
C86   C100  A    
C14   C93   A    
C13   C53   S    
Cr3   O10   S    
C35   Cl1   S    
C11   H17   S    
Cr1   O21   S    
C21   O6    A    
C31   C71   A    
Cr1   O8    S    
C9    H15   S    
C17   C70   A    
C5    H10   S    
C19   C72   A    
C15   C20   A    
C7    C93   A    
C26   C105  A    
C30   C70   A    
C43   O8    A    
Cr1   O18   S    
C29   C69   A    
C16   C26   A    
C48   C53   A    
Cr1   O5    S    
C62   C85   A    
Cr2   O6    S    
C65   O10   A    
Cr5   O19   S    
C25   C78   A    
C50   C58   A    
C48   C74   A    
C76   O3    A    
C47   C73   A    
C19   C99   A    
Cr4   O11   S    
C38   C78   A    
C38   Cl7   S    
C27   C35   A    
Cr2   O12   S    
C4    H9    S    
C37   C77   A    
C32   C63   S    
C45   C63   A    
C45   H2    S    
C50   H20   S    
C40   C61   A    
C31   C37   A    
C39   C79   A    
Cr3   O23   S    
C19   C23   A    
C64   C83   A    
C85   C99   A    
C36   C75   A    
C66   C82   A    
C41   H22   S    
C98   O14   A    
C60   C81   A    
C24   C77   A    
C81   F10   S    
C91   F7    S    
C47   H12   S    
C10   C96   A    
C14   C67   A    
C39   Cl6   S    
C107  H6    S    
C29   C39   A    
C54   O20   A    
C1    C66   S    
C7    C106  A    
Cr6   O17   S    
C17   C96   A    
C105  C108  A    
C36   Cl9   S    
C58   C90   A    
Cr4   O15   S    
Cr3   O7    S    
C33   Cl12  S    
C7    H13   S    
C2    O15   A    
C60   C65   S    
C52   H18   S    
C22   C74   A    
Cr5   O13   S    
C50   C77   A    
Cr5   O16   S    
Cr6   O14   S    
Cr2   O22   S    
C13   O2    A    
C47   C55   A    
C108  H7    S    
C65   O21   A    
C11   C95   A    
C18   C71   A    
C41   C68   A    
C100  C107  A    
C9    C97   A    
C82   C95   A    
C57   C91   A    
C48   H1    S    
C92   F6    S    
C46   C72   A    
C54   O9    A    
C16   C69   A    
C41   C60   A    
C23   C75   A    
Cr3   O18   S    
Cr6   O4    S    
C5    C8    A    
C25   C104  A    
C21   O23   A    
C54   C61   S    
C27   Cl11  S    
C88   F1    S    
C87   O13   A    
C30   Cl3   S    
C26   C79   A    
C49   C59   A    
C63   C84   A    
Cr5   O25   S    
C24   C103  A    
C17   C25   A    
C14   C22   A    
C55   C86   A    
Cr6   O26   S    
C80   C93   A    
C51   C78   A    
C40   H23   S    
C98   O24   A    
C3    C10   A    
C28   Cl10  S    
Cr4   O24   S    
C81   C94   A    
C16   C95   A    
C8    H14   S    
C83   C96   A    
C85   F12   S    
C13   O17   A    
C31   Cl2   S    
C51   H19   S    
C20   C73   A    
C53   C88   A    
C42   C69   A    
C57   C98   S    
C90   C103  A    
C12   C55   S    
C27   C67   A    
C34   C73   A    
C28   C34   A    
C23   C102  A    
C92   C105  A    
Cr4   O19   S    
C3    H8    S    
Cr2   O9    S    
C46   H24   S    
C11   C108  A    
C42   C66   A    
C1    O5    A    
C49   H21   S    
Cr6   O19   S    
C2    C56   S    
C4    C9    A    
C56   C92   A    
C59   C76   S    
C52   C56   A    
C43   C62   S    
Cr4   O2    S    
Cr1   O1    S    
