data_mof_unit_22093.cif
_audit_creation_date              2013-03-05T16:11:43-0500
_audit_creation_method            fapswitch 2.2
_symmetry_space_group_name_H-M    P1
_symmetry_Int_Tables_number       1
_space_group_crystal_system       triclinic
_cell_length_a                    10.625024
_cell_length_b                    9.968088
_cell_length_c                    10.49137
_cell_angle_alpha                 89.261503
_cell_angle_beta                  91.493651
_cell_angle_gamma                 87.839283
_cell_volume                      1109.87898472

loop_
_atom_site_label
_atom_site_type_symbol
_atom_site_description
_atom_site_fract_x
_atom_site_fract_y
_atom_site_fract_z
_atom_type_partial_charge
O1    O     O_R   0.316770 0.614620 0.499990 -0.637475
O2    O     O_R   0.683230 0.385380 0.500010 -0.590855
O3    O     O_R   0.683230 0.614620 0.500010 -0.582096
O4    O     O_R   0.316770 0.385380 0.499990 -0.572405
C1    C     C_R   0.868524 0.487348 0.448612 -0.206662
C2    C     C_R   0.122575 0.505627 0.485852 -0.165156
C3    C     C_R   0.258689 0.502544 0.499095 0.865182
C4    C     C_R   0.738140 0.497073 0.483220 0.895721
O5    O     O_R   0.499970 0.614650 0.313950 -0.600246
O6    O     O_R   0.500030 0.385350 0.686050 -0.568255
O7    O     O_R   0.500030 0.614650 0.686050 -0.583383
O8    O     O_R   0.499970 0.385350 0.313950 -0.585020
C5    C     C_R   0.503059 0.500409 0.257569 0.851405
C6    C     C_R   0.495138 0.499435 0.742011 0.896097
Zn1   Zn    Zn3+2 0.500000 0.653120 0.500000 1.013346
Zn2   Zn    Zn3+2 0.500000 0.346880 0.500000 1.026199
N1    N     N_R   0.500000 0.857200 0.500000 -0.221204
N2    N     N_R   0.500000 0.142800 0.500000 -0.228771
C7    C     C_3   0.564868 0.603634 0.037879 -0.068785
C8    C     C_3   0.431176 0.394407 0.960567 -0.057944
C9    C     C_3   0.615532 0.487186 0.956346 -0.220729
C10   C     C_3   0.380351 0.511006 0.042536 -0.219229
C11   C     C_3   0.442154 0.614609 0.956041 -0.059707
C12   C     C_3   0.553943 0.383732 0.042834 -0.045528
H1    H     H_    0.393980 0.707755 0.917513 0.202648
H2    H     H_    0.603617 0.291397 0.081114 0.203204
H3    H     H_    0.623495 0.687019 0.068296 0.220770
H4    H     H_    0.374809 0.310482 0.925084 0.196446
H5    H     H_    0.711207 0.477320 0.916541 0.177574
H6    H     H_    0.284743 0.521091 0.082503 0.158039
C13   C     C_3   0.493327 0.498136 0.876982 -0.050043
C14   C     C_3   0.502916 0.500509 0.122065 -0.033105
C15   C     C_R   0.542951 0.068267 0.604590 0.166638
C16   C     C_R   0.458971 0.932501 0.395033 0.198854
C17   C     C_R   0.454508 0.075332 0.396813 0.194374
C18   C     C_R   0.545219 0.924949 0.603585 0.215029
C19   C     C_R   0.060402 0.392046 0.531815 0.086976
C20   C     C_R   0.925978 0.593973 0.387455 0.129712
C21   C     C_R   0.939327 0.371758 0.485968 0.151825
C22   C     C_R   0.056694 0.605125 0.407318 0.085607
N3    N     N_R   0.587270 0.134111 0.716411 0.264999
O9    O     O_R   0.692239 0.196887 0.716079 -0.393450
O10   O     O_R   0.525142 0.126561 0.821253 -0.348795
N4    N     N_R   0.438177 0.869780 0.275617 0.262926
O11   O     O_R   0.535003 0.854706 0.203465 -0.379674
O12   O     O_R   0.326962 0.879809 0.220972 -0.394661
N5    N     N_R   0.402331 0.148332 0.288251 0.264211
O13   O     O_R   0.294959 0.214174 0.296306 -0.408785
O14   O     O_R   0.450127 0.130854 0.176580 -0.330198
N6    N     N_R   0.608421 0.851951 0.706107 0.257939
O15   O     O_R   0.565405 0.858341 0.820801 -0.349516
O16   O     O_R   0.719988 0.798043 0.689263 -0.377590
C23   C     C_3   0.111357 0.306676 0.644979 -0.340093
C24   C     C_3   0.165101 0.167670 0.609448 -0.774888
H7    H     H_    0.090362 0.093565 0.604906 0.243067
H8    H     H_    0.211614 0.169333 0.516551 0.289629
H9    H     H_    0.235497 0.131783 0.683529 0.252580
H10   H     H_    0.185241 0.360722 0.698242 0.181799
H11   H     H_    0.034984 0.293871 0.714082 0.211239
C25   C     C_3   0.851972 0.680296 0.288006 -0.375696
C26   C     C_3   0.880991 0.632412 0.153365 -0.894261
H12   H     H_    0.983498 0.616912 0.138937 0.262355
H13   H     H_    0.835929 0.535321 0.136056 0.246942
H14   H     H_    0.843531 0.707725 0.081934 0.280429
H15   H     H_    0.748914 0.674786 0.296545 0.237780
H16   H     H_    0.871560 0.788131 0.299187 0.221140
C27   C     C_3   0.919309 0.244309 0.410543 -0.363229
C28   C     C_3   0.852301 0.135741 0.483126 -0.731508
H17   H     H_    0.873984 0.036699 0.440346 0.216309
H18   H     H_    0.881389 0.131994 0.585248 0.286718
H19   H     H_    0.749292 0.152737 0.473560 0.277918
H20   H     H_    0.864629 0.268252 0.320641 0.198120
H21   H     H_    0.011642 0.201288 0.379891 0.230911
C29   C     C_3   0.121309 0.726154 0.352341 -0.314892
C30   C     C_3   0.124035 0.840315 0.448472 -0.796272
H22   H     H_    0.026969 0.866791 0.478140 0.242512
H23   H     H_    0.181041 0.812004 0.535245 0.270233
H24   H     H_    0.164006 0.930536 0.404411 0.266532
H25   H     H_    0.215821 0.696917 0.318596 0.246434
H26   H     H_    0.074573 0.767060 0.264263 0.221743

loop_
_geom_bond_atom_site_label_1
_geom_bond_atom_site_label_2
_geom_bond_distance
_ccdc_geom_bond_type
N3    O9    1.299321 A    
C5    C14   1.421565 S    
C6    C13   1.416563 S    
C17   N5    1.431562 S    
C23   H11   1.111971 S    
C18   N6    1.429204 S    
N5    O14   1.300183 A    
C23   C24   1.532886 S    
C9    C13   1.523726 S    
C10   C14   1.527691 S    
C7    C9    1.539905 S    
C12   H2    1.108945 S    
C16   C17   1.423137 A    
O7    C6    1.286501 A    
C15   C18   1.428079 A    
C27   H20   1.113232 S    
C26   H13   1.110767 S    
O5    C5    1.289696 A    
O7    Zn1   1.984364 S    
C8    C12   1.544738 S    
C28   H17   1.108534 S    
N6    O16   1.300192 A    
O1    Zn1   1.998433 S    
N1    C18   1.372624 A    
O2    Zn2   1.998432 S    
N2    C17   1.368898 A    
C19   C23   1.527261 S    
C25   H16   1.109664 S    
C29   H26   1.103554 S    
C1    C20   1.402048 A    
N3    O10   1.300284 A    
O4    C3    1.299996 A    
C7    C14   1.525783 S    
C30   H24   1.109574 S    
N4    O12   1.299729 A    
C24   H8    1.104405 S    
C29   C30   1.530856 S    
C27   C28   1.524161 S    
O8    Zn2   1.984365 S    
C16   N4    1.423186 S    
O3    C4    1.305165 A    
O6    C6    1.286467 A    
C8    H4    1.109639 S    
C9    H5    1.110457 S    
C25   C26   1.532063 S    
C11   C13   1.527179 S    
O4    Zn2   1.970039 S    
C26   H14   1.109529 S    
C7    C11   1.541942 S    
C30   H22   1.108384 S    
C12   C14   1.529953 S    
N5    O13   1.299761 A    
N6    O15   1.299741 A    
C2    C19   1.417630 A    
C30   H23   1.107705 S    
C20   C25   1.526561 S    
C27   H21   1.112669 S    
C28   H18   1.107087 S    
C8    C10   1.544239 S    
C25   H15   1.104341 S    
C29   H25   1.103546 S    
C1    C21   1.398122 A    
C2    C22   1.431448 A    
N1    C16   1.376661 A    
C7    H3    1.102836 S    
N4    O11   1.298402 A    
Zn1   N1    2.034287 S    
C24   H7    1.105300 S    
C10   H6    1.110601 S    
O1    C3    1.296518 A    
C21   C27   1.524110 S    
O2    C4    1.288518 A    
C1    C4    1.441309 S    
C23   H10   1.111544 S    
C2    C3    1.448390 S    
C15   N3    1.429398 S    
O5    Zn1   1.994069 S    
C19   C21   1.384561 A    
O6    Zn2   1.994068 S    
C20   C22   1.407787 A    
C28   H19   1.102953 S    
C22   C29   1.524672 S    
C11   H1    1.109584 S    
C26   H12   1.108839 S    
N2    C15   1.375354 A    
O8    C5    1.285592 A    
Zn2   N2    2.034287 S    
C9    C12   1.540367 S    
C10   C11   1.542477 S    
O3    Zn1   1.970038 S    
C8    C13   1.527240 S    
C24   H9    1.110773 S    
