data_mof_unit_27990.cif
_audit_creation_date              2012-12-11T16:53:26-0500
_audit_creation_method            fapswitch 2.2
_symmetry_space_group_name_H-M    P1
_symmetry_Int_Tables_number       1
_space_group_crystal_system       triclinic
_cell_length_a                    14.908355
_cell_length_b                    14.770595
_cell_length_c                    16.928078
_cell_angle_alpha                 109.165985
_cell_angle_beta                  106.208071
_cell_angle_gamma                 108.049918
_cell_volume                      3031.82501888

loop_
_atom_site_label
_atom_site_type_symbol
_atom_type_description
_atom_site_fract_x
_atom_site_fract_y
_atom_site_fract_z
_atom_type_partial_charge
C1    C     C_R   0.089487 0.274851 0.050398 -0.146418
C2    C     C_R   0.063268 0.554048 0.264139 -0.126190
C3    C     C_R   0.279768 0.784530 0.175370 -0.133815
C4    C     C_R   0.935438 0.519128 0.746259 -0.136143
C5    C     C_R   0.698388 0.407080 0.996853 -0.104634
C6    C     C_R   0.336641 0.781118 0.253327 0.069254
C7    C     C_R   0.639857 0.439677 0.943648 0.074612
C8    C     C_R   0.971022 0.542109 0.274101 0.089416
C9    C     C_R   0.990370 0.825229 0.030783 0.086996
C10   C     C_R   0.393605 0.461686 0.871622 0.167880
C11   C     C_R   0.348889 0.417046 0.920658 0.021425
C12   C     C_R   0.026250 0.578911 0.744018 0.069040
C13   C     C_R   0.377994 0.342823 0.941329 -0.147298
C14   C     C_R   0.467641 0.336554 0.935584 -0.173452
C15   C     C_R   0.528063 0.405483 0.909915 0.011617
C16   C     C_R   0.769254 0.200176 0.810323 -0.121463
C17   C     C_R   0.482314 0.455813 0.866216 0.165078
C18   C     C_3   0.526953 0.566102 0.874482 -0.515871
C19   C     C_3   0.430220 0.572777 0.880628 -0.516350
C20   C     C_R   0.963860 0.593189 0.362232 0.064445
C21   C     C_R   0.035111 0.618278 0.675980 0.110922
C22   C     C_R   0.140651 0.683199 0.602799 -0.208340
C23   C     C_R   0.753501 0.194640 0.723716 0.062513
C24   C     C_R   0.133204 0.665838 0.676877 -0.139460
C25   C     C_R   0.945412 0.599641 0.604622 -0.258291
C26   C     C_R   0.952176 0.613329 0.528426 0.178249
C27   C     C_R   0.050022 0.650771 0.526146 0.184829
C28   C     C_R   0.254337 0.530742 0.945167 -0.137526
C29   C     C_R   0.055320 0.643933 0.444111 -0.262365
C30   C     C_R   0.867576 0.576485 0.368617 -0.083445
C31   C     C_R   0.862354 0.583788 0.451928 -0.275523
C32   C     C_R   0.712663 0.098322 0.636752 0.130445
C33   C     C_R   0.445524 0.853949 0.318569 0.121977
C34   C     C_R   0.288010 0.459328 0.961996 0.073007
C35   C     C_R   0.588414 0.030860 0.391546 -0.211275
C36   C     C_R   0.497299 0.949674 0.316195 -0.165245
C37   C     C_R   0.493755 0.834651 0.391047 -0.260684
C38   C     C_R   0.580703 0.917717 0.469057 0.184899
C39   C     C_R   0.625239 0.018061 0.470746 0.181768
C40   C     C_R   0.779765 0.297768 0.734261 -0.125329
C41   C     C_R   0.695294 0.107002 0.554336 -0.265323
C42   C     C_R   0.679268 0.996623 0.633519 -0.158550
C43   C     C_R   0.614698 0.906075 0.549337 -0.213547
C44   C     C_R   0.098511 0.056015 0.987992 0.118310
C45   C     C_R   0.274473 0.688628 0.252143 -0.135380
C46   C     C_R   0.005645 0.067367 0.969340 0.046849
C47   C     C_R   0.912087 0.972818 0.906723 -0.180103
C48   C     C_R   0.914366 0.877782 0.854068 -0.175922
C49   C     C_R   0.009482 0.874666 0.862920 0.069564
C50   C     C_R   0.099661 0.962179 0.934883 0.080076
C51   C     C_3   0.204469 0.018369 0.939521 -0.370881
C52   C     C_R   0.257033 0.440447 0.027661 -0.116271
C53   C     C_3   0.204185 0.122456 0.998139 -0.408925
C54   C     C_R   0.107581 0.603792 0.823636 -0.150591
C55   C     C_R   0.917288 0.191658 0.974865 -0.115257
C56   C     C_R   0.704972 0.501151 0.918381 -0.144659
C57   C     C_R   0.004686 0.173786 0.000416 0.063053
C58   C     C_2   0.773926 0.557153 0.292493 0.981302
C59   C     C_2   0.203331 0.006916 0.847233 1.067960
C60   C     C_2   0.285613 0.178361 0.096411 1.044388
C61   C     C_R   0.889987 0.465882 0.187965 -0.088191
C62   C     C_R   0.079710 0.808898 0.047851 -0.122341
C63   C     C_R   0.907288 0.724355 0.971007 -0.125343
H1    H     H_    0.167861 0.292639 0.091610 0.114083
H2    H     H_    0.495796 0.289225 0.963122 0.142995
H3    H     H_    0.598234 0.623830 0.939514 0.205467
H4    H     H_    0.856858 0.499040 0.702405 0.085887
H5    H     H_    0.532921 0.565602 0.810339 0.190681
H6    H     H_    0.447268 0.634221 0.949242 0.203790
H7    H     H_    0.380688 0.576478 0.820137 0.192673
H8    H     H_    0.131143 0.667081 0.443460 0.120870
H9    H     H_    0.216569 0.713842 0.602369 0.128364
H10   H     H_    0.788158 0.563737 0.456435 0.165669
H11   H     H_    0.204195 0.683414 0.731463 0.121003
H12   H     H_    0.682309 0.523743 0.864159 0.098937
H13   H     H_    0.869521 0.566951 0.604309 0.117770
H14   H     H_    0.725451 0.183962 0.554908 0.119549
H15   H     H_    0.750061 0.133746 0.825771 0.087128
H16   H     H_    0.696399 0.986758 0.695701 0.115808
H17   H     H_    0.623233 0.107043 0.391468 0.134108
H18   H     H_    0.583040 0.828898 0.548512 0.129172
H19   H     H_    0.464109 0.965661 0.259818 0.126231
H20   H     H_    0.457865 0.759839 0.392543 0.120270
H21   H     H_    0.837052 0.973561 0.891775 0.117852
H22   H     H_    0.842422 0.808964 0.801827 0.123146
H23   H     H_    0.807570 0.432942 0.169426 0.108319
H24   H     H_    0.262597 0.997596 0.977328 0.160011
H25   H     H_    0.261210 0.560886 0.896290 0.109733
H26   H     H_    0.201185 0.175755 0.965020 0.149402
H27   H     H_    0.776025 0.324763 0.682098 0.096006
H28   H     H_    0.275311 0.392791 0.059778 0.130736
H29   H     H_    0.187064 0.663324 0.852017 0.092818
H30   H     H_    0.837704 0.133787 0.947671 0.081947
H31   H     H_    0.297731 0.651539 0.294271 0.092977
H32   H     H_    0.715867 0.584842 0.184678 0.328421
H33   H     H_    0.263212 0.966594 0.755399 0.322690
H34   H     H_    0.158760 0.870106 0.091352 0.133652
H35   H     H_    0.347482 0.169902 0.214563 0.323766
H36   H     H_    0.825894 0.706757 0.943104 0.100759
H37   H     H_    0.141867 0.606637 0.315584 0.098772
H38   H     H_    0.308890 0.836436 0.146707 0.095017
H39   H     H_    0.669590 0.345721 0.017058 0.091189
H40   H     H_    0.341289 0.300834 0.973501 0.149076
N1    N     N_R   0.055640 0.348550 0.045600 -0.039288
N2    N     N_R   0.811290 0.303400 0.871650 -0.042636
N3    N     N_R   0.205180 0.552990 0.997660 -0.041942
N4    N     N_R   0.814810 0.361830 0.823710 -0.042865
N5    N     N_R   0.201660 0.494570 0.045600 -0.041345
N6    N     N_R   0.068420 0.560530 0.871650 -0.037481
N7    N     N_R   0.948050 0.295860 0.997660 -0.040979
N8    N     N_R   0.185190 0.638170 0.176290 -0.038527
N9    N     N_R   0.798340 0.505430 0.954400 -0.036337
N10   N     N_R   0.931580 0.439470 0.128350 -0.050633
N11   N     N_R   0.051950 0.704140 0.002340 -0.046397
N12   N     N_R   0.944360 0.651450 0.954400 -0.043069
N13   N     N_R   0.039170 0.492150 0.176290 -0.045247
N14   N     N_R   0.188710 0.696600 0.128350 -0.039283
N15   N     N_R   0.794820 0.447010 0.002340 -0.036449
N16   N     N_R   0.960830 0.507850 0.823710 -0.037958
Ni1   Ni    Ni4+2 0.119330 0.493420 0.109950 0.229333
Ni2   Ni    Ni4+2 0.880670 0.506580 0.890050 0.212013
Ni3   Ni    Ni4+2 0.872590 0.372590 0.000000 0.221653
Ni4   Ni    Ni4+2 0.127410 0.627410 0.000000 0.216766
O1    O     O_2   0.686843 0.503535 0.282681 -0.631609
O2    O     O_R   0.785233 0.603694 0.233822 -0.797668
O3    O     O_2   0.143470 0.027014 0.797673 -0.632440
O4    O     O_R   0.271178 0.972306 0.818558 -0.815356
O5    O     O_2   0.348988 0.271416 0.128850 -0.659801
O6    O     O_R   0.289115 0.123762 0.150044 -0.808669

loop_
_geom_bond_atom_site_label_1
_geom_bond_atom_site_label_2
_ccdc_geom_bond_type
N1    N7    A    
H33   O4    S    
N12   Ni2   S    
C6    C45   A    
C27   C29   A    
N5    Ni1   S    
C35   C36   A    
C55   H30   S    
C3    C6    A    
N9    Ni2   S    
N11   N12   A    
C39   C41   A    
C20   C30   A    
C59   O3    D    
N2    N4    A    
C26   C27   A    
C8    C20   S    
N1    Ni1   S    
C62   N11   A    
C41   H14   S    
C30   C31   A    
C31   H10   S    
C10   C17   A    
C18   H5    S    
C23   C40   A    
C35   H17   S    
C33   C36   A    
C18   C19   S    
N15   Ni3   S    
C63   H36   S    
C3    N14   A    
C46   C47   A    
C2    N13   A    
C44   C53   S    
N10   Ni3   S    
C36   H19   S    
N3    Ni4   S    
C28   H25   S    
C32   C41   A    
C4    N16   A    
C4    C12   A    
C8    C61   A    
N10   N13   A    
C63   N12   A    
C3    H38   S    
C7    C15   S    
C2    H37   S    
C26   C31   A    
C56   H12   S    
C13   C14   A    
C7    C56   A    
C45   H31   S    
C22   H9    S    
C53   C60   S    
C44   C46   A    
C50   C51   S    
C20   C29   A    
N16   Ni2   S    
C9    C62   A    
C60   O5    D    
C10   C11   A    
C28   N3    A    
C5    C7    A    
N6    Ni4   S    
C25   C26   A    
C12   C21   S    
C33   C37   A    
N13   Ni1   S    
C54   N6    A    
N8    Ni1   S    
C51   C53   S    
C35   C39   A    
C54   H29   S    
C37   C38   A    
C1    C57   A    
C62   H34   S    
H32   O2    S    
C47   C48   A    
C14   C15   A    
C10   C19   S    
C17   C18   S    
C47   H21   S    
C1    N1    A    
C16   N2    A    
C40   N4    A    
N11   Ni4   S    
C48   C49   A    
C16   C23   A    
C22   C27   A    
C55   C57   A    
C46   C57   S    
C53   H26   S    
C43   H18   S    
C22   C24   A    
C19   H6    S    
C13   H40   S    
C42   C43   A    
N4    Ni2   S    
C51   H24   S    
C1    H1    S    
N6    N16   A    
C44   C50   A    
C15   C17   A    
C21   C25   A    
C5    H39   S    
C9    C63   A    
C34   C52   A    
C11   C34   S    
C2    C8    A    
C19   H7    S    
C60   O6    S    
C4    H4    S    
C45   N8    A    
C18   H3    S    
C58   O1    D    
C6    C33   S    
C5    N15   A    
N8    N14   A    
C25   H13   S    
C23   C32   S    
N14   Ni4   S    
C38   C43   A    
C55   N7    A    
N7    Ni3   S    
N9    N15   A    
C11   C13   A    
C24   H11   S    
C38   C39   A    
N3    N5    A    
C30   C58   S    
H35   O6    S    
C14   H2    S    
N2    Ni3   S    
C16   H15   S    
C61   H23   S    
C61   N10   A    
C28   C34   A    
C42   H16   S    
C51   C59   S    
C52   N5    A    
C58   O2    S    
C49   C50   A    
C21   C24   A    
C32   C42   A    
C48   H22   S    
C37   H20   S    
C52   H28   S    
C40   H27   S    
C59   O4    S    
C56   N9    A    
C12   C54   A    
C29   H8    S    
