data_mof_unit_57300.cif
_audit_creation_date              2012-12-10T22:11:06-0500
_audit_creation_method            fapswitch 2.2
_symmetry_space_group_name_H-M    P1
_symmetry_Int_Tables_number       1
_space_group_crystal_system       triclinic
_cell_length_a                    12.120117
_cell_length_b                    12.341443
_cell_length_c                    22.920106
_cell_angle_alpha                 90.440179
_cell_angle_beta                  90.35444
_cell_angle_gamma                 90.475681
_cell_volume                      3428.0970517

loop_
_atom_site_label
_atom_site_type_symbol
_atom_type_description
_atom_site_fract_x
_atom_site_fract_y
_atom_site_fract_z
_atom_type_partial_charge
C1    C     C_R   0.657884 0.997886 0.578687 0.867400
C2    C     C_R   0.342119 0.002113 0.421312 0.867389
C3    C     C_R   0.901057 0.811725 0.125898 -0.213817
C4    C     C_R   0.098969 0.188313 0.874078 -0.213767
C5    C     C_R   0.079803 0.827657 0.203469 -0.189459
C6    C     C_R   0.920145 0.172289 0.796560 -0.189487
C7    C     C_R   0.077770 0.747805 0.161041 -0.204719
C8    C     C_R   0.922181 0.252141 0.838986 -0.204777
C9    C     C_R   0.905701 0.158168 0.194131 -0.230740
C10   C     C_R   0.094333 0.841914 0.805915 -0.230712
C11   C     C_R   0.904857 0.241902 0.154663 -0.203414
C12   C     C_R   0.095180 0.758179 0.845382 -0.203383
C13   C     C_R   0.105328 0.912085 0.328284 -0.164461
C14   C     C_R   0.894638 0.087943 0.671736 -0.164485
C15   C     C_R   0.188017 0.911510 0.370008 -0.202670
C16   C     C_R   0.811944 0.088520 0.630014 -0.202678
C17   C     C_R   0.877098 0.097220 0.321496 -0.155773
C18   C     C_R   0.122983 0.902750 0.678549 -0.155790
C19   C     C_R   0.796960 0.097205 0.364115 -0.202279
C20   C     C_R   0.203127 0.902763 0.635933 -0.202282
C21   C     C_3   0.996739 0.001804 0.247565 -0.104612
C22   C     C_3   0.003262 0.998197 0.752433 -0.104645
C23   C     C_R   0.654021 0.001823 0.420292 0.867499
C24   C     C_R   0.345978 0.998177 0.579708 0.867516
C25   C     C_R   0.090741 0.002750 0.292117 0.119234
C26   C     C_R   0.909278 0.997244 0.707873 0.119278
C27   C     C_R   0.253994 0.003654 0.378531 -0.019455
C28   C     C_R   0.746022 0.996343 0.621462 -0.019480
C29   C     C_R   0.895619 0.003933 0.287105 0.125390
C30   C     C_R   0.104385 0.996074 0.712897 0.125423
C31   C     C_R   0.735744 0.002974 0.374495 -0.021562
C32   C     C_R   0.264255 0.997029 0.625505 -0.021592
C33   C     C_R   0.002600 0.098137 0.205281 0.074209
C34   C     C_R   0.997399 0.901869 0.794719 0.074218
C35   C     C_R   0.000223 0.267828 0.124396 -0.063399
C36   C     C_R   0.999778 0.732177 0.875605 -0.063422
C37   C     C_R   0.993563 0.903190 0.207000 0.136740
C38   C     C_R   0.006429 0.096809 0.792999 0.136730
C39   C     C_R   0.989737 0.741170 0.121555 -0.022466
C40   C     C_R   0.010255 0.258824 0.878446 -0.022460
C41   C     C_R   0.992364 0.660379 0.075932 0.869277
C42   C     C_R   0.007635 0.339620 0.924068 0.869279
C43   C     C_R   0.999159 0.352564 0.081171 0.878992
C44   C     C_R   0.000841 0.647438 0.918830 0.879002
C45   C     C_R   0.152161 0.097893 0.304506 -0.195954
C46   C     C_R   0.847931 0.902071 0.695446 -0.195889
C47   C     C_R   0.234229 0.097622 0.346665 -0.200850
C48   C     C_R   0.765858 0.902342 0.653290 -0.200845
C49   C     C_R   0.832773 0.909572 0.298139 -0.190685
C50   C     C_R   0.167137 0.090471 0.701815 -0.190641
C51   C     C_R   0.753275 0.909571 0.341121 -0.199826
C52   C     C_R   0.246629 0.090472 0.658831 -0.199811
C53   C     C_R   0.098380 0.120971 0.170638 0.206036
C54   C     C_R   0.901584 0.878974 0.829326 0.206074
C55   C     C_R   0.096090 0.208619 0.132830 -0.221052
C56   C     C_R   0.903875 0.791318 0.867129 -0.221073
C57   C     C_R   0.903268 0.892504 0.168016 -0.158535
C58   C     C_R   0.096759 0.107537 0.831958 -0.158464
H1    H     H_    0.282504 0.170767 0.354049 0.155192
H2    H     H_    0.717634 0.829170 0.645881 0.155202
H3    H     H_    0.847546 0.833648 0.275844 0.145873
H4    H     H_    0.152286 0.166417 0.724073 0.145826
H5    H     H_    0.834918 0.948286 0.169719 0.141403
H6    H     H_    0.165139 0.051793 0.830234 0.141350
H7    H     H_    0.152245 0.831512 0.230915 0.141454
H8    H     H_    0.847679 0.168402 0.769131 0.141465
H9    H     H_    0.827551 0.138785 0.214045 0.154797
H10   H     H_    0.172503 0.861361 0.786035 0.154747
H11   H     H_    0.053454 0.840694 0.323419 0.138964
H12   H     H_    0.946465 0.159364 0.676624 0.138932
H13   H     H_    0.926886 0.169654 0.316032 0.140605
H14   H     H_    0.073256 0.830285 0.684043 0.140576
H15   H     H_    0.706756 0.835763 0.348799 0.156285
H16   H     H_    0.293067 0.164312 0.651112 0.156308
H17   H     H_    0.169258 0.228037 0.107875 0.163985
H18   H     H_    0.830675 0.771842 0.892048 0.163996
H19   H     H_    0.832013 0.806548 0.095728 0.152800
H20   H     H_    0.168043 0.193523 0.904227 0.152790
H21   H     H_    0.146295 0.692137 0.158540 0.155566
H22   H     H_    0.853627 0.307772 0.841506 0.155604
H23   H     H_    0.828915 0.285662 0.147439 0.161190
H24   H     H_    0.171152 0.714481 0.852640 0.161203
H25   H     H_    0.199479 0.839433 0.395961 0.155105
H26   H     H_    0.800434 0.160626 0.604089 0.155116
H27   H     H_    0.785227 0.169964 0.389999 0.155503
H28   H     H_    0.214931 0.829969 0.610088 0.155520
H29   H     H_    0.137189 0.173143 0.282121 0.138024
H30   H     H_    0.862959 0.826803 0.717807 0.137981
O1    O     O_R   0.621380 0.090460 0.561410 -0.630033
O2    O     O_R   0.378620 0.909540 0.438590 -0.630026
O3    O     O_R   0.617150 0.909540 0.438590 -0.626380
O4    O     O_R   0.382850 0.090460 0.561410 -0.626393
O5    O     O_R   0.619720 0.093230 0.440890 -0.630509
O6    O     O_R   0.380280 0.906770 0.559110 -0.630515
O7    O     O_R   0.618800 0.906770 0.559110 -0.626526
O8    O     O_R   0.381200 0.093230 0.440890 -0.626517
O9    O     O_R   0.087590 0.627480 0.058790 -0.626981
O10   O     O_R   0.912410 0.372520 0.941210 -0.626990
O11   O     O_R   0.905660 0.383870 0.059980 -0.623919
O12   O     O_R   0.094340 0.616130 0.940020 -0.623931
O13   O     O_R   0.092570 0.390420 0.063230 -0.634617
O14   O     O_R   0.907430 0.609580 0.936770 -0.634622
O15   O     O_R   0.900680 0.620930 0.055550 -0.628735
O16   O     O_R   0.099320 0.379070 0.944450 -0.628742
Zn1   Zn    Zn3+2 0.501730 0.123520 0.501540 0.937947
Zn2   Zn    Zn3+2 0.498270 0.876480 0.498460 0.937948
Zn3   Zn    Zn3+2 0.125690 0.504390 0.002180 0.935650
Zn4   Zn    Zn3+2 0.874310 0.495610 0.997820 0.935653
C59   C     C_3   0.204812 0.056497 0.170133 -0.434004
C60   C     C_3   0.219543 0.996282 0.112129 -0.840245
H31   H     H_    0.144873 0.947282 0.101321 0.281870
H32   H     H_    0.234839 0.054180 0.076191 0.246959
H33   H     H_    0.291403 0.941346 0.115249 0.245979
H34   H     H_    0.275849 0.112861 0.176953 0.197617
H35   H     H_    0.211430 0.997297 0.205249 0.220158
C61   C     C_3   0.795111 0.943387 0.829799 -0.433976
C62   C     C_3   0.780258 0.003568 0.887807 -0.840307
H36   H     H_    0.765031 0.945643 0.923743 0.246979
H37   H     H_    0.854847 0.052686 0.898625 0.281860
H38   H     H_    0.708307 0.058387 0.884677 0.245953
H39   H     H_    0.788506 0.002605 0.794693 0.220146
H40   H     H_    0.724115 0.886980 0.822943 0.197609

loop_
_geom_bond_atom_site_label_1
_geom_bond_atom_site_label_2
_ccdc_geom_bond_type
C16   C28   A    
O8    Zn1   S    
O13   Zn3   S    
C56   H18   S    
C23   O3    A    
C5    C37   A    
C17   C29   A    
C19   C31   A    
C43   O13   A    
C39   C41   S    
C29   C49   A    
C11   H23   S    
O11   Zn4   S    
C61   H40   S    
C45   H29   S    
C43   O11   A    
C52   H16   S    
C62   H37   S    
C21   C33   S    
C27   C47   A    
C22   C38   S    
C16   H26   S    
O10   Zn4   S    
C61   C62   S    
C24   C32   S    
C2    O2    A    
C60   H31   S    
C32   C52   A    
O5    Zn1   S    
C38   C58   A    
C11   C35   A    
O6    Zn2   S    
C4    C40   A    
C49   C51   A    
C18   H14   S    
C20   H28   S    
C1    C28   S    
C50   C52   A    
C6    C38   A    
O14   Zn4   S    
O15   Zn4   S    
C18   C30   A    
C12   C36   A    
C35   C43   S    
C18   C20   A    
C55   H17   S    
C45   C47   A    
C30   C50   A    
C3    C39   A    
C9    C33   A    
C14   H12   S    
O3    Zn2   S    
C13   C25   A    
C24   O4    A    
C48   H2    S    
C46   H30   S    
C53   C55   A    
C33   C53   A    
C22   C34   S    
C46   C48   A    
C49   H3    S    
C61   H39   S    
C35   C55   A    
O2    Zn2   S    
C5    H7    S    
C62   H38   S    
C5    C7    A    
C26   C46   A    
C15   H25   S    
C58   H6    S    
C21   C29   S    
C2    O8    A    
C23   O5    A    
C54   C61   S    
C23   C31   S    
C9    H9    S    
C4    H20   S    
C36   C56   A    
O7    Zn2   S    
C24   O6    A    
C15   C27   A    
C1    O7    A    
C12   H24   S    
C10   C34   A    
C14   C26   A    
C9    C11   A    
C60   H33   S    
C2    C27   S    
C10   C12   A    
C59   H34   S    
C3    C57   A    
C17   H13   S    
C13   C15   A    
C50   H4    S    
C14   C16   A    
C36   C44   S    
O1    Zn1   S    
C3    H19   S    
C25   C45   A    
C7    H21   S    
C20   C32   A    
C53   C59   S    
C21   C25   S    
C28   C48   A    
O12   Zn3   S    
C1    O1    A    
C22   C30   S    
C51   H15   S    
C57   H5    S    
C31   C51   A    
C19   H27   S    
C42   O16   A    
C6    C8    A    
C54   C56   A    
C34   C54   A    
C10   H10   S    
C42   O10   A    
C59   C60   S    
C44   O12   A    
C13   H11   S    
C40   C42   S    
C17   C19   A    
C41   O9    A    
C60   H32   S    
C59   H35   S    
C47   H1    S    
O9    Zn3   S    
C41   O15   A    
O4    Zn1   S    
C6    H8    S    
C21   C37   S    
C22   C26   S    
C4    C58   A    
C8    H22   S    
C7    C39   A    
C8    C40   A    
C62   H36   S    
O16   Zn3   S    
C37   C57   A    
C44   O14   A    
