data_mof_unit_46134.cif
_audit_creation_date              2012-12-10T18:47:47-0500
_audit_creation_method            fapswitch 2.2
_symmetry_space_group_name_H-M    P1
_symmetry_Int_Tables_number       1
_space_group_crystal_system       triclinic
_cell_length_a                    9.868595
_cell_length_b                    10.719273
_cell_length_c                    15.538182
_cell_angle_alpha                 90.210009
_cell_angle_beta                  67.23304
_cell_angle_gamma                 89.819808
_cell_volume                      1515.59886662

loop_
_atom_site_label
_atom_site_type_symbol
_atom_type_description
_atom_site_fract_x
_atom_site_fract_y
_atom_site_fract_z
_atom_type_partial_charge
C1    C     C_R   0.499790 0.740056 0.500196 0.869834
C2    C     C_R   0.386616 0.936357 0.485935 -0.185610
C3    C     C_R   0.500264 0.127458 0.499816 -0.015756
C4    C     C_R   0.499623 0.872553 0.500341 -0.016759
C5    C     C_R   0.961032 0.415945 0.446442 0.176471
C6    C     C_R   0.039130 0.584427 0.553242 0.172811
C7    C     C_R   0.104918 0.416206 0.447029 -0.152615
C8    C     C_R   0.895088 0.583828 0.552930 -0.153262
C9    C     C_R   0.407818 0.499191 0.675977 0.866992
C10   C     C_R   0.592202 0.498433 0.323867 0.870756
C11   C     C_R   0.350388 0.483039 0.776645 -0.058968
C12   C     C_R   0.500177 0.259946 0.499855 0.869123
C13   C     C_R   0.650763 0.494405 0.222083 -0.060487
C14   C     C_R   0.187300 0.380539 0.915929 -0.175979
C15   C     C_R   0.838570 0.540116 0.071320 -0.172057
C16   C     C_R   0.222159 0.415774 0.823664 -0.212635
C17   C     C_R   0.795001 0.528844 0.167609 -0.222843
C18   C     C_R   0.441183 0.516749 0.822205 -0.238929
C19   C     C_R   0.554821 0.461762 0.179614 -0.247025
C20   C     C_R   0.419564 0.468244 0.909839 0.067048
C21   C     C_R   0.595754 0.470545 0.083226 0.064784
C22   C     C_R   0.286606 0.403777 0.959284 0.155991
C23   C     C_R   0.360194 0.380648 0.089626 -0.275916
C24   C     C_R   0.738168 0.516333 0.028835 0.162169
C25   C     C_R   0.528000 0.480858 0.948222 0.048856
C26   C     C_R   0.494073 0.443889 0.041382 0.046735
C27   C     C_R   0.671238 0.524841 0.895033 -0.275041
C28   C     C_R   0.257904 0.360378 0.049425 0.064340
C29   C     C_R   0.775474 0.541366 0.934117 0.062315
C30   C     C_R   0.612866 0.935870 0.514591 -0.200319
C31   C     C_R   0.386987 0.064144 0.485606 -0.200717
C32   C     C_R   0.613235 0.063659 0.514265 -0.184681
H1    H     H_    0.871441 0.552654 0.199659 0.154155
H2    H     H_    0.813412 0.650248 0.595198 0.131429
H3    H     H_    0.152421 0.207289 0.118590 0.189163
H4    H     H_    0.068363 0.344313 0.162594 0.178748
H5    H     H_    0.962361 0.531761 0.818972 0.178013
H6    H     H_    0.902794 0.677770 0.854331 0.184546
H7    H     H_    0.444173 0.437653 0.224282 0.154605
H8    H     H_    0.531920 0.577527 0.785563 0.141658
H9    H     H_    0.086550 0.329430 0.951170 0.173014
H10   H     H_    0.949025 0.572018 0.031026 0.174488
H11   H     H_    0.007280 0.261995 0.361530 0.136892
H12   H     H_    0.152695 0.386005 0.788055 0.152232
H13   H     H_    0.918208 0.377552 0.333118 0.187020
H14   H     H_    0.992709 0.738933 0.637665 0.138362
H15   H     H_    0.085710 0.625447 0.664859 0.189589
H16   H     H_    0.333982 0.340167 0.157564 0.139988
H17   H     H_    0.708464 0.543555 0.821386 0.145793
H18   H     H_    0.700477 0.887111 0.526363 0.154129
H19   H     H_    0.299380 0.112900 0.473828 0.153914
H20   H     H_    0.701046 0.112041 0.525798 0.166657
H21   H     H_    0.298804 0.887982 0.474399 0.167119
H22   H     H_    0.186653 0.349920 0.404622 0.130284
N1    N     N_R   0.142780 0.500030 0.500020 -0.084902
N2    N     N_R   0.857220 0.499970 0.499980 -0.084694
N3    N     N_3   0.124618 0.294926 0.100789 -0.474196
N4    N     N_3   0.917456 0.589329 0.877658 -0.472211
N5    N     N_3   0.923459 0.328240 0.389564 -0.416623
N6    N     N_3   0.077378 0.673612 0.608875 -0.418096
O1    O     O_R   0.385370 0.683250 0.500010 -0.596418
O2    O     O_R   0.614630 0.316750 0.499990 -0.596824
O3    O     O_R   0.614700 0.683220 0.500000 -0.629684
O4    O     O_R   0.385300 0.316780 0.500000 -0.630877
O5    O     O_R   0.319830 0.500020 0.632250 -0.620114
O6    O     O_R   0.680170 0.499980 0.367750 -0.616912
O7    O     O_R   0.549160 0.499990 0.632240 -0.611961
O8    O     O_R   0.450840 0.500010 0.367760 -0.616048
Zn1   Zn    Zn3+2 0.346870 0.500020 0.500000 0.947991
Zn2   Zn    Zn3+2 0.653130 0.499980 0.500000 0.951140

loop_
_geom_bond_atom_site_label_1
_geom_bond_atom_site_label_2
_ccdc_geom_bond_type
C2    C4    A    
C21   C26   A    
C9    O7    A    
C11   C18   A    
C23   C28   A    
C23   H16   S    
C14   C16   A    
C13   C17   A    
C27   C29   A    
C12   O2    A    
C11   C16   A    
C16   H12   S    
C5    N2    A    
C18   C20   A    
H5    N4    S    
O3    Zn2   S    
H11   N5    S    
C6    N1    A    
H3    N3    S    
C1    C4    S    
C10   O8    A    
O7    Zn2   S    
C6    C8    A    
C30   H18   S    
C4    C30   A    
C3    C32   A    
C25   C26   A    
C8    H2    S    
O4    Zn1   S    
C29   N4    S    
C3    C31   A    
C9    C11   S    
C6    N6    S    
C8    N2    A    
N1    Zn1   S    
C17   H1    S    
C14   H9    S    
O5    Zn1   S    
C7    N1    A    
C19   H7    S    
C2    C31   A    
C15   C24   A    
C19   C21   A    
C20   C22   A    
N2    Zn2   S    
C10   O6    A    
C14   C22   A    
C12   O4    A    
C9    O5    A    
C23   C26   A    
C25   C27   A    
C20   C25   A    
C5    N5    S    
H6    N4    S    
C30   C32   A    
C1    O3    A    
O6    Zn2   S    
O2    Zn2   S    
C5    C7    A    
H4    N3    S    
C21   C24   A    
O1    Zn1   S    
C15   C17   A    
C18   H8    S    
C24   C29   A    
H13   N5    S    
C13   C19   A    
C22   C28   A    
C3    C12   S    
C7    H22   S    
H14   N6    S    
H15   N6    S    
C28   N3    S    
C10   C13   S    
C32   H20   S    
C27   H17   S    
C15   H10   S    
C31   H19   S    
O8    Zn1   S    
C2    H21   S    
C1    O1    A    
