data_mof_unit_14162.cif
_audit_creation_date              2012-10-26T19:03:59-0400
_audit_creation_method            fapswitch 2.2
_symmetry_space_group_name_H-M    P1
_symmetry_Int_Tables_number       1
_space_group_crystal_system       triclinic
_cell_length_a                    15.911589
_cell_length_b                    12.975797
_cell_length_c                    11.837237
_cell_angle_alpha                 100.350367
_cell_angle_beta                  93.489971
_cell_angle_gamma                 93.422288
_cell_volume                      2393.53647987

loop_
_atom_site_label
_atom_site_type_symbol
_atom_type_description
_atom_site_fract_x
_atom_site_fract_y
_atom_site_fract_z
_atom_type_partial_charge
C1    C     C_R   0.501312 0.299261 0.478152 0.534249
C2    C     C_R   0.501225 0.184707 0.464840 0.001857
C3    C     C_R   0.471880 0.013187 0.344434 0.013552
C4    C     C_R   0.340694 0.499795 0.500331 0.533527
C5    C     C_R   0.475358 0.122145 0.358305 -0.174167
C6    C     C_R   0.526686 0.137021 0.557830 0.026014
C7    C     C_R   0.501064 0.030103 0.553326 0.033468
C8    C     C_R   0.476680 0.965614 0.443985 0.048368
C9    C     C_R   0.457132 0.857010 0.439070 0.023124
C10   C     C_R   0.481547 0.878014 0.646989 -0.039800
C11   C     C_R   0.494496 0.987477 0.655294 0.033072
C12   C     C_3   0.950803 0.432402 0.594244 0.034044
C13   C     C_R   0.406362 0.420587 0.025860 -0.132909
C14   C     C_R   0.417599 0.421847 0.144273 0.137446
C15   C     C_R   0.541388 0.536518 0.155926 0.146653
C16   C     C_R   0.492420 0.699768 0.522209 0.585025
C17   C     C_R   0.533378 0.531220 0.033752 -0.020144
C18   C     C_R   0.465160 0.472189 0.967688 0.001168
C19   C     C_R   0.457736 0.464230 0.844976 0.127129
C20   C     C_R   0.582673 0.577527 0.856269 0.146042
C21   C     C_R   0.592200 0.582802 0.975953 -0.174901
C22   C     C_R   0.659329 0.500386 0.499685 0.568977
C23   C     C_3   0.916340 0.500615 0.497480 0.042276
C24   C     C_3   0.052932 0.428445 0.590879 0.036056
C25   C     C_3   0.042270 0.454205 0.369186 0.023632
C26   C     C_3   0.939322 0.445314 0.368594 0.046633
C27   C     C_1   0.748421 0.500539 0.498941 -0.053290
C28   C     C_3   0.083625 0.502208 0.501020 -0.046560
C29   C     C_3   0.905439 0.318565 0.576611 -0.345790
C30   C     C_2   0.101502 0.459166 0.709808 0.229265
C31   C     C_3   0.922472 0.479195 0.717519 -0.330985
C32   C     C_3   0.926431 0.685643 0.432083 -0.392372
C33   C     C_3   0.396226 0.793385 0.344655 -0.312680
C34   C     C_3   0.955962 0.623170 0.527910 0.024210
C35   C     C_3   0.459230 0.833190 0.752594 -0.352331
C36   C     C_2   0.470756 0.955329 0.224459 0.215611
C37   C     C_2   0.493096 0.056077 0.770111 0.205583
C38   C     C_3   0.593076 0.194082 0.648976 -0.337815
C39   C     C_3   0.386834 0.390350 0.778551 -0.321750
C40   C     C_2   0.085211 0.317929 0.560076 0.222840
C41   C     C_2   0.652156 0.631412 0.807389 0.279361
C42   C     C_3   0.350358 0.359593 0.193333 -0.327209
C43   C     C_2   0.611334 0.603189 0.224446 0.291606
C44   C     C_2   0.075553 0.522296 0.285185 0.205792
C45   C     C_3   0.058259 0.623513 0.542743 0.044419
C46   C     C_3   0.077742 0.346842 0.317217 -0.328888
C47   C     C_2   0.896769 0.332713 0.337788 0.189740
C48   C     C_3   0.891800 0.487155 0.265800 -0.319218
C49   C     C_3   0.094217 0.673390 0.668284 -0.359615
C50   C     C_2   0.103732 0.703416 0.479706 0.191382
C51   C     C_3   0.917044 0.690580 0.634510 -0.371727
C52   C     C_1   0.823663 0.500668 0.498317 -0.090095
C53   C     C_1   0.176511 0.502001 0.501182 -0.069693
C54   C     C_1   0.251710 0.500859 0.501096 -0.007093
C55   C     C_R   0.477945 0.812981 0.536833 0.013388
Cu1   Cu    Cu3+1 0.506190 0.507730 0.615930 0.966694
Cu2   Cu    Cu3+1 0.493810 0.492270 0.384070 0.959404
H1    H     H_    0.463333 0.158225 0.283614 0.120922
H2    H     H_    0.918561 0.421048 0.775743 0.172571
H3    H     H_    0.930387 0.772199 0.462149 0.125468
H4    H     H_    0.967200 0.678326 0.359967 0.122344
H5    H     H_    0.859236 0.665103 0.401314 0.152544
H6    H     H_    0.352825 0.844373 0.307389 0.120357
H7    H     H_    0.430477 0.747975 0.275801 0.220229
H8    H     H_    0.354705 0.737134 0.380389 0.155241
H9    H     H_    0.423926 0.887924 0.811942 0.122884
H10   H     H_    0.414973 0.762088 0.729035 0.162610
H11   H     H_    0.517232 0.815872 0.800262 0.193410
H12   H     H_    0.350103 0.378281 0.980463 0.120007
H13   H     H_    0.434522 0.982240 0.156063 0.095436
H14   H     H_    0.527890 0.037024 0.844493 0.115208
H15   H     H_    0.639524 0.241335 0.609256 0.119955
H16   H     H_    0.564034 0.247124 0.717610 0.194491
H17   H     H_    0.629945 0.137864 0.688297 0.118070
H18   H     H_    0.386316 0.313523 0.807044 0.158504
H19   H     H_    0.325311 0.424747 0.793485 0.114829
H20   H     H_    0.391415 0.368075 0.686426 0.200106
H21   H     H_    0.139719 0.305938 0.510129 0.095569
H22   H     H_    0.716858 0.616417 0.830083 0.063292
H23   H     H_    0.646695 0.628083 0.023494 0.110691
H24   H     H_    0.324947 0.289862 0.128838 0.093701
H25   H     H_    0.373555 0.327280 0.267760 0.175082
H26   H     H_    0.296898 0.408829 0.215550 0.143941
H27   H     H_    0.671153 0.570439 0.240164 0.078139
H28   H     H_    0.133110 0.571612 0.307041 0.179981
H29   H     H_    0.147761 0.350485 0.326513 0.082728
H30   H     H_    0.052983 0.279215 0.352756 0.162625
H31   H     H_    0.060910 0.324803 0.222976 0.225946
H32   H     H_    0.837760 0.314862 0.373572 0.123622
H33   H     H_    0.915249 0.560079 0.241544 0.155410
H34   H     H_    0.835742 0.319993 0.566028 0.096041
H35   H     H_    0.894494 0.432365 0.182192 0.205863
H36   H     H_    0.823608 0.493740 0.278448 0.088460
H37   H     H_    0.065462 0.641917 0.737466 0.111886
H38   H     H_    0.163532 0.667499 0.679211 0.158197
H39   H     H_    0.084638 0.758880 0.688454 0.134180
H40   H     H_    0.073388 0.771054 0.459915 0.129670
H41   H     H_    0.847143 0.688227 0.622397 0.161848
H42   H     H_    0.932023 0.673584 0.719757 0.117823
H43   H     H_    0.939968 0.774692 0.645888 0.130612
H44   H     H_    0.927331 0.261410 0.505968 0.170108
H45   H     H_    0.917511 0.280090 0.652059 0.194154
H46   H     H_    0.161478 0.505028 0.720364 0.096593
H47   H     H_    0.966521 0.539615 0.769221 0.148841
H48   H     H_    0.858614 0.508789 0.713871 0.114799
N1    N     N_R   0.515490 0.519350 0.790130 -0.225371
N2    N     N_R   0.484510 0.480650 0.209890 -0.238177
O1    O     O_R   0.504390 0.354460 0.582000 -0.524565
O2    O     O_2   0.515158 0.882275 0.199682 -0.458896
O3    O     O_2   0.449554 0.131006 0.783183 -0.533712
O4    O     O_2   0.062400 0.245567 0.607072 -0.478300
O5    O     O_2   0.639443 0.698103 0.749259 -0.491347
O6    O     O_2   0.604111 0.696556 0.257971 -0.454341
O7    O     O_2   0.048936 0.508174 0.184159 -0.519064
O8    O     O_2   0.916055 0.267408 0.257458 -0.519292
O9    O     O_2   0.179664 0.704822 0.468719 -0.545331
O10   O     O_R   0.493940 0.341410 0.386200 -0.522565
O11   O     O_R   0.384660 0.506540 0.597940 -0.527246
O12   O     O_R   0.374210 0.493480 0.402140 -0.518350
O13   O     O_R   0.506060 0.658590 0.613800 -0.451247
O14   O     O_R   0.495610 0.645540 0.418000 -0.467020
O15   O     O_R   0.625790 0.506520 0.597860 -0.477740
O16   O     O_R   0.615340 0.493460 0.402060 -0.510644
O17   O     O_2   0.080642 0.421046 0.792080 -0.464356

loop_
_geom_bond_atom_site_label_1
_geom_bond_atom_site_label_2
_ccdc_geom_bond_type
C12   C29   S    
C31   H48   S    
C42   H25   S    
C20   C41   S    
C33   H8    S    
C7    C8    A    
C53   C54   T    
C25   C28   S    
C7    C11   A    
C12   C23   S    
C34   C51   S    
C13   C18   A    
C35   H11   S    
C32   H4    S    
C18   C19   A    
C16   O13   A    
C15   N2    A    
Cu1   Cu2   S    
C1    C2    S    
C23   C26   S    
C31   H2    S    
C11   C37   S    
Cu1   O1    S    
C8    C9    A    
C41   O5    D    
C30   H46   S    
C6    C38   S    
C4    O12   A    
C10   C35   S    
C9    C55   A    
C35   H10   S    
C49   H37   S    
C20   N1    A    
C26   C48   S    
C14   C42   S    
C51   H41   S    
C44   O7    D    
C48   H33   S    
C13   C14   A    
C9    C33   S    
C43   H27   S    
C47   H32   S    
C4    O11   A    
C2    C6    A    
C42   H24   S    
C25   C44   S    
C36   H13   S    
C22   O15   A    
C40   O4    D    
C46   H31   S    
C51   H42   S    
C38   H15   S    
C28   C45   S    
C48   H36   S    
C22   O16   A    
C3    C8    A    
C35   H9    S    
C25   C26   S    
C17   C21   A    
Cu1   O15   S    
C47   O8    D    
C16   O14   A    
Cu2   O16   S    
C45   C49   S    
C33   H6    S    
C23   C34   S    
C17   C18   A    
C29   H44   S    
C34   C45   S    
C1    O10   A    
C39   H19   S    
C49   H38   S    
C10   C55   A    
Cu1   N1    S    
C37   O3    D    
C19   C39   S    
C26   C47   S    
C5    H1    S    
C14   N2    A    
Cu2   N2    S    
C30   O17   D    
C39   H18   S    
C22   C27   S    
C37   H14   S    
C12   C31   S    
C40   H21   S    
C2    C5    A    
C32   H3    S    
C44   H28   S    
C39   H20   S    
C29   H34   S    
C27   C52   T    
Cu2   O10   S    
C46   H30   S    
C38   H17   S    
C51   H43   S    
C15   C17   A    
C50   H40   S    
C4    C54   S    
Cu1   O11   S    
C42   H26   S    
C24   C28   S    
C3    C5    A    
C41   H22   S    
C28   C53   S    
C6    C7    A    
Cu1   O13   S    
C12   C24   S    
Cu2   O12   S    
C31   H47   S    
C16   C55   S    
C15   C43   S    
C43   O6    D    
C45   C50   S    
C23   C52   S    
C13   H12   S    
C3    C36   S    
C33   H7    S    
C21   H23   S    
C24   C40   S    
C29   H45   S    
C50   O9    D    
C49   H39   S    
C24   C30   S    
C10   C11   A    
C1    O1    A    
Cu2   O14   S    
C19   N1    A    
C20   C21   A    
C48   H35   S    
C36   O2    D    
C32   H5    S    
C25   C46   S    
C32   C34   S    
C46   H29   S    
C38   H16   S    
