data_mof_unit_55821.cif
_audit_creation_date              2012-12-11T17:05:29-0500
_audit_creation_method            fapswitch 2.2
_symmetry_space_group_name_H-M    P1
_symmetry_Int_Tables_number       1
_space_group_crystal_system       triclinic
_cell_length_a                    6.96085
_cell_length_b                    14.51637
_cell_length_c                    16.013525
_cell_angle_alpha                 90.237538
_cell_angle_beta                  89.893298
_cell_angle_gamma                 89.954639
_cell_volume                      1618.08980788

loop_
_atom_site_label
_atom_site_type_symbol
_atom_type_description
_atom_site_fract_x
_atom_site_fract_y
_atom_site_fract_z
_atom_type_partial_charge
O1    O     O_R   0.494380 0.415640 0.412830 -0.513510
O2    O     O_R   0.823960 0.405540 0.586560 -0.544717
O3    O     O_R   0.994270 0.584360 0.587170 -0.545976
C1    C     C_R   0.655133 0.383423 0.615139 0.688195
O4    O     O_R   0.824090 0.404620 0.413450 -0.531107
O5    O     O_R   0.994400 0.583430 0.412820 -0.539427
C2    C     C_R   0.655428 0.382513 0.384457 0.724442
O6    O     O_R   0.494250 0.416570 0.587180 -0.539221
O7    O     O_3   0.660800 0.558670 0.500000 -0.380022
V1    V     V_3+5 0.935650 0.489120 0.500000 1.423999
O8    O     O_R   0.324110 0.594460 0.413440 -0.538207
C3    C     C_R   0.155151 0.616538 0.384701 0.716694
O9    O     O_R   0.323980 0.595380 0.586550 -0.547372
C4    C     C_R   0.154636 0.617608 0.615456 0.654516
V2    V     V_3+5 0.435660 0.510880 0.500000 1.417023
O10   O     O_3   0.160640 0.441330 0.500000 -0.354142
C5    C     C_3   0.930171 0.707001 0.711531 -0.324300
H1    H     H_    0.849932 0.734475 0.656942 0.151687
H2    H     H_    0.858227 0.641965 0.730783 0.140412
C6    C     C_3   0.918646 0.777191 0.784073 -0.389597
H3    H     H_    0.842476 0.745164 0.837780 0.161676
H4    H     H_    0.831878 0.837613 0.763989 0.171897
H5    H     H_    0.163895 0.807846 0.604812 0.126228
H6    H     H_    0.139994 0.912579 0.712128 0.135383
C7    C     C_3   0.236388 0.780027 0.661228 -0.338114
C8    C     C_3   0.248140 0.650585 0.764932 -0.348148
C9    C     C_3   0.142636 0.687243 0.686496 0.083203
H7    H     H_    0.400803 0.635542 0.749037 0.154580
H8    H     H_    0.182273 0.584382 0.784892 0.081733
C10   C     C_3   0.122654 0.808951 0.811370 0.078926
C11   C     C_3   0.222451 0.851401 0.733536 -0.290984
C12   C     C_3   0.237147 0.721424 0.838338 0.244441
H9    H     H_    0.159876 0.689179 0.891915 0.033489
H10   H     H_    0.390121 0.768942 0.644775 0.148961
H11   H     H_    0.369178 0.875792 0.749909 0.173441
C13   C     C_R   0.274517 0.750658 0.187681 0.088879
C14   C     C_R   0.118204 0.810785 0.179610 -0.103296
C15   C     C_R   0.965824 0.800721 0.236840 -0.160484
H12   H     H_    0.842628 0.845791 0.233310 0.132689
C16   C     C_R   0.977460 0.737190 0.303026 -0.183068
H13   H     H_    0.861773 0.734385 0.348074 0.128150
C17   C     C_R   0.142462 0.682335 0.314302 -0.114928
C18   C     C_R   0.286442 0.688102 0.253363 0.106278
C19   C     C_3   0.496259 0.704351 0.263745 -0.415596
C20   C     C_3   0.483349 0.772105 0.191910 -0.392305
H14   H     H_    0.582805 0.642077 0.248594 0.170293
H15   H     H_    0.529665 0.737752 0.324574 0.171756
H16   H     H_    0.561747 0.748838 0.135066 0.169328
H17   H     H_    0.510070 0.844714 0.210919 0.177429
C21   C     C_R   0.493382 0.250472 0.686886 0.029700
C22   C     C_R   0.647091 0.312345 0.681018 -0.091452
C23   C     C_R   0.798160 0.302384 0.738683 -0.172010
H18   H     H_    0.920026 0.348375 0.736408 0.112951
C24   C     C_R   0.786663 0.237550 0.803731 -0.111248
H19   H     H_    0.900507 0.235052 0.849510 0.122192
C25   C     C_R   0.623932 0.180805 0.812875 -0.137471
C26   C     C_R   0.482667 0.185903 0.751015 0.038092
C27   C     C_3   0.270666 0.199307 0.759632 0.210893
C28   C     C_3   0.282767 0.269231 0.689029 -0.440657
H20   H     H_    0.229154 0.229324 0.820979 0.099592
H21   H     H_    0.250978 0.340887 0.709522 0.138666
H22   H     H_    0.210079 0.247413 0.630439 0.182320
C29   C     C_R   0.500807 0.246040 0.313518 -0.035937
C30   C     C_R   0.647439 0.312050 0.317130 -0.095032
C31   C     C_R   0.789099 0.308397 0.254360 -0.174581
H23   H     H_    0.900745 0.359753 0.253035 0.174122
C32   C     C_R   0.778659 0.243575 0.188664 -0.212046
H24   H     H_    0.887417 0.244865 0.140274 0.126758
C33   C     C_R   0.622639 0.182053 0.182455 -0.139817
C34   C     C_R   0.488308 0.182736 0.247739 0.093169
C35   C     C_3   0.274416 0.188899 0.244358 0.106947
C36   C     C_3   0.287569 0.258545 0.316023 0.159125
H25   H     H_    0.219363 0.215684 0.183901 0.087637
H26   H     H_    0.222158 0.235413 0.375748 0.137473
O11   O     O_R   0.771490 0.080820 0.910070 -0.531432
O12   O     O_R   0.441590 0.092730 0.083780 -0.539049
O13   O     O_R   0.271350 0.913900 0.084390 -0.532523
C37   C     C_R   0.610384 0.115084 0.112519 0.697648
O14   O     O_R   0.441780 0.091820 0.910670 -0.539535
O15   O     O_R   0.271540 0.912980 0.910040 -0.510662
C38   C     C_R   0.610893 0.114081 0.882236 0.696722
O16   O     O_R   0.771300 0.081740 0.084420 -0.542401
O17   O     O_3   0.604960 0.938700 0.997240 -0.363751
V3    V     V_3+5 0.330090 0.008230 0.997220 1.468433
O18   O     O_R   0.941820 0.901930 0.910640 -0.547614
C39   C     C_R   0.110952 0.879368 0.881970 0.699729
O19   O     O_R   0.941630 0.902840 0.083750 -0.549458
C40   C     C_R   0.110301 0.880978 0.112671 0.710517
V4    V     V_3+5 0.830090 0.986410 0.997190 1.433077
O20   O     O_3   0.105080 0.055990 0.997200 -0.372577
O21   O     O_3   0.423647 0.745663 0.863860 -0.646042
H27   H     H_    0.475532 0.692313 0.895218 0.266710
O22   O     O_3   0.164631 0.119839 0.739035 -0.635585
H28   H     H_    0.216316 0.093625 0.686154 0.287647
O23   O     O_3   0.190413 0.105724 0.269131 -0.643672
H29   H     H_    0.049652 0.116069 0.267160 0.298742
O24   O     O_3   0.231282 0.348342 0.293928 -0.646968
H30   H     H_    0.291781 0.364469 0.239670 0.271449

loop_
_geom_bond_atom_site_label_1
_geom_bond_atom_site_label_2
_ccdc_geom_bond_type
C7    C11   S    
C10   C12   S    
O19   C40   A    
C8    C12   S    
O22   H28   S    
C14   C40   S    
O23   H29   S    
O15   V3    S    
O12   V3    S    
O24   H30   S    
C25   C38   S    
C6    C10   S    
O18   C39   A    
C19   C20   S    
C8    C9    S    
O16   V4    S    
C21   C28   S    
C13   C14   A    
C27   O22   S    
O12   C37   A    
O5    C3    A    
O14   V3    S    
C12   O21   S    
C35   O23   S    
C27   H20   S    
V2    O10   S    
C5    C6    S    
C25   C26   A    
C3    C17   S    
O8    V2    S    
O13   C40   A    
C23   C24   A    
C31   C32   A    
O15   C39   A    
C34   C35   S    
O1    V2    S    
C4    C9    S    
C10   C39   S    
O7    V1    S    
C19   H15   S    
C1    O6    A    
C7    H10   S    
C16   C17   A    
O9    C4    A    
C33   C37   S    
V3    O20   S    
C19   H14   S    
C5    H1    S    
C36   O24   S    
O17   V4    S    
C24   C25   A    
C28   H21   S    
C1    C22   S    
C22   C23   A    
C5    C9    S    
C36   H26   S    
O21   H27   S    
O4    C2    A    
O18   V4    S    
O11   C38   A    
O13   V3    S    
C27   C28   S    
C32   H24   S    
C32   C33   A    
O2    C1    A    
C18   C19   S    
C14   C15   A    
C37   O16   A    
O17   V3    S    
C29   C34   A    
C20   H17   S    
C10   C11   S    
C21   C22   A    
C13   C20   S    
C29   C36   S    
O3    C4    A    
C16   H13   S    
C6    H4    S    
O6    V2    S    
O19   V4    S    
C11   H11   S    
C17   C18   A    
O2    V1    S    
C23   H18   S    
C35   H25   S    
C20   H16   S    
C24   H19   S    
C28   H22   S    
O1    C2    A    
C21   C26   A    
C8    H7    S    
O5    V1    S    
O8    C3    A    
C7    C9    S    
O14   C38   A    
C30   C31   A    
O9    V2    S    
O7    V2    S    
H6    C11   S    
C35   C36   S    
O3    V1    S    
V1    O10   S    
C12   H9    S    
C15   C16   A    
C26   C27   S    
C15   H12   S    
C5    H2    S    
H5    C7    S    
C33   C34   A    
C2    C30   S    
O11   V4    S    
C29   C30   A    
O4    V1    S    
C6    H3    S    
C8    H8    S    
C31   H23   S    
C13   C18   A    
V4    O20   S    
