data_mof_unit_60029.cif
_audit_creation_date              2012-12-10T19:19:26-0500
_audit_creation_method            fapswitch 2.2
_symmetry_space_group_name_H-M    P1
_symmetry_Int_Tables_number       1
_space_group_crystal_system       triclinic
_cell_length_a                    15.748535
_cell_length_b                    15.776841
_cell_length_c                    15.011174
_cell_angle_alpha                 89.466157
_cell_angle_beta                  89.610108
_cell_angle_gamma                 89.983642
_cell_volume                      3729.45997165

loop_
_atom_site_label
_atom_site_type_symbol
_atom_type_description
_atom_site_fract_x
_atom_site_fract_y
_atom_site_fract_z
_atom_type_partial_charge
C1    C     C_R   0.500085 0.338049 0.500436 0.902063
C2    C     C_3   0.577117 0.048885 0.438853 -0.073556
C3    C     C_3   0.567708 0.951425 0.427706 -0.245485
C4    C     C_R   0.337598 0.500029 0.500290 0.899411
C5    C     C_1   0.500409 0.750511 0.498587 -0.106006
C6    C     C_3   0.504858 0.083145 0.501648 0.068939
C7    C     C_3   0.527416 0.947834 0.594292 -0.307102
C8    C     C_3   0.502240 0.917105 0.498439 0.063481
C9    C     C_3   0.411432 0.952536 0.479253 -0.070235
C10   C     C_3   0.415894 0.050677 0.469365 -0.043160
C11   C     C_1   0.500970 0.825576 0.498109 0.003196
C12   C     C_3   0.083104 0.497455 0.499175 0.066379
C13   C     C_1   0.503437 0.174543 0.501525 0.093908
C14   C     C_1   0.501728 0.249584 0.501272 -0.056790
C15   C     C_3   0.449670 0.414629 0.055595 -0.047249
C16   C     C_R   0.499964 0.661977 0.499546 0.899301
C17   C     C_3   0.591497 0.504775 0.050266 0.198227
C18   C     C_3   0.588228 0.482525 0.948213 -0.304368
C19   C     C_3   0.496463 0.500013 0.090667 -0.117691
C20   C     C_3   0.437719 0.420122 0.947860 -0.149435
C21   C     C_3   0.495615 0.495549 0.909968 -0.076778
C22   C     C_3   0.461881 0.583183 0.946833 -0.113624
C23   C     C_3   0.971733 0.567688 0.539047 0.172857
C24   C     C_3   0.444553 0.580297 0.051590 -0.166275
C25   C     C_1   0.497295 0.497438 0.808967 0.292223
C26   C     C_1   0.499912 0.500945 0.191106 0.144590
C27   C     C_R   0.662405 0.499910 0.499685 0.897919
C28   C     C_3   0.970703 0.428168 0.541753 -0.284447
C29   C     C_3   0.028207 0.428288 0.457905 -0.073626
C30   C     C_1   0.248903 0.499386 0.500758 -0.087601
C31   C     C_1   0.751106 0.499215 0.498932 -0.089202
C32   C     C_3   0.026785 0.498171 0.582945 0.181755
C33   C     C_2   0.057902 0.349442 0.412337 0.456371
C34   C     C_3   0.916944 0.498180 0.497621 0.069343
C35   C     C_2   0.545676 0.926575 0.333603 0.543750
C36   C     C_2   0.458700 0.334314 0.906060 0.539913
C37   C     C_2   0.655870 0.527281 0.892878 0.478812
C38   C     C_2   0.350145 0.576296 0.074422 0.374765
C39   C     C_2   0.469626 0.664397 0.093346 0.552630
C40   C     C_2   0.366763 0.396092 0.105563 0.387573
C41   C     C_2   0.345907 0.435782 0.918255 0.417580
C42   C     C_2   0.945438 0.497280 0.319026 0.461845
C43   C     C_2   0.610092 0.908540 0.627087 0.386881
C44   C     C_2   0.600015 0.086013 0.644721 0.559711
C45   C     C_3   0.029338 0.567395 0.454941 -0.285911
C46   C     C_3   0.973394 0.497431 0.414252 -0.074606
C47   C     C_1   0.173788 0.498566 0.500315 0.083125
C48   C     C_1   0.826233 0.498603 0.498296 0.085428
C49   C     C_3   0.522388 0.047787 0.599344 -0.047666
H1    H     H_    0.638560 0.058222 0.473030 0.223401
H2    H     H_    0.011612 0.305519 0.386107 0.090512
H3    H     H_    0.493409 0.956632 0.299162 0.140042
H4    H     H_    0.420442 0.279536 0.924537 0.130173
H5    H     H_    0.650886 0.594586 0.878432 0.079249
H6    H     H_    0.302208 0.573694 0.023596 0.123949
H7    H     H_    0.485758 0.666989 0.163456 0.103565
H8    H     H_    0.352468 0.426455 0.168259 0.146965
H9    H     H_    0.294995 0.447842 0.964823 0.112967
H10   H     H_    0.992709 0.496837 0.266165 0.091328
H11   H     H_    0.607943 0.860689 0.679482 0.104585
H12   H     H_    0.630597 0.922035 0.441194 0.229883
H13   H     H_    0.615998 0.064746 0.711538 0.104451
H14   H     H_    0.365584 0.077223 0.513102 0.175416
H15   H     H_    0.371775 0.939037 0.539444 0.167434
H16   H     H_    0.478830 0.921791 0.641222 0.157820
H17   H     H_    0.945340 0.371347 0.577073 0.194962
H18   H     H_    0.603934 0.414168 0.944013 0.250858
H19   H     H_    0.514753 0.628506 0.934570 0.180998
H20   H     H_    0.054691 0.624157 0.419504 0.193928
I1    I     I_    0.374508 0.104081 0.342798 -0.162774
I2    I     I_    0.606382 0.121201 0.318190 -0.176074
I3    I     I_    0.421170 0.082884 0.691586 -0.306853
I4    I     I_    0.336410 0.884338 0.381733 -0.225085
I5    I     I_    0.514235 0.298271 0.100453 -0.167815
I6    I     I_    0.660129 0.622706 0.076992 -0.207562
I7    I     I_    0.687971 0.427666 0.114802 -0.099593
I8    I     I_    0.366514 0.647928 0.866151 -0.218027
I9    I     I_    0.924473 0.679553 0.601561 -0.188061
I10   I     I_    0.071959 0.496656 0.716964 -0.143298
N1    N     N_1   0.498320 0.498630 0.731150 -0.059395
N2    N     N_1   0.501700 0.501360 0.268850 -0.062760
O1    O     O_R   0.500080 0.377210 0.574260 -0.583973
O2    O     O_2   0.587594 0.873160 0.294676 -0.512495
O3    O     O_2   0.515588 0.324878 0.851324 -0.547143
O4    O     O_2   0.715948 0.487765 0.862484 -0.486766
O5    O     O_2   0.325755 0.579979 0.151827 -0.572452
O6    O     O_2   0.467031 0.730894 0.051008 -0.504030
O7    O     O_2   0.318838 0.340063 0.081157 -0.529603
O8    O     O_2   0.327068 0.434064 0.839394 -0.516467
O9    O     O_2   0.870153 0.497601 0.300397 -0.509313
O10   O     O_2   0.678807 0.928552 0.595161 -0.535752
O11   O     O_2   0.644259 0.140535 0.609535 -0.553909
O12   O     O_R   0.499910 0.377070 0.425800 -0.600463
O13   O     O_R   0.376870 0.500060 0.574220 -0.588574
O14   O     O_R   0.376690 0.499920 0.425760 -0.600418
O15   O     O_R   0.500090 0.622930 0.574200 -0.622367
O16   O     O_R   0.499920 0.622790 0.425740 -0.596434
O17   O     O_R   0.623310 0.500080 0.574240 -0.608247
O18   O     O_R   0.623130 0.499940 0.425780 -0.587743
O19   O     O_2   0.133515 0.334215 0.404412 -0.521829
Zn1   Zn    Zn3+2 0.500120 0.500090 0.599130 1.068463
Zn2   Zn    Zn3+2 0.499880 0.499910 0.400870 1.063162

loop_
_geom_bond_atom_site_label_1
_geom_bond_atom_site_label_2
_ccdc_geom_bond_type
C44   C49   S    
C41   O8    D    
C27   O17   A    
C23   C45   S    
C25   N1    T    
C12   C29   S    
C9    H15   S    
C10   H14   S    
C39   O6    D    
C20   C41   S    
C7    C8    S    
C45   C46   S    
C15   C19   S    
C27   O18   A    
C38   O5    D    
C37   O4    D    
C28   C29   S    
C18   C37   S    
C41   H9    S    
C5    C11   T    
C16   O16   A    
C18   C21   S    
C29   C33   S    
C24   C39   S    
C42   C46   S    
C19   C26   S    
C5    C16   S    
C36   H4    S    
C2    H1    S    
C21   C22   S    
C38   H6    S    
O13   Zn1   S    
C8    C9    S    
C49   I3    S    
C17   I7    S    
C24   C38   S    
C34   C46   S    
C7    C43   S    
C9    C10   S    
O16   Zn2   S    
C44   O11   D    
O14   Zn2   S    
C28   C34   S    
C23   I9    S    
O15   Zn1   S    
C12   C32   S    
C2    C6    S    
C9    I4    S    
C12   C47   S    
N2    Zn2   S    
C3    H12   S    
C15   C20   S    
C16   O15   A    
C45   H20   S    
C30   C47   T    
C28   C32   S    
C7    C49   S    
C3    C8    S    
C35   O2    D    
C44   H13   S    
C18   H18   S    
C27   C31   S    
C43   O10   D    
C42   O9    D    
C42   H10   S    
C28   H17   S    
C7    H16   S    
C4    O14   A    
C39   H7    S    
C3    C35   S    
C23   C34   S    
C15   I5    S    
C17   C18   S    
C22   H19   S    
C43   H11   S    
C4    O13   A    
C37   H5    S    
C10   I1    S    
C26   N2    T    
C31   C48   T    
C22   C24   S    
C34   C48   S    
C2    I2    S    
C21   C25   S    
C40   H8    S    
C22   I8    S    
C12   C45   S    
O12   Zn2   S    
C6    C10   S    
C33   H2    S    
O17   Zn1   S    
C29   C46   S    
N1    Zn1   S    
C33   O19   D    
C23   C32   S    
C40   O7    D    
C2    C3    S    
C1    O1    A    
C6    C13   S    
C36   O3    D    
C8    C11   S    
C17   C19   S    
O1    Zn1   S    
C19   C24   S    
C6    C49   S    
C15   C40   S    
C20   C36   S    
O18   Zn2   S    
C20   C21   S    
C1    O12   A    
C35   H3    S    
C17   I6    S    
C1    C14   S    
C13   C14   T    
C4    C30   S    
C32   I10   S    
