data_mof_unit_24417.cif
_audit_creation_date              2012-12-10T17:33:52-0500
_audit_creation_method            fapswitch 2.2
_symmetry_space_group_name_H-M    P1
_symmetry_Int_Tables_number       1
_space_group_crystal_system       triclinic
_cell_length_a                    10.61613
_cell_length_b                    11.966833
_cell_length_c                    12.830294
_cell_angle_alpha                 94.233339
_cell_angle_beta                  90.171873
_cell_angle_gamma                 85.846614
_cell_volume                      1621.25853535

loop_
_atom_site_label
_atom_site_type_symbol
_atom_type_description
_atom_site_fract_x
_atom_site_fract_y
_atom_site_fract_z
_atom_type_partial_charge
C1    C     C_R   0.497598 0.523251 0.700729 0.914312
C2    C     C_3   0.121913 0.498241 0.493970 0.005598
C3    C     C_3   0.064445 0.574836 0.408608 0.423688
C4    C     C_3   0.068452 0.547258 0.601327 -0.537396
C5    C     C_R   0.504103 0.460817 0.187473 -0.165816
C6    C     C_R   0.496599 0.539640 0.812724 -0.162970
C7    C     C_R   0.553986 0.639977 0.973351 -0.312826
C8    C     C_R   0.537059 0.638375 0.865412 0.491230
C9    C     C_R   0.461606 0.450057 0.867060 -0.340184
C10   C     C_R   0.476376 0.452757 0.973451 0.118085
C11   C     C_R   0.523789 0.547949 0.026755 0.129319
C12   C     C_R   0.742258 0.498847 0.495179 0.890054
C13   C     C_R   0.539479 0.550275 0.133140 -0.353274
C14   C     C_R   0.463403 0.362667 0.134333 0.453612
C15   C     C_R   0.447694 0.360165 0.026738 -0.294122
C16   C     C_R   0.372794 0.956320 0.411783 -0.424055
C17   C     C_R   0.386435 0.839001 0.417290 0.629382
C18   C     C_R   0.556462 0.857649 0.537148 -0.175706
C19   C     C_R   0.546784 0.975342 0.532321 0.100092
C20   C     C_R   0.453958 0.024811 0.468247 0.035322
C21   C     C_R   0.444096 0.142263 0.462810 -0.039812
C22   C     C_R   0.612423 0.161418 0.583155 -0.015817
C23   C     C_R   0.502865 0.476810 0.299333 0.921442
C24   C     C_R   0.626270 0.044780 0.590479 -0.324052
C25   C     C_R   0.257864 0.499476 0.497246 0.902505
C26   C     C_3   0.938363 0.373324 0.475095 0.380218
C27   C     C_3   0.081952 0.375107 0.478493 -0.449714
C28   C     C_3   0.921056 0.564869 0.400633 -0.474192
C29   C     C_3   0.923645 0.551091 0.598055 -0.500513
C30   C     C_3   0.878795 0.496871 0.491671 0.041907
H1    H     H_    0.098952 0.633443 0.620803 0.190566
H2    H     H_    0.872667 0.650867 0.406003 0.157770
H3    H     H_    0.074357 0.662706 0.441254 0.143961
H4    H     H_    0.575277 0.623957 0.174270 0.171030
H5    H     H_    0.594139 0.710982 0.015038 0.141719
H6    H     H_    0.412461 0.286465 0.985444 0.150864
H7    H     H_    0.426561 0.376027 0.825957 0.180060
H8    H     H_    0.373851 0.181640 0.413234 0.140103
H9    H     H_    0.909393 0.326531 0.542427 0.064758
H10   H     H_    0.673941 0.215085 0.627727 0.129249
H11   H     H_    0.298472 0.993816 0.365099 0.149978
H12   H     H_    0.698217 0.009414 0.641003 0.142418
H13   H     H_    0.626556 0.818123 0.586711 0.173663
H14   H     H_    0.117097 0.327086 0.545259 0.150177
H15   H     H_    0.125794 0.328593 0.408455 0.185099
H16   H     H_    0.893698 0.524754 0.323932 0.209954
H17   H     H_    0.884580 0.640062 0.609453 0.210858
H18   H     H_    0.888842 0.505767 0.663787 0.182575
H19   H     H_    0.104270 0.494626 0.664672 0.196018
N1    N     N_R   0.523380 0.207800 0.519350 -0.106651
N2    N     N_R   0.476620 0.792180 0.480650 -0.143580
O1    O     O_R   0.506240 0.421700 0.658830 -0.632599
O2    O     O_R   0.491240 0.609310 0.646410 -0.591511
O3    O     O_R   0.692710 0.406190 0.506230 -0.640708
O4    O     O_R   0.677700 0.593810 0.493810 -0.630992
O5    O     O_R   0.508760 0.390690 0.353590 -0.599503
O6    O     O_R   0.493760 0.578300 0.341170 -0.620274
O7    O     O_R   0.322300 0.406190 0.506190 -0.642473
O8    O     O_R   0.307290 0.593810 0.493770 -0.579471
Zn1   Zn    Zn3+2 0.510020 0.374730 0.508290 0.930173
Zn2   Zn    Zn3+2 0.489980 0.625270 0.491710 0.973150
O9    O     O_3   0.901214 0.323661 0.376399 -0.666145
C31   C     C_3   0.866486 0.212117 0.382044 0.115807
H20   H     H_    0.811183 0.190650 0.310629 0.157164
H21   H     H_    0.802788 0.203858 0.449106 0.144085
C32   C     C_3   0.982529 0.128056 0.384502 -0.407654
H22   H     H_    0.045956 0.139042 0.317808 0.228744
H23   H     H_    0.035390 0.143328 0.458383 0.211022
C33   C     C_3   0.944106 0.007239 0.377765 -0.958870
H24   H     H_    0.880017 0.994555 0.443506 0.267594
H25   H     H_    0.029546 0.948540 0.382417 0.272552
H26   H     H_    0.895529 0.987522 0.302536 0.264931
O10   O     O_3   0.428914 0.273050 0.187357 -0.657514
C34   C     C_3   0.528187 0.186921 0.182230 0.102020
H27   H     H_    0.569169 0.181676 0.261656 0.167353
H28   H     H_    0.607329 0.200692 0.128293 0.116965
C35   C     C_3   0.474973 0.074769 0.147761 -0.341967
H29   H     H_    0.396279 0.059221 0.200484 0.227402
H30   H     H_    0.437208 0.078272 0.067071 0.213835
C36   C     C_3   0.576556 0.977932 0.149790 -1.007543
H31   H     H_    0.657746 0.992939 0.099532 0.266721
H32   H     H_    0.537023 0.898663 0.119534 0.251866
H33   H     H_    0.610022 0.968574 0.231048 0.271599
O11   O     O_3   0.577130 0.724275 0.809331 -0.642959
C37   C     C_3   0.507215 0.827543 0.837373 0.074763
H34   H     H_    0.559575 0.895259 0.806647 0.166139
H35   H     H_    0.500230 0.847245 0.923287 0.124560
C38   C     C_3   0.375089 0.831386 0.788191 -0.341857
H36   H     H_    0.383129 0.811197 0.702515 0.250261
H37   H     H_    0.318395 0.768139 0.821687 0.208614
C39   C     C_3   0.306296 0.947401 0.808181 -0.972612
H38   H     H_    0.296386 0.969836 0.893485 0.263136
H39   H     H_    0.210627 0.947181 0.772973 0.267421
H40   H     H_    0.359028 0.011676 0.772161 0.269284
O12   O     O_3   0.302448 0.771457 0.365227 -0.617254
C40   C     C_3   0.321482 0.768016 0.255633 0.145126
H41   H     H_    0.330436 0.678421 0.225901 0.209105
H42   H     H_    0.409503 0.805160 0.231905 0.096943
C41   C     C_3   0.206810 0.823594 0.201999 -0.365699
H43   H     H_    0.120282 0.783470 0.223509 0.261809
H44   H     H_    0.194499 0.914180 0.227851 0.205287
C42   C     C_3   0.222423 0.811837 0.083307 -0.960756
H45   H     H_    0.307295 0.853178 0.060020 0.260153
H46   H     H_    0.138209 0.852583 0.046166 0.269946
H47   H     H_    0.232294 0.721736 0.054532 0.271750
O13   O     O_3   0.127358 0.570992 0.310244 -0.612607
C43   C     C_3   0.144091 0.463255 0.257964 -0.292935
H48   H     H_    0.058806 0.415293 0.259142 0.200207
H49   H     H_    0.227798 0.415897 0.289070 0.182868
H50   H     H_    0.164910 0.473520 0.174687 0.186645

loop_
_geom_bond_atom_site_label_1
_geom_bond_atom_site_label_2
_ccdc_geom_bond_type
C32   H23   S    
C31   H21   S    
C24   H12   S    
O10   C34   S    
C19   C20   A    
N2    Zn2   S    
C17   N2    A    
C6    C9    A    
C7    C8    A    
O3    Zn1   S    
C35   H29   S    
C7    C11   A    
C28   H16   S    
C26   C27   S    
O9    C31   S    
C34   H28   S    
C29   H17   S    
C3    C28   S    
C10   C15   A    
C26   H9    S    
C35   C36   S    
C32   C33   S    
O13   C43   S    
C3    H3    S    
O7    Zn1   S    
C40   C41   S    
C42   H47   S    
C18   C19   A    
C33   H25   S    
C1    O2    A    
O1    Zn1   S    
O2    Zn2   S    
C27   H14   S    
C21   H8    S    
O12   C40   S    
C16   C17   A    
C34   C35   S    
C40   H42   S    
C43   H48   S    
C2    C27   S    
C17   O12   S    
C9    C10   A    
C5    C13   A    
C4    C29   S    
C22   N1    A    
C27   H15   S    
C37   H35   S    
C32   H22   S    
C31   C32   S    
C43   H49   S    
C33   H24   S    
C36   H33   S    
C21   N1    A    
C18   N2    A    
C35   H30   S    
C3    O13   S    
O8    Zn2   S    
C34   H27   S    
C29   H18   S    
C1    C6    S    
C4    H1    S    
C14   O10   S    
C28   H2    S    
O11   C37   S    
C36   H32   S    
C39   H38   S    
C6    C8    A    
C37   H34   S    
O5    Zn1   S    
C33   H26   S    
C2    C4    S    
C29   C30   S    
C39   H39   S    
C41   H43   S    
C5    C23   S    
C38   C39   S    
C16   C20   A    
C22   H10   S    
C40   H41   S    
C9    H7    S    
C20   C21   A    
C42   H46   S    
C23   O5    A    
C5    C14   A    
C41   H44   S    
C38   H37   S    
C26   C30   S    
C43   H50   S    
C22   C24   A    
C25   O7    A    
C15   H6    S    
C37   C38   S    
C23   O6    A    
C12   C30   S    
C8    O11   S    
C7    H5    S    
C36   H31   S    
O6    Zn2   S    
C4    H19   S    
N1    Zn1   S    
C28   C30   S    
C2    C3    S    
C26   O9    S    
C13   H4    S    
C18   H13   S    
C39   H40   S    
C11   C13   A    
O4    Zn2   S    
C19   C24   A    
C2    C25   S    
C42   H45   S    
C1    O1    A    
C12   O4    A    
C10   C11   A    
C31   H20   S    
C41   C42   S    
C38   H36   S    
C14   C15   A    
C25   O8    A    
C16   H11   S    
C12   O3    A    
