data_mof_unit_6676.cif
_audit_creation_date              2012-12-10T21:31:16-0500
_audit_creation_method            fapswitch 2.2
_symmetry_space_group_name_H-M    P1
_symmetry_Int_Tables_number       1
_space_group_crystal_system       triclinic
_cell_length_a                    14.97911
_cell_length_b                    16.10562
_cell_length_c                    16.719786
_cell_angle_alpha                 87.84192
_cell_angle_beta                  90.966032
_cell_angle_gamma                 93.534049
_cell_volume                      4022.65905701

loop_
_atom_site_label
_atom_site_type_symbol
_atom_type_description
_atom_site_fract_x
_atom_site_fract_y
_atom_site_fract_z
_atom_type_partial_charge
C1    C     C_R   0.492654 0.489036 0.653115 0.944291
C2    C     C_R   0.495583 0.511027 0.346394 0.985916
C3    C     C_R   0.945862 0.386244 0.604501 0.173325
C4    C     C_R   0.054777 0.617105 0.403649 0.175031
C5    C     C_R   0.467813 0.481956 0.738051 -0.273276
C6    C     C_R   0.477089 0.519909 0.259723 -0.272478
C7    C     C_R   0.408665 0.537843 0.770632 0.036861
C8    C     C_R   0.405663 0.471876 0.222541 0.029601
C9    C     C_R   0.386218 0.527529 0.852487 0.130086
C10   C     C_R   0.380645 0.493699 0.143076 0.129266
C11   C     C_R   0.435740 0.473044 0.902345 0.087953
C12   C     C_R   0.440684 0.545817 0.096446 0.162466
C13   C     C_R   0.489712 0.415156 0.868990 0.024258
C14   C     C_R   0.512116 0.592057 0.132371 0.012653
C15   C     C_R   0.497949 0.414875 0.785697 0.448525
C16   C     C_R   0.524038 0.584994 0.215791 0.426509
C17   C     C_R   0.450217 0.759933 0.466828 -0.162172
C18   C     C_R   0.555503 0.240484 0.525586 -0.141000
C19   C     C_R   0.451313 0.847569 0.468009 0.415014
C20   C     C_R   0.554078 0.152830 0.524481 0.408219
C21   C     C_R   0.515176 0.890674 0.517950 0.169375
C22   C     C_R   0.482731 0.109065 0.483763 0.174264
C23   C     C_R   0.673318 0.500894 0.499285 0.971659
C24   C     C_R   0.326879 0.499059 0.503321 0.905566
C25   C     C_R   0.576500 0.843377 0.562856 0.005036
C26   C     C_R   0.414866 0.155511 0.447195 -0.001358
C27   C     C_R   0.573370 0.756459 0.556783 -0.108189
C28   C     C_R   0.419804 0.242680 0.451672 -0.114353
C29   C     C_R   0.190130 0.557806 0.457752 -0.355793
C30   C     C_R   0.810046 0.443628 0.548253 -0.351621
C31   C     C_R   0.231307 0.497717 0.504424 -0.181344
C32   C     C_R   0.769020 0.503176 0.500692 -0.193474
C33   C     C_R   0.182148 0.437055 0.550203 0.467676
C34   C     C_R   0.818567 0.565418 0.457010 0.475283
C35   C     C_R   0.089348 0.441178 0.553148 -0.015828
C36   C     C_R   0.911376 0.561964 0.454908 -0.023293
C37   C     C_R   0.046867 0.500851 0.503888 -0.022951
C38   C     C_R   0.953714 0.502140 0.504031 -0.021969
C39   C     C_R   0.097665 0.559266 0.454701 0.113633
C40   C     C_R   0.902765 0.443385 0.552789 0.111118
C41   C     C_R   0.038879 0.387070 0.604712 -0.247894
C42   C     C_R   0.961870 0.616761 0.403954 -0.240825
H1    H     H_    0.231854 0.601836 0.422437 0.181911
H2    H     H_    0.768094 0.398843 0.582542 0.186439
H3    H     H_    0.619479 0.719714 0.591269 0.141974
H4    H     H_    0.368309 0.278642 0.424077 0.140767
H5    H     H_    0.071787 0.344397 0.645353 0.182522
H6    H     H_    0.928979 0.659998 0.363862 0.187484
H7    H     H_    0.610951 0.275094 0.553531 0.168188
H8    H     H_    0.399560 0.725517 0.432562 0.152043
N1    N     N_2   0.434249 0.475492 0.986631 -0.188120
N2    N     N_2   0.434660 0.547102 0.012223 -0.141004
N3    N     N_R   0.511030 0.716920 0.509720 -0.113747
N4    N     N_R   0.488970 0.283080 0.490280 -0.118817
N5    N     N_2   0.519751 0.979474 0.526539 -0.109340
N6    N     N_2   0.478181 0.020463 0.474766 -0.101722
O1    O     O_R   0.496050 0.422540 0.612660 -0.578014
O2    O     O_R   0.503950 0.577460 0.387340 -0.585955
O3    O     O_R   0.503140 0.561840 0.618900 -0.632663
O4    O     O_R   0.496860 0.438160 0.381100 -0.628285
O5    O     O_R   0.628610 0.430340 0.496900 -0.628987
O6    O     O_R   0.371390 0.569660 0.503100 -0.649784
O7    O     O_R   0.635690 0.569650 0.503140 -0.592280
O8    O     O_R   0.364310 0.430350 0.496860 -0.598537
Zn1   Zn    Zn3+2 0.495270 0.406980 0.495830 0.956382
Zn2   Zn    Zn3+2 0.504730 0.593020 0.504170 0.945525
O9    O     O_3   0.626689 0.111378 0.554052 -0.591245
C43   C     C_3   0.634174 0.120050 0.637615 -0.353976
H9    H     H_    0.686035 0.079130 0.661411 0.198213
H10   H     H_    0.570377 0.100283 0.668043 0.158464
H11   H     H_    0.656490 0.184641 0.652860 0.168675
O10   O     O_3   0.384990 0.889719 0.427982 -0.588504
C44   C     C_3   0.389161 0.877615 0.344954 -0.363881
H12   H     H_    0.458550 0.888611 0.322190 0.154060
H13   H     H_    0.347240 0.923102 0.313180 0.190905
H14   H     H_    0.361111 0.814622 0.329802 0.152898
C45   C     C_3   0.644777 0.884135 0.618655 -0.372505
C46   C     C_3   0.602684 0.900791 0.698517 -0.863526
H15   H     H_    0.546588 0.942283 0.689554 0.266461
H16   H     H_    0.577101 0.841289 0.728054 0.256037
H17   H     H_    0.653741 0.931304 0.738414 0.237177
H18   H     H_    0.701268 0.843415 0.630207 0.183562
H19   H     H_    0.673925 0.943095 0.590736 0.245814
C47   C     C_3   0.336857 0.113312 0.403037 -0.379780
C48   C     C_3   0.269242 0.071331 0.461271 -0.798656
H20   H     H_    0.300493 0.023051 0.499614 0.291419
H21   H     H_    0.242508 0.118307 0.499955 0.228209
H22   H     H_    0.212784 0.041038 0.427136 0.243262
H23   H     H_    0.301917 0.159286 0.364538 0.181904
H24   H     H_    0.361303 0.066792 0.362627 0.228271
O11   O     O_3   0.226134 0.378768 0.596727 -0.623610
C49   C     C_3   0.222534 0.302650 0.556963 -0.297807
H25   H     H_    0.156681 0.268131 0.564902 0.151597
H26   H     H_    0.274306 0.263318 0.583760 0.186527
H27   H     H_    0.236371 0.311060 0.491899 0.157021
O12   O     O_3   0.775113 0.624869 0.411495 -0.582448
C50   C     C_3   0.777630 0.699488 0.453680 -0.260495
H28   H     H_    0.729587 0.741369 0.424724 0.189702
H29   H     H_    0.844990 0.732267 0.451408 0.139350
H30   H     H_    0.757753 0.688945 0.517306 0.145630
C51   C     C_3   0.895946 0.323580 0.660231 -0.441356
C52   C     C_3   0.861520 0.246604 0.615790 -0.829389
H31   H     H_    0.812906 0.262900 0.567788 0.269148
H32   H     H_    0.918212 0.216858 0.588763 0.257045
H33   H     H_    0.827846 0.201020 0.658564 0.243486
H34   H     H_    0.940857 0.302829 0.709716 0.201203
H35   H     H_    0.840322 0.352155 0.689998 0.205025
C53   C     C_3   0.104895 0.679477 0.347651 -0.444361
C54   C     C_3   0.143112 0.755058 0.392335 -0.834750
H36   H     H_    0.088072 0.787304 0.419202 0.256553
H37   H     H_    0.190544 0.736726 0.440560 0.266963
H38   H     H_    0.179256 0.799264 0.349811 0.250651
H39   H     H_    0.158518 0.649729 0.316144 0.196245
H40   H     H_    0.059416 0.702199 0.299476 0.205343
C55   C     C_3   0.353855 0.400319 0.266815 -0.369484
C56   C     C_3   0.277408 0.431412 0.314352 -0.838309
H41   H     H_    0.252672 0.382316 0.358247 0.234957
H42   H     H_    0.300894 0.487829 0.346124 0.246444
H43   H     H_    0.220833 0.447778 0.274460 0.252566
H44   H     H_    0.397674 0.363465 0.305690 0.223146
H45   H     H_    0.327875 0.352111 0.225398 0.174347
C57   C     C_3   0.366824 0.605397 0.718194 -0.300306
C58   C     C_3   0.424335 0.687609 0.718043 -0.793095
H46   H     H_    0.494371 0.679047 0.701729 0.270248
H47   H     H_    0.395865 0.733018 0.674565 0.238932
H48   H     H_    0.426842 0.714664 0.777930 0.239015
H49   H     H_    0.355090 0.584833 0.656361 0.212476
H50   H     H_    0.298496 0.617394 0.736582 0.186151
C59   C     C_3   0.287622 0.469459 0.108992 -0.366282
C60   C     C_3   0.230304 0.544747 0.105256 -0.908095
H51   H     H_    0.217290 0.564493 0.166721 0.258599
H52   H     H_    0.264456 0.597788 0.071649 0.266572
H53   H     H_    0.165307 0.528310 0.075158 0.248767
H54   H     H_    0.291169 0.442954 0.049254 0.201206
H55   H     H_    0.249744 0.420392 0.144154 0.206178
C61   C     C_3   0.303528 0.564963 0.885282 -0.346002
C62   C     C_3   0.316729 0.657833 0.902023 -0.847824
H56   H     H_    0.270778 0.673542 0.949752 0.234076
H57   H     H_    0.386440 0.674913 0.921544 0.266493
H58   H     H_    0.299234 0.696486 0.848568 0.247380
H59   H     H_    0.245097 0.553549 0.844607 0.175092
H60   H     H_    0.282275 0.531219 0.941109 0.217312
C63   C     C_3   0.540700 0.354458 0.921938 -0.339295
C64   C     C_3   0.641579 0.375119 0.919474 -0.825954
H61   H     H_    0.667561 0.367765 0.858550 0.284858
H62   H     H_    0.657738 0.439873 0.937623 0.249004
H63   H     H_    0.676017 0.332219 0.961521 0.234163
H64   H     H_    0.520046 0.354189 0.985355 0.206038
H65   H     H_    0.526345 0.289785 0.902978 0.202454
C65   C     C_3   0.576384 0.647466 0.081267 -0.352702
C66   C     C_3   0.639995 0.596534 0.035598 -0.833686
H66   H     H_    0.673782 0.552654 0.077191 0.266758
H67   H     H_    0.603642 0.561277 0.988324 0.271226
H68   H     H_    0.691788 0.638982 0.006192 0.235600
H69   H     H_    0.538083 0.686658 0.038506 0.189084
H70   H     H_    0.618734 0.690741 0.117834 0.235495
O13   O     O_3   0.542072 0.352340 0.751475 -0.600494
C67   C     C_3   0.478681 0.286107 0.735198 -0.287059
H71   H     H_    0.512320 0.238397 0.702848 0.170757
H72   H     H_    0.422405 0.306617 0.696457 0.189096
H73   H     H_    0.451037 0.255820 0.790940 0.131756
O14   O     O_3   0.587768 0.636296 0.253846 -0.567146
C68   C     C_3   0.549971 0.712587 0.268626 -0.260980
H74   H     H_    0.595233 0.748177 0.309905 0.190487
H75   H     H_    0.483521 0.703569 0.297574 0.148225
H76   H     H_    0.542826 0.751232 0.212781 0.119478

loop_
_geom_bond_atom_site_label_1
_geom_bond_atom_site_label_2
_ccdc_geom_bond_type
C51   H35   S    
C38   C40   A    
N5    N6    D    
O13   C67   S    
C55   H45   S    
C44   H12   S    
C20   O9    S    
C36   C42   A    
C68   H74   S    
C50   H28   S    
C58   H46   S    
N4    Zn1   S    
C45   C46   S    
C53   C54   S    
C62   H57   S    
C28   H4    S    
C51   C52   S    
C25   C45   S    
C68   H75   S    
C34   O12   S    
C59   C60   S    
C1    O3    A    
O3    Zn2   S    
C2    O4    A    
C58   H47   S    
C45   H19   S    
C55   C56   S    
C51   H34   S    
C56   H41   S    
C52   H33   S    
C66   H68   S    
C53   H40   S    
C57   H49   S    
C61   H60   S    
C67   H73   S    
C50   H29   S    
C59   H55   S    
O2    Zn2   S    
C43   H9    S    
C24   O6    A    
C66   H66   S    
C31   C33   A    
C13   C63   S    
C18   C20   A    
C8    C55   S    
C27   H3    S    
C23   O7    A    
O7    Zn2   S    
C24   O8    A    
C65   H70   S    
C27   N3    A    
C29   H1    S    
C67   H72   S    
C44   H13   S    
C30   H2    S    
C19   O10   S    
C2    C6    S    
C47   H24   S    
C64   H63   S    
C12   N2    S    
C48   H21   S    
C63   H64   S    
C62   H58   S    
C5    C15   A    
O6    Zn2   S    
O9    C43   S    
C68   H76   S    
C47   C48   S    
C64   H62   S    
C54   H38   S    
O1    Zn1   S    
O11   C49   S    
C5    C7    A    
C28   N4    A    
C46   H15   S    
C64   H61   S    
C58   H48   S    
C22   N6    S    
C16   O14   S    
C48   H20   S    
C49   H27   S    
N1    N2    D    
C32   C34   A    
C53   H39   S    
C60   H52   S    
C37   C38   A    
C1    O1    A    
C4    C53   S    
C4    C39   A    
C23   O5    A    
C29   C31   A    
O12   C50   S    
C14   C65   S    
C49   H26   S    
C41   H5    S    
C46   H16   S    
C30   C40   A    
C42   H6    S    
C52   H32   S    
N3    Zn2   S    
C9    C11   A    
C10   C12   A    
C43   H10   S    
C12   C14   A    
O4    Zn1   S    
C65   H69   S    
C13   C15   A    
C67   H71   S    
C44   H14   S    
C14   C16   A    
C60   H53   S    
C47   H23   S    
C7    C57   S    
C17   C19   A    
C17   N3    A    
C1    C5    S    
C50   H30   S    
C21   N5    S    
O14   C68   S    
C48   H22   S    
C29   C39   A    
C7    C9    A    
C21   C25   A    
C3    C41   A    
C26   C47   S    
C35   C37   A    
C20   C22   A    
O10   C44   S    
C17   H8    S    
C3    C40   A    
C6    C8    A    
C2    O2    A    
C15   O13   S    
C25   C27   A    
C62   H56   S    
C26   C28   A    
C56   H43   S    
C23   C32   S    
C36   C38   A    
C60   H51   S    
C10   C59   S    
C37   C39   A    
C54   H36   S    
O8    Zn1   S    
C30   C32   A    
C11   C13   A    
C46   H17   S    
C3    C51   S    
C4    C42   A    
C45   H18   S    
C43   H11   S    
C54   H37   S    
C49   H25   S    
C33   C35   A    
C61   H59   S    
C56   H42   S    
C34   C36   A    
C66   H67   S    
C57   H50   S    
C52   H31   S    
C35   C41   A    
C24   C31   S    
C11   N1    S    
C18   N4    A    
C6    C16   A    
C59   H54   S    
C9    C61   S    
O5    Zn1   S    
C63   H65   S    
C8    C10   A    
C55   H44   S    
C22   C26   A    
C65   C66   S    
C61   C62   S    
C57   C58   S    
C63   C64   S    
C18   H7    S    
C19   C21   A    
C33   O11   S    
