data_mof_unit_66874.cif
_audit_creation_date              2013-03-05T15:57:22-0500
_audit_creation_method            fapswitch 2.2
_symmetry_space_group_name_H-M    P1
_symmetry_Int_Tables_number       1
_space_group_crystal_system       triclinic
_cell_length_a                    17.461176
_cell_length_b                    18.818831
_cell_length_c                    8.450617
_cell_angle_alpha                 90.000654
_cell_angle_beta                  101.278431
_cell_angle_gamma                 89.991709
_cell_volume                      2723.23778233

loop_
_atom_site_label
_atom_site_type_symbol
_atom_site_description
_atom_site_fract_x
_atom_site_fract_y
_atom_site_fract_z
_atom_type_partial_charge
P1    P     P_3+3 0.834140 0.419320 0.003900 0.953531
P2    P     P_3+3 0.834140 0.580680 0.503900 0.955791
P3    P     P_3+3 0.334140 0.919320 0.003900 0.955743
P4    P     P_3+3 0.334140 0.080680 0.503900 0.953473
O1    O     O_2   0.841960 0.394640 0.833410 -0.479311
O2    O     O_2   0.841960 0.605360 0.333410 -0.469803
O3    O     O_2   0.341960 0.894640 0.833410 -0.470002
O4    O     O_2   0.341960 0.105360 0.333410 -0.479402
O5    O     O_3   0.907950 0.463080 0.102990 -0.508297
O6    O     O_3   0.907950 0.536920 0.602990 -0.513464
O7    O     O_3   0.407950 0.963080 0.102990 -0.513188
O8    O     O_3   0.407950 0.036920 0.602990 -0.508300
O9    O     O_3   0.972780 0.329600 0.629720 -0.489920
O10   O     O_3   0.972780 0.670400 0.129720 -0.477463
O11   O     O_3   0.472780 0.829600 0.629720 -0.477450
O12   O     O_3   0.472780 0.170400 0.129720 -0.489865
O13   O     O_2   0.845699 0.264809 0.694988 -0.488071
O14   O     O_2   0.841476 0.726604 0.190550 -0.490355
O15   O     O_2   0.341490 0.773392 0.690603 -0.490403
O16   O     O_2   0.345687 0.235252 0.194810 -0.488121
O17   O     O_3   0.752932 0.475405 0.966923 -0.648975
O18   O     O_3   0.752327 0.525853 0.465902 -0.644501
O19   O     O_3   0.252306 0.974167 0.966119 -0.645169
O20   O     O_3   0.252928 0.024621 0.466948 -0.648976
O21   O     O_3   0.945690 0.184947 0.590321 -0.562030
O22   O     O_3   0.941303 0.815523 0.119528 -0.596551
O23   O     O_3   0.441336 0.684498 0.619478 -0.596540
O24   O     O_3   0.445735 0.315072 0.090255 -0.562101
H1    H     H_    0.060859 0.215649 0.656169 0.072750
H2    H     H_    0.056872 0.801044 0.102599 0.039791
H3    H     H_    0.556873 0.698940 0.602275 0.039667
H4    H     H_    0.560888 0.284329 0.156367 0.072859
C1    C     C_3   0.049397 0.122428 0.507452 -0.369472
C2    C     C_3   0.012323 0.902990 0.009053 -0.331415
C3    C     C_3   0.512249 0.597038 0.508671 -0.331436
C4    C     C_3   0.549534 0.377549 0.007652 -0.369464
H5    H     H_    0.539653 0.571458 0.621859 0.135248
H6    H     H_    0.612573 0.374711 0.012531 0.057649
H7    H     H_    0.112384 0.125268 0.511890 0.057763
H8    H     H_    0.039588 0.928535 0.122366 0.135241
H9    H     H_    0.037368 0.081025 0.591936 0.196677
H10   H     H_    0.954258 0.927969 0.972640 0.193000
H11   H     H_    0.454163 0.572083 0.472479 0.192949
H12   H     H_    0.537369 0.418976 0.091972 0.196800
P5    P     P_3+3 0.165830 0.418670 0.685610 0.954292
P6    P     P_3+3 0.165830 0.581330 0.185610 0.961884
P7    P     P_3+3 0.665830 0.918670 0.685610 0.961917
P8    P     P_3+3 0.665830 0.081330 0.185610 0.954316
P9    P     P_3+3 0.091437 0.259734 0.113725 0.925022
P10   P     P_3+3 0.095576 0.737220 0.614655 0.933563
P11   P     P_3+3 0.595588 0.762778 0.114656 0.933515
P12   P     P_3+3 0.591444 0.240263 0.613677 0.924540
O25   O     O_2   0.157990 0.394030 0.856030 -0.478921
O26   O     O_2   0.157990 0.605970 0.356030 -0.485364
O27   O     O_2   0.657990 0.894030 0.856030 -0.485288
O28   O     O_2   0.657990 0.105970 0.356030 -0.478905
O29   O     O_3   0.027110 0.329490 0.059550 -0.496112
O30   O     O_3   0.027110 0.670510 0.559550 -0.492841
O31   O     O_3   0.527110 0.829490 0.059550 -0.492872
O32   O     O_3   0.527110 0.170510 0.559550 -0.496069
O33   O     O_2   0.145652 0.260260 0.988680 -0.485782
O34   O     O_2   0.149132 0.736358 0.488641 -0.472462
O35   O     O_2   0.649142 0.763635 0.988637 -0.472403
O36   O     O_2   0.645585 0.239763 0.488487 -0.486327
O37   O     O_3   0.247868 0.474125 0.730515 -0.635996
O38   O     O_3   0.246638 0.525363 0.229662 -0.638306
O39   O     O_3   0.746621 0.974627 0.729835 -0.638359
O40   O     O_3   0.747861 0.025845 0.230560 -0.635973
O41   O     O_3   0.037236 0.180913 0.073750 -0.601883
O42   O     O_3   0.045644 0.818288 0.581380 -0.613521
O43   O     O_3   0.545681 0.681709 0.081408 -0.613603
O44   O     O_3   0.537235 0.319097 0.573836 -0.601874
C5    C     C_3   0.957807 0.198087 0.059258 0.446605
C6    C     C_3   0.965522 0.804345 0.534158 0.425526
C7    C     C_3   0.465562 0.695656 0.034036 0.425484
C8    C     C_3   0.457805 0.301903 0.558976 0.446769
H13   H     H_    0.939177 0.234464 0.955559 0.081568
H14   H     H_    0.954197 0.778126 0.414588 0.095532
H15   H     H_    0.454288 0.721889 0.914479 0.095626
H16   H     H_    0.439273 0.265605 0.455108 0.081709
H17   H     H_    0.947866 0.223558 0.171454 -0.117965
H18   H     H_    0.945003 0.769342 0.622366 -0.082826
H19   H     H_    0.444987 0.730650 0.122205 -0.082725
H20   H     H_    0.447794 0.276350 0.671012 -0.117680
C9    C     C_3   0.905728 0.132612 0.026908 0.178567
C10   C     C_3   0.917947 0.872758 0.521500 0.207307
C11   C     C_3   0.418002 0.627244 0.021233 0.207214
C12   C     C_3   0.405717 0.367383 0.526788 0.178277
H21   H     H_    0.358203 0.639660 0.955003 -0.020812
H22   H     H_    0.344677 0.349103 0.489452 -0.017548
H23   H     H_    0.844703 0.150935 0.989619 -0.017842
H24   H     H_    0.858127 0.860363 0.455375 -0.021002
C13   C     C_3   0.228131 0.463346 0.305745 0.281317
C14   C     C_3   0.227350 0.544977 0.754541 0.296596
C15   C     C_3   0.727331 0.955000 0.254570 0.296661
C16   C     C_3   0.727978 0.036750 0.805472 0.281944
H25   H     H_    0.272225 0.456202 0.417468 0.039429
H26   H     H_    0.244681 0.557523 0.884819 0.014135
H27   H     H_    0.744659 0.942446 0.384846 0.013950
H28   H     H_    0.771840 0.043855 0.917677 0.038904
H29   H     H_    0.170547 0.464334 0.343164 0.020781
H30   H     H_    0.164452 0.557415 0.716492 0.046654
H31   H     H_    0.664433 0.942584 0.216526 0.046664
H32   H     H_    0.670163 0.035927 0.842138 0.020770
C17   C     C_3   0.232221 0.401120 0.194312 -0.297064
C18   C     C_3   0.272039 0.592959 0.659898 -0.350341
C19   C     C_3   0.772010 0.907002 0.159911 -0.350127
C20   C     C_3   0.732547 0.098913 0.693971 -0.298091
H33   H     H_    0.257115 0.353555 0.261727 0.073766
H34   H     H_    0.334247 0.594283 0.712614 0.157137
H35   H     H_    0.834198 0.905572 0.212738 0.157124
H36   H     H_    0.758168 0.146358 0.761216 0.075401
H37   H     H_    0.171999 0.389182 0.133627 0.135471
H38   H     H_    0.249102 0.647886 0.655582 0.101502
H39   H     H_    0.749007 0.852110 0.155445 0.101464
H40   H     H_    0.672349 0.111473 0.633736 0.135073
H41   H     H_    0.268767 0.413655 0.104028 0.175766
H42   H     H_    0.269629 0.571603 0.537893 0.141878
H43   H     H_    0.769667 0.928396 0.037956 0.142012
H44   H     H_    0.768737 0.085900 0.603279 0.176039
Ba1   Ba    Ba6+2 1.000000 0.447380 0.844850 1.628389
Ba2   Ba    Ba6+2 0.000000 0.552620 0.344850 1.620271
Ba3   Ba    Ba6+2 0.500000 0.947380 0.844850 1.620369
Ba4   Ba    Ba6+2 0.500000 0.052620 0.344850 1.628232
C21   C     C_3   0.765194 0.530861 0.864621 0.433854
C22   C     C_3   0.765530 0.467509 0.372924 0.437128
C23   C     C_3   0.265359 0.032366 0.872619 0.436965
C24   C     C_3   0.265175 0.969165 0.364631 0.433849
H45   H     H_    0.793764 0.512257 0.766738 0.051838
H46   H     H_    0.798216 0.481888 0.278001 0.040047
H47   H     H_    0.297765 0.017780 0.777348 0.040651
H48   H     H_    0.293703 0.987772 0.266700 0.052111
C25   C     C_3   0.686065 0.561286 0.786158 -0.100092
C26   C     C_3   0.686984 0.438102 0.292010 -0.079282
C27   C     C_3   0.186746 0.061799 0.792107 -0.079476
C28   C     C_3   0.186041 0.938742 0.286285 -0.099987
H49   H     H_    0.645638 0.516445 0.744847 0.117218
H50   H     H_    0.656312 0.477276 0.203024 0.101873
H51   H     H_    0.155552 0.022334 0.704735 0.102126
H52   H     H_    0.145618 0.983581 0.244894 0.116414
H53   H     H_    0.691627 0.593758 0.679629 0.067308
H54   H     H_    0.697934 0.388623 0.229620 0.053902
H55   H     H_    0.197721 0.110742 0.728078 0.054289
H56   H     H_    0.191591 0.906212 0.179838 0.067254
O45   O     O_3   0.092100 0.536880 0.086720 -0.489704
O46   O     O_3   0.092100 0.463120 0.586720 -0.502325
O47   O     O_3   0.592100 0.036880 0.086720 -0.502309
O48   O     O_3   0.592100 0.963120 0.586720 -0.489664
P13   P     P_3+3 0.897889 0.733094 0.071170 0.941688
P14   P     P_3+3 0.898408 0.266612 0.567476 0.969423
P15   P     P_3+3 0.398439 0.233422 0.067376 0.969331
P16   P     P_3+3 0.397885 0.766923 0.571179 0.941703
C29   C     C_3   0.019533 0.193706 0.550483 0.346390
C30   C     C_3   0.001879 0.824135 0.033278 0.301101
C31   C     C_3   0.501846 0.675885 0.533045 0.301232
C32   C     C_3   0.519616 0.306282 0.050595 0.346445
H57   H     H_    0.017750 0.228931 0.444266 -0.051721
H58   H     H_    0.989452 0.798952 0.911822 -0.033812
H59   H     H_    0.489363 0.701097 0.411616 -0.033885
H60   H     H_    0.517876 0.271057 0.944387 -0.051789
H61   H     H_    0.548086 0.587217 0.416395 0.111900
H62   H     H_    0.522953 0.392141 0.883295 0.180603
H63   H     H_    0.022689 0.107810 0.383225 0.180664
H64   H     H_    0.048303 0.912848 0.917048 0.112199
C33   C     C_R   0.141043 0.674860 0.921792 -0.303386
C34   C     C_R   0.136806 0.322516 0.423648 -0.299559
C35   C     C_R   0.636927 0.177431 0.923549 -0.299726
C36   C     C_R   0.641042 0.825154 0.421780 -0.303377
C37   C     C_R   0.858887 0.322440 0.255015 -0.265377
C38   C     C_R   0.862391 0.680462 0.752966 -0.248270
C39   C     C_R   0.362386 0.819524 0.252958 -0.248295
C40   C     C_R   0.358996 0.177646 0.754831 -0.264878
C41   C     C_R   0.784741 0.218306 0.298876 -0.097082
C42   C     C_R   0.784118 0.781094 0.801623 -0.088006
C43   C     C_R   0.284113 0.718912 0.301641 -0.088060
C44   C     C_R   0.284744 0.281707 0.798816 -0.096867
C45   C     C_R   0.841754 0.269648 0.357265 0.033450
C46   C     C_R   0.843653 0.731792 0.857771 0.022717
C47   C     C_R   0.343641 0.768212 0.357781 0.022755
C48   C     C_R   0.341819 0.230402 0.857141 0.033359
C49   C     C_R   0.813004 0.333303 0.102686 0.069643
C50   C     C_R   0.814315 0.667535 0.603377 0.080696
C51   C     C_R   0.314314 0.832458 0.103368 0.080794
C52   C     C_R   0.313022 0.166713 0.602631 0.069959
C53   C     C_R   0.751462 0.282406 0.041200 -0.037602
C54   C     C_R   0.752241 0.718043 0.543373 -0.036351
C55   C     C_R   0.252237 0.781957 0.043372 -0.036320
C56   C     C_R   0.251427 0.217575 0.541198 -0.037678
C57   C     C_R   0.240498 0.721518 0.141939 -0.082397
C58   C     C_R   0.239738 0.278093 0.640159 -0.088499
C59   C     C_R   0.739769 0.221896 0.140176 -0.088497
C60   C     C_R   0.740502 0.778486 0.641929 -0.082350
C61   C     C_R   0.183842 0.667182 0.079065 0.057591
C62   C     C_R   0.182265 0.331955 0.578607 0.044343
C63   C     C_R   0.682324 0.168022 0.078581 0.044292
C64   C     C_R   0.683846 0.832826 0.579052 0.057531
C65   C     C_R   0.151500 0.732806 0.825684 -0.012982
C66   C     C_R   0.147779 0.264876 0.325887 -0.016834
C67   C     C_R   0.647893 0.235060 0.825785 -0.017002
C68   C     C_R   0.651505 0.767203 0.325680 -0.013000
C69   C     C_R   0.202151 0.788435 0.889402 0.090614
C70   C     C_R   0.201686 0.211307 0.386026 0.091594
C71   C     C_R   0.701741 0.288653 0.885999 0.091705
C72   C     C_R   0.702157 0.711568 0.389406 0.090602
H65   H     H_    0.275020 0.677120 0.382452 0.104594
H66   H     H_    0.276940 0.324535 0.878814 0.115405
H67   H     H_    0.776955 0.175467 0.378854 0.115359
H68   H     H_    0.775025 0.822893 0.882425 0.104571
H69   H     H_    0.099128 0.634481 0.871927 0.060457
H70   H     H_    0.093332 0.361883 0.375420 0.065770
H71   H     H_    0.593423 0.138099 0.875345 0.065716
H72   H     H_    0.599121 0.865537 0.371914 0.060485
H73   H     H_    0.906389 0.358606 0.299658 0.052622
H74   H     H_    0.911661 0.645849 0.794945 0.052274
H75   H     H_    0.411657 0.854124 0.294927 0.052237
H76   H     H_    0.406591 0.141543 0.799356 0.052562
N1    N     N_3   0.811883 0.585970 0.957034 -0.513729
H77   H     H_    0.870575 0.571549 0.980421 0.184872
H78   H     H_    0.793539 0.591714 0.065634 0.229081
N2    N     N_3   0.806585 0.412532 0.475531 -0.525313
H79   H     H_    0.865418 0.425246 0.509887 0.193787
H80   H     H_    0.781991 0.410560 0.576822 0.224945
N3    N     N_3   0.306726 0.087405 0.974581 -0.525087
H81   H     H_    0.365624 0.074652 0.008198 0.193102
H82   H     H_    0.282501 0.089632 0.076385 0.225097
N4    N     N_3   0.311902 0.914056 0.456994 -0.513818
H83   H     H_    0.370586 0.928478 0.480312 0.184821
H84   H     H_    0.293592 0.908303 0.565621 0.229056
N5    N     N_3   0.655391 0.605898 0.900259 -0.475103
H85   H     H_    0.638787 0.573078 0.987367 0.231922
H86   H     H_    0.606064 0.632545 0.839240 0.234533
N6    N     N_3   0.640093 0.421281 0.412345 -0.472348
H87   H     H_    0.610441 0.467238 0.435649 0.224087
H88   H     H_    0.598522 0.383691 0.362053 0.241049
N7    N     N_3   0.140505 0.079783 0.912711 -0.472982
H89   H     H_    0.111442 0.034137 0.939356 0.224139
H90   H     H_    0.098445 0.116734 0.861375 0.241004
N8    N     N_3   0.155379 0.894217 0.400521 -0.475164
H91   H     H_    0.138729 0.927094 0.487467 0.231884
H92   H     H_    0.106084 0.867520 0.339581 0.234572
N9    N     N_3   0.412822 0.599864 0.178731 -0.467750
H93   H     H_    0.386919 0.637923 0.239647 0.131166
H94   H     H_    0.373514 0.557623 0.159454 0.254132
N10   N     N_3   0.411732 0.411172 0.670002 -0.463543
H95   H     H_    0.386081 0.384195 0.754235 0.181710
H96   H     H_    0.378054 0.456642 0.638022 0.238015
N11   N     N_3   0.911662 0.088771 0.170014 -0.463726
H97   H     H_    0.885986 0.115743 0.254240 0.181724
H98   H     H_    0.877947 0.043337 0.137876 0.238061
N12   N     N_3   0.912856 0.900118 0.679062 -0.467653
H99   H     H_    0.886987 0.862060 0.740015 0.131112
H100  H     H_    0.873549 0.942369 0.659905 0.254127
N13   N     N_3   0.702543 0.350689 0.789355 -0.451235
H101  H     H_    0.648030 0.375387 0.769956 0.193633
H102  H     H_    0.713737 0.334863 0.678089 0.220263
N14   N     N_3   0.699224 0.647240 0.299347 -0.454209
H103  H     H_    0.644101 0.624400 0.288661 0.188984
H104  H     H_    0.710005 0.658657 0.185141 0.226252
N15   N     N_3   0.199221 0.852759 0.799329 -0.454366
H105  H     H_    0.144088 0.875600 0.788596 0.188976
H106  H     H_    0.210017 0.841328 0.685139 0.226314
N16   N     N_3   0.202558 0.149288 0.289320 -0.451320
H107  H     H_    0.148056 0.124586 0.269741 0.193462
H108  H     H_    0.213873 0.165087 0.178127 0.220670
I1    I     I_    0.934616 0.070001 0.838421 -0.497550
I2    I     I_    0.970186 0.954045 0.405399 -0.529838
I3    I     I_    0.470336 0.545965 0.905216 -0.529899
I4    I     I_    0.434517 0.430014 0.338303 -0.497620

loop_
_geom_bond_atom_site_label_1
_geom_bond_atom_site_label_2
_geom_bond_distance
_ccdc_geom_bond_type
C10   N12   1.446423 S    
C5    H13   1.109438 S    
C42   H68   1.073565 S    
P1    O17   1.746018 S    
O23   P16   1.739769 S    
O10   Ba2   2.847027 S    
C28   N8    1.457050 S    
C20   H44   1.111786 S    
P3    O19   1.740747 S    
O13   P14   1.548299 D    
C2    H10   1.105189 S    
C20   H40   1.100218 S    
C28   H52   1.111686 S    
O6    Ba1   2.883481 S    
C39   C47   1.392045 A    
C8    H20   1.105863 S    
N2    H80   1.030669 S    
C9    H23   1.105522 S    
Ba3   Ba4   4.666452 S    
C25   H49   1.111768 S    
Ba4   O48   2.883457 S    
C3    H61   1.106637 S    
C7    H15   1.106992 S    
O11   Ba3   2.847101 S    
C18   H38   1.106505 S    
P1    O1    1.545000 D    
N3    H82   1.031089 S    
O28   Ba4   2.919954 S    
P7    O48   1.623085 S    
C17   H37   1.099249 S    
C1    H63   1.097169 S    
C3    C31   1.513832 S    
O9    P14   1.761093 S    
P6    O38   1.741529 S    
P3    O3    1.545000 D    
C24   C28   1.522422 S    
C29   H57   1.111379 S    
C50   C54   1.456066 A    
N13   H101  1.042950 S    
C72   N14   1.425517 S    
C1    C29   1.509094 S    
O18   C22   1.395285 S    
P6    O45   1.623267 S    
C12   N10   1.450878 S    
C14   H26   1.108635 S    
N12   H100  1.042060 S    
P8    O47   1.623267 S    
O1    Ba1   2.916513 S    
P9    O29   1.730020 S    
N10   H95   1.043939 S    
P4    Ba4   3.463375 S    
C56   C58   1.450778 A    
N9    H93   1.036111 S    
P2    C50   1.900471 S    
Ba2   O45   2.967204 S    
C44   H66   1.077561 S    
P4    O4    1.545023 D    
O32   Ba4   2.846432 S    
C57   C61   1.449575 A    
C36   H72   1.081722 S    
N2    H79   1.039365 S    
P12   O32   1.730212 S    
C13   C17   1.513075 S    
H4    C32   1.112178 S    
C44   C58   1.416935 A    
C33   H69   1.081727 S    
N3    H81   1.040008 S    
C15   H31   1.107306 S    
N14   H104  1.041216 S    
P2    O18   1.740528 S    
P2    Ba2   3.463375 S    
N7    H89   1.044481 S    
O41   C5    1.405858 S    
P13   C46   1.865878 S    
C26   N6    1.459611 S    
P4    O8    1.618012 S    
O14   P13   1.546515 D    
C3    H11   1.105243 S    
C8    C12   1.524010 S    
C40   H76   1.082298 S    
C36   C64   1.399032 A    
C4    H12   1.104447 S    
O44   C8    1.405739 S    
C39   H75   1.082007 S    
C40   C48   1.387245 A    
C2    C30   1.513935 S    
C16   C20   1.513980 S    
P5    O25   1.544327 D    
P9    O41   1.756524 S    
C42   C46   1.404778 A    
C38   C50   1.395294 A    
C67   C71   1.404752 A    
N7    H90   1.042282 S    
C17   H41   1.111503 S    
P2    O2    1.545023 D    
C19   H35   1.090644 S    
C6    H18   1.105658 S    
C24   H48   1.103153 S    
P7    O39   1.741515 S    
O11   P16   1.758853 S    
P10   C65   1.859976 S    
P3    Ba3   3.463507 S    
C53   C59   1.450806 A    
C59   C63   1.449483 A    
P9    C66   1.871300 S    
N11   H98   1.043537 S    
P8    Ba4   3.465804 S    
O31   Ba3   2.846358 S    
Ba4   O47   2.967204 S    
N8    H92   1.041748 S    
O30   Ba2   2.846432 S    
O40   C15   1.405619 S    
P9    O33   1.550539 D    
O21   C29   1.404585 S    
P5    O46   1.623085 S    
P10   O30   1.733431 S    
C9    I1    2.119894 S    
P7    C64   1.905310 S    
C32   H60   1.111413 S    
P11   O35   1.548653 D    
C43   C57   1.414823 A    
P12   O36   1.550565 D    
C13   H29   1.111618 S    
N13   H102  1.040616 S    
C22   H46   1.105230 S    
C49   C53   1.457423 A    
O4    Ba4   2.916242 S    
C43   C47   1.404844 A    
C23   C27   1.512753 S    
P5    Ba1   3.465668 S    
N12   H99   1.036061 S    
C31   H59   1.112700 S    
C41   C59   1.416982 A    
C24   N4    1.449542 S    
P4    C52   1.890376 S    
C20   H36   1.104963 S    
O21   P14   1.737243 S    
N9    H94   1.042097 S    
P14   C45   1.857448 S    
C27   H51   1.111855 S    
C69   N15   1.425517 S    
O42   C6    1.402526 S    
N5    H85   1.044472 S    
P12   O44   1.756486 S    
C9    N11   1.450826 S    
C33   C65   1.392910 A    
C27   H55   1.103833 S    
C26   H54   1.104956 S    
C11   N9    1.446456 S    
O9    Ba1   2.847101 S    
C40   C52   1.391833 A    
C44   C48   1.405678 A    
P7    Ba3   3.465668 S    
C60   C64   1.449446 A    
C41   C45   1.405774 A    
C68   C72   1.407777 A    
C19   H39   1.106366 S    
N14   H103  1.041846 S    
P6    O26   1.544306 D    
N6    H88   1.042798 S    
O15   P16   1.546510 D    
P1    O5    1.618192 S    
C34   C66   1.399168 A    
C41   H67   1.077567 S    
P12   C67   1.871600 S    
C1    H7    1.094431 S    
C6    C10   1.524459 S    
C65   C69   1.407857 A    
C37   C49   1.391868 A    
Ba1   Ba2   4.666452 S    
C2    H64   1.106682 S    
C15   C19   1.519299 S    
C5    H17   1.105972 S    
O38   C13   1.400466 S    
C66   C70   1.404720 A    
C70   N16   1.426562 S    
C7    C11   1.524470 S    
O37   C14   1.405608 S    
C12   I4    2.119591 S    
Ba3   O47   2.883701 S    
N4    H83   1.040954 S    
H2    C30   1.110814 S    
N4    H84   1.035086 S    
C37   C45   1.387204 A    
P8    C63   1.914326 S    
P5    O37   1.752972 S    
O39   C16   1.400895 S    
P10   O34   1.548645 D    
Ba1   O45   2.883701 S    
C2    H8    1.093805 S    
O22   C30   1.406378 S    
C34   C62   1.403519 A    
O2    Ba2   2.916242 S    
O24   C32   1.404619 S    
O5    Ba2   2.883726 S    
N15   H105  1.041861 S    
P2    O6    1.618012 S    
O27   Ba3   2.919682 S    
C13   H25   1.103587 S    
C54   C72   1.423901 A    
C4    C32   1.509201 S    
P6    C61   1.905468 S    
P7    O27   1.544327 D    
C18   H34   1.090740 S    
C21   C25   1.522497 S    
P5    C62   1.914241 S    
P8    O28   1.544306 D    
C17   H33   1.103527 S    
N8    H91   1.044362 S    
C14   C18   1.519299 S    
P1    C49   1.890529 S    
C22   N2    1.446658 S    
P1    Ba1   3.463507 S    
C3    H5    1.093862 S    
C39   C51   1.395253 A    
C35   C63   1.403523 A    
O22   P13   1.739846 S    
C35   C67   1.399036 A    
C8    H16   1.109374 S    
C27   N7    1.458414 S    
C12   H22   1.105648 S    
N15   H106  1.041219 S    
C25   N5    1.457150 S    
C33   C61   1.399009 A    
C26   H50   1.112723 S    
H3    C31   1.110834 S    
N11   H97   1.044027 S    
P11   O43   1.752291 S    
C30   H58   1.112669 S    
N16   H107  1.042919 S    
C38   H74   1.082007 S    
C23   N3    1.446984 S    
N1    H78   1.035133 S    
C43   H65   1.073578 S    
C37   H73   1.082255 S    
C55   C69   1.423919 A    
O19   C23   1.395106 S    
C25   H53   1.107935 S    
C19   H43   1.099722 S    
O16   P15   1.548331 D    
P8    O40   1.752981 S    
C1    H9    1.104374 S    
C53   C71   1.429092 A    
P16   C47   1.865915 S    
C16   H32   1.112544 S    
N1    H77   1.040994 S    
H1    C29   1.112156 S    
C35   H71   1.081645 S    
C5    C9    1.524132 S    
C28   H56   1.107881 S    
C10   H24   1.108810 S    
C42   C60   1.414784 A    
C34   H70   1.081666 S    
O43   C7    1.402531 S    
C7    H19   1.105682 S    
P15   C48   1.857421 S    
P10   O42   1.752269 S    
O8    Ba3   2.883481 S    
P3    C51   1.900647 S    
C4    H62   1.097444 S    
P4    O20   1.746013 S    
C16   H28   1.104308 S    
O10   P13   1.758790 S    
C4    H6    1.094708 S    
N6    H87   1.046225 S    
N10   H96   1.043434 S    
O12   P15   1.761028 S    
C15   H27   1.108630 S    
Ba2   O46   2.883457 S    
C54   C60   1.447809 A    
C36   C68   1.392911 A    
C23   H47   1.105378 S    
C55   C57   1.447877 A    
P3    O7    1.618192 S    
P11   C68   1.859920 S    
C58   C62   1.449353 A    
O29   Ba1   2.846358 S    
C52   C56   1.457299 A    
O26   Ba2   2.919954 S    
N16   H108  1.040673 S    
P11   O31   1.733344 S    
Ba3   O48   2.967255 S    
C22   C26   1.512684 S    
O24   P15   1.737318 S    
N5    H86   1.041807 S    
C21   H45   1.103170 S    
C6    H14   1.106979 S    
C11   I3    2.117997 S    
O20   C24   1.398113 S    
C11   H21   1.108805 S    
C10   I2    2.117838 S    
Ba1   O46   2.967255 S    
P6    Ba2   3.465804 S    
C56   C70   1.429097 A    
O25   Ba1   2.919682 S    
O7    Ba4   2.883726 S    
C38   C46   1.392051 A    
O12   Ba4   2.847027 S    
O17   C21   1.398160 S    
C18   H42   1.099689 S    
C51   C55   1.456196 A    
C14   H30   1.107322 S    
O3    Ba3   2.916513 S    
C71   N13   1.426408 S    
O23   C31   1.406391 S    
C21   N1    1.449573 S    
