data_mof_unit_51152.cif
_audit_creation_date              2013-03-05T15:50:58-0500
_audit_creation_method            fapswitch 2.2
_symmetry_space_group_name_H-M    P1
_symmetry_Int_Tables_number       1
_space_group_crystal_system       triclinic
_cell_length_a                    11.67993
_cell_length_b                    10.844219
_cell_length_c                    9.653977
_cell_angle_alpha                 88.081779
_cell_angle_beta                  89.121763
_cell_angle_gamma                 93.741995
_cell_volume                      1219.29136002

loop_
_atom_site_label
_atom_site_type_symbol
_atom_site_description
_atom_site_fract_x
_atom_site_fract_y
_atom_site_fract_z
_atom_type_partial_charge
O1    O     O_R   0.499990 0.319640 0.618810 -0.586343
O2    O     O_R   0.500000 0.319660 0.381240 -0.596027
C1    C     C_R   0.496130 0.261458 0.503347 0.805197
O3    O     O_R   0.337190 0.500000 0.618790 -0.528560
O4    O     O_R   0.337200 0.500030 0.381210 -0.572043
C2    C     C_R   0.284259 0.499579 0.500850 0.798664
Cu1   Cu    Cu3+1 0.499990 0.499990 0.640660 1.043814
Cu2   Cu    Cu3+1 0.500010 0.500010 0.359340 1.050742
O5    O     O_R   0.500000 0.680340 0.618760 -0.536065
O6    O     O_R   0.500010 0.680360 0.381190 -0.491082
O7    O     O_R   0.662800 0.499970 0.618790 -0.575008
O8    O     O_R   0.662810 0.500000 0.381210 -0.565535
C3    C     C_R   0.486759 0.735587 0.497475 0.874980
C4    C     C_R   0.715678 0.499663 0.499258 0.879137
C5    C     C_1   0.162475 0.499893 0.502225 -0.075075
C6    C     C_1   0.059897 0.500045 0.501503 0.087503
C7    C     C_1   0.940043 0.500001 0.499588 0.084967
C8    C     C_1   0.837467 0.499845 0.498325 -0.096013
H1    H     H_    0.526578 0.123587 0.290304 0.201950
C9    C     C_R   0.419415 0.098224 0.759691 -0.161885
H2    H     H_    0.446081 0.189396 0.789866 0.211626
C10   C     C_R   0.360154 0.025688 0.862825 -0.130797
H3    H     H_    0.341224 0.066412 0.960844 0.198431
C11   C     C_R   0.323852 0.903241 0.839340 0.382876
C12   C     C_R   0.356704 0.851779 0.715235 -0.182979
H4    H     H_    0.325793 0.757745 0.696368 0.177423
C13   C     C_R   0.422288 0.922340 0.612495 0.015398
C14   C     C_R   0.443663 0.051058 0.627766 0.103894
C15   C     C_R   0.485435 0.125108 0.509448 -0.144984
C16   C     C_R   0.503302 0.068467 0.383360 -0.243292
C17   C     C_R   0.488722 0.941717 0.371597 0.359248
C18   C     C_R   0.462313 0.867144 0.491941 -0.197200
H5    H     H_    0.339999 0.402810 0.137260 0.173874
C19   C     C_R   0.698558 0.597651 0.132477 0.359685
C20   C     C_R   0.802161 0.588260 0.060371 0.303606
C21   C     C_R   0.800354 0.593128 0.917206 -0.298970
H6    H     H_    0.879853 0.616512 0.860089 0.235422
C22   C     C_R   0.695789 0.604480 0.852785 0.385360
C23   C     C_R   0.593410 0.555514 0.921848 0.035461
C24   C     C_R   0.594352 0.553395 0.070674 0.033547
N1    N     N_R   0.501070 0.501210 0.147910 -0.201550
C25   C     C_R   0.411673 0.447478 0.078610 -0.003720
C26   C     C_R   0.411736 0.445667 0.932068 0.449983
N2    N     N_R   0.501110 0.501290 0.852040 -0.217388
Cl1   Cl    Cl    0.700412 0.736222 0.741204 -0.512538
Cl2   Cl    Cl    0.293893 0.363677 0.860105 -0.593219
N3    N     N_R   0.253982 0.831456 0.940778 0.163181
O9    O     O_R   0.205228 0.885069 0.042696 -0.271682
O10   O     O_R   0.235402 0.712531 0.929783 -0.299249
N4    N     N_R   0.491976 0.892529 0.235088 0.157581
O11   O     O_R   0.561472 0.944563 0.140425 -0.312073
O12   O     O_R   0.407746 0.817829 0.196175 -0.285266
Cl3   Cl    Cl    0.703681 0.725408 0.240421 -0.437950
Cl4   Cl    Cl    0.935145 0.611904 0.142223 -0.457060

loop_
_geom_bond_atom_site_label_1
_geom_bond_atom_site_label_2
_geom_bond_distance
_ccdc_geom_bond_type
O4    Cu2   1.910091 S    
N4    O12   1.301107 A    
C26   N2    1.382867 A    
C24   N1    1.389119 A    
C23   N2    1.388599 A    
C12   C13   1.416137 A    
N1    C25   1.358476 A    
C4    C8    1.422255 S    
C3    C18   1.472476 S    
N3    O9    1.301811 A    
C16   C17   1.382626 A    
Cu2   O8    1.916398 S    
C9    H2    1.068284 S    
C21   C22   1.389716 A    
C7    C8    1.198218 T    
C12   H4    1.081554 S    
Cu1   Cu2   2.715846 S    
N3    O10   1.301872 A    
Cu1   N2    2.041416 S    
C11   C12   1.397407 A    
C20   Cl4   1.761231 S    
Cu1   O7    1.910090 S    
C11   N3    1.439623 S    
C15   C16   1.400537 A    
O3    Cu1   1.916400 S    
C19   C24   1.425797 A    
H5    C25   1.081765 S    
Cu2   O6    1.974105 S    
C21   H6    1.083870 S    
O7    C4    1.300668 A    
O8    C4    1.304479 A    
N4    O11   1.302076 A    
O2    C1    1.317135 A    
O4    C2    1.301439 A    
C26   Cl2   1.754586 S    
C10   C11   1.394257 A    
C25   C26   1.415488 A    
C13   C18   1.413430 A    
C17   N4    1.439048 S    
C5    C6    1.198345 T    
Cu1   O5    1.960093 S    
C23   C24   1.436402 A    
C22   C23   1.423149 A    
Cu2   N1    2.040589 S    
C19   Cl3   1.759735 S    
O3    C2    1.303901 A    
C19   C20   1.397934 A    
C13   C14   1.414885 A    
C1    C15   1.474857 S    
O5    C3    1.313203 A    
C10   H3    1.083355 S    
C14   C15   1.434558 A    
C22   Cl1   1.757666 S    
C9    C14   1.419624 A    
C2    C5    1.422512 S    
O1    Cu1   1.974105 S    
H1    C16   1.083329 S    
C17   C18   1.411544 A    
O2    Cu2   1.960093 S    
C20   C21   1.381890 A    
C9    C10   1.394466 A    
C6    C7    1.400264 S    
O1    C1    1.299049 A    
O6    C3    1.301794 A    
