data_mof_unit_39777.cif
_audit_creation_date              2012-12-10T18:59:58-0500
_audit_creation_method            fapswitch 2.2
_symmetry_space_group_name_H-M    P1
_symmetry_Int_Tables_number       1
_space_group_crystal_system       triclinic
_cell_length_a                    10.722135
_cell_length_b                    10.592419
_cell_length_c                    10.01747
_cell_angle_alpha                 90.234849
_cell_angle_beta                  91.291263
_cell_angle_gamma                 91.683487
_cell_volume                      1136.92482345

loop_
_atom_site_label
_atom_site_type_symbol
_atom_type_description
_atom_site_fract_x
_atom_site_fract_y
_atom_site_fract_z
_atom_type_partial_charge
C1    C     C_R   0.501341 0.261147 0.499906 0.942512
C2    C     C_R   0.498152 0.738888 0.500169 0.945126
C3    C     C_R   0.869868 0.463852 0.503717 -0.149359
C4    C     C_R   0.125306 0.467243 0.494570 -0.203918
C5    C     C_R   0.943264 0.476458 0.621726 0.065534
C6    C     C_R   0.053120 0.455894 0.374992 -0.004343
C7    C     C_R   0.393507 0.064533 0.453080 0.485414
C8    C     C_R   0.604656 0.935766 0.548177 0.485482
C9    C     C_R   0.388683 0.932928 0.456934 -0.190234
C10   C     C_R   0.609072 0.067250 0.546289 -0.213450
C11   C     C_R   0.496903 0.871756 0.500122 -0.205195
C12   C     C_R   0.501756 0.128444 0.500524 -0.183319
C13   C     C_R   0.532019 0.607197 0.073517 0.420733
C14   C     C_R   0.473699 0.391536 0.926508 0.503878
C15   C     C_R   0.536470 0.605651 0.930212 0.283885
C16   C     C_R   0.470286 0.392510 0.069735 0.280525
C17   C     C_R   0.259502 0.491942 0.498068 0.847186
C18   C     C_R   0.739399 0.492697 0.501431 0.903967
C19   C     C_R   0.167421 0.634813 0.076082 0.286656
C20   C     C_R   0.863380 0.607080 0.960923 0.281167
C21   C     C_R   0.118866 0.607677 0.201063 -0.169408
C22   C     C_R   0.877344 0.522448 0.854904 -0.173048
C23   C     C_R   0.103334 0.482721 0.243095 0.035439
C24   C     C_R   0.915123 0.565571 0.730128 -0.040912
C25   C     C_R   0.134163 0.383726 0.160041 -0.394538
C26   C     C_R   0.939791 0.694634 0.711181 -0.230188
C27   C     C_R   0.176802 0.408200 0.031703 0.455709
C28   C     C_R   0.930192 0.780963 0.815942 0.447863
C29   C     C_R   0.191085 0.533640 0.987439 0.291547
C30   C     C_R   0.893390 0.737877 0.943094 0.327510
C31   C     C_R   0.926329 0.425536 0.384929 -0.072129
C32   C     C_R   0.066068 0.441332 0.614464 -0.078436
H1    H     H_    0.095244 0.684243 0.266894 0.182671
H2    H     H_    0.857879 0.422657 0.869942 0.211254
H3    H     H_    0.123534 0.287384 0.195061 0.184694
H4    H     H_    0.971172 0.728012 0.615074 0.222720
N1    N     N_R   0.499970 0.499970 0.857200 -0.164355
N2    N     N_R   0.500030 0.500030 0.142800 -0.182014
O1    O     O_R   0.499990 0.316750 0.614620 -0.588903
O2    O     O_R   0.500010 0.683250 0.385380 -0.561043
O3    O     O_R   0.499990 0.316780 0.385290 -0.555262
O4    O     O_R   0.500010 0.683220 0.614710 -0.582973
O5    O     O_R   0.316760 0.500000 0.614660 -0.566881
O6    O     O_R   0.683240 0.500000 0.385340 -0.564852
O7    O     O_R   0.316760 0.500020 0.385330 -0.634537
O8    O     O_R   0.683240 0.499980 0.614670 -0.649918
Zn1   Zn    Zn3+2 0.500000 0.499980 0.653120 1.032243
Zn2   Zn    Zn3+2 0.500000 0.500020 0.346880 1.046461
O9    O     O_3   0.226493 0.553378 0.857848 -0.745385
H5    H     H_    0.195601 0.635749 0.827257 0.339759
O10   O     O_3   0.889842 0.824227 0.046419 -0.734207
H6    H     H_    0.916218 0.782452 0.130167 0.359356
O11   O     O_3   0.586970 0.709309 0.867230 -0.744939
H7    H     H_    0.640001 0.676402 0.796212 0.378975
O12   O     O_3   0.428962 0.284970 0.132630 -0.726476
H8    H     H_    0.370532 0.312834 0.200887 0.379236
O13   O     O_3   0.191287 0.759910 0.045480 -0.736838
H9    H     H_    0.258843 0.764761 0.979786 0.353240
O14   O     O_3   0.819418 0.557858 0.078562 -0.807246
H10   H     H_    0.791792 0.626447 0.136891 0.374680
O15   O     O_3   0.207852 0.310669 0.948917 -0.702654
H11   H     H_    0.192335 0.228881 0.994419 0.361584
O16   O     O_3   0.962377 0.905746 0.790879 -0.675822
H12   H     H_    0.950287 0.957453 0.871806 0.398338
C33   C     C_2   0.858668 0.351596 0.277191 0.548126
H13   H     H_    0.891294 0.351972 0.175798 0.114887
O17   O     O_2   0.769347 0.282427 0.302642 -0.542142
C34   C     C_2   0.105194 0.330008 0.691275 0.664152
H14   H     H_    0.199179 0.295814 0.683245 0.133520
O18   O     O_2   0.030500 0.270471 0.758711 -0.544353
O19   O     O_3   0.295241 0.133993 0.404369 -0.756398
H15   H     H_    0.253748 0.086309 0.329723 0.374124
O20   O     O_3   0.702591 0.866573 0.597457 -0.730637
H16   H     H_    0.739924 0.912755 0.675274 0.379616
C35   C     C_2   0.270611 0.859147 0.426697 0.441478
H17   H     H_    0.273585 0.761653 0.394497 0.058705
O21   O     O_2   0.168629 0.904405 0.443414 -0.509689
C36   C     C_2   0.726016 0.140506 0.583365 0.516265
H18   H     H_    0.721966 0.235332 0.623596 0.059579
O22   O     O_2   0.828611 0.097397 0.564749 -0.459172
O23   O     O_3   0.565956 0.714527 0.145408 -0.703999
H19   H     H_    0.579283 0.786746 0.084524 0.384983
O24   O     O_3   0.446644 0.282402 0.854884 -0.689690
H20   H     H_    0.442782 0.208885 0.915435 0.378082

loop_
_geom_bond_atom_site_label_1
_geom_bond_atom_site_label_2
_ccdc_geom_bond_type
C30   O10   S    
C27   C29   A    
O20   H16   S    
O12   H8    S    
O23   H19   S    
C10   C36   S    
C29   O9    S    
O11   H7    S    
C19   O13   S    
C15   O11   S    
C19   C21   A    
C24   C26   A    
C7    O19   S    
C36   O22   D    
C21   H1    S    
C13   O23   S    
C3    C18   S    
O2    Zn2   S    
C15   N1    A    
C27   O15   S    
C34   H14   S    
C33   O17   D    
N1    Zn1   S    
N2    Zn2   S    
C32   C34   S    
C5    C32   A    
C6    C31   A    
O14   H10   S    
C1    C12   S    
C14   O24   S    
C2    C11   S    
C18   O8    A    
C7    C12   A    
C22   H2    S    
O10   H6    S    
C4    C6    A    
C31   C33   S    
C36   H18   S    
C20   C30   A    
C35   H17   S    
C17   O5    A    
C18   O6    A    
C35   O21   D    
O24   H20   S    
C20   O14   S    
C3    C31   A    
C9    C11   A    
C13   N2    A    
C4    C32   A    
C10   C12   A    
C25   H3    S    
C4    C17   S    
C1    O3    A    
C20   C22   A    
C33   H13   S    
C13   C15   A    
C22   C24   A    
C19   C29   A    
O1    Zn1   S    
O7    Zn2   S    
C26   H4    S    
C7    C9    A    
O8    Zn1   S    
C17   O7    A    
C3    C5    A    
C25   C27   A    
C26   C28   A    
C21   C23   A    
C16   O12   S    
O19   H15   S    
C14   N1    A    
O13   H9    S    
C5    C24   S    
C2    O4    A    
C8    C11   A    
C6    C23   S    
C28   C30   A    
C8    O20   S    
O3    Zn2   S    
C14   C16   A    
O4    Zn1   S    
C23   C25   A    
O15   H11   S    
C1    O1    A    
O16   H12   S    
C28   O16   S    
C2    O2    A    
C8    C10   A    
O9    H5    S    
C34   O18   D    
C9    C35   S    
O5    Zn1   S    
O6    Zn2   S    
C16   N2    A    
