data_mof_unit_28086.cif
_audit_creation_date              2012-12-11T16:37:57-0500
_audit_creation_method            fapswitch 2.2
_symmetry_space_group_name_H-M    P1
_symmetry_Int_Tables_number       1
_space_group_crystal_system       triclinic
_cell_length_a                    8.263193
_cell_length_b                    17.342452
_cell_length_c                    19.249153
_cell_angle_alpha                 99.532029
_cell_angle_beta                  92.592148
_cell_angle_gamma                 95.711595
_cell_volume                      2701.53263054

loop_
_atom_site_label
_atom_site_type_symbol
_atom_type_description
_atom_site_fract_x
_atom_site_fract_y
_atom_site_fract_z
_atom_type_partial_charge
Ba1   Ba    Ba6+2 0.849990 0.533510 0.465310 1.752041
Ba2   Ba    Ba6+2 0.339840 0.466550 0.534700 1.732903
C1    C     C_3   0.687675 0.815163 0.278989 -0.280000
C2    C     C_R   0.023052 0.523084 0.725915 -0.009965
C3    C     C_R   0.864559 0.425347 0.808968 -0.153982
C4    C     C_3   0.100571 0.688738 0.266816 0.376937
C5    C     C_R   0.796158 0.431153 0.742454 0.007021
C6    C     C_R   0.333422 0.563212 0.187844 -0.160014
C7    C     C_R   0.401203 0.558491 0.254665 0.003078
C8    C     C_R   0.133827 0.455627 0.199102 -0.128036
C9    C     C_R   0.170905 0.470956 0.273233 0.067278
C10   C     C_R   0.989700 0.482534 0.843616 0.007164
C11   C     C_R   0.885540 0.472621 0.698729 -0.228945
C12   C     C_3   0.644021 0.738102 0.305258 0.331955
C13   C     C_R   0.206461 0.506315 0.154209 -0.009864
C14   C     C_R   0.310810 0.519458 0.299419 -0.273492
C15   C     C_R   0.765711 0.442828 0.957056 -0.081088
C16   C     C_3   0.062269 0.707349 0.193505 -0.304533
C17   C     C_R   0.664169 0.413622 0.004455 -0.074257
C18   C     C_R   0.711971 0.428734 0.075345 -0.069972
C19   C     C_R   0.864158 0.468584 0.097047 -0.085668
C20   C     C_R   0.985393 0.478429 0.049070 0.019046
C21   C     C_R   0.933009 0.468768 0.975252 0.037398
C22   C     C_R   0.151788 0.500893 0.074505 -0.018300
C23   C     C_3   0.483959 0.350695 0.319461 0.370551
C24   C     C_R   0.263522 0.517975 0.022457 0.038206
C25   C     C_R   0.210844 0.509638 0.948829 0.026043
C26   C     C_R   0.044416 0.486832 0.923261 -0.010820
C27   C     C_R   0.431501 0.541833 0.040632 -0.081497
C28   C     C_3   0.070859 0.712109 0.728538 0.321331
C29   C     C_R   0.534228 0.571268 0.993858 -0.060182
C30   C     C_R   0.485766 0.558515 0.923160 -0.053774
C31   C     C_R   0.331949 0.520838 0.901101 -0.065013
C32   C     C_R   0.386822 0.739608 0.491462 0.049049
C33   C     C_R   0.554931 0.750007 0.507468 -0.065729
C34   C     C_3   0.466476 0.331452 0.239168 0.304385
C35   C     C_R   0.633538 0.824454 0.501084 0.285823
C36   C     C_R   0.552580 0.873817 0.462201 -0.176863
C37   C     C_R   0.399967 0.844863 0.424183 0.289480
C38   C     C_R   0.321217 0.771784 0.435874 -0.109755
C39   C     C_R   0.604652 0.160089 0.470368 -0.106145
C40   C     C_3   0.137362 0.794814 0.767579 0.766363
C41   C     C_R   0.648467 0.241491 0.483440 0.004436
C42   C     C_R   0.894442 0.223505 0.549646 0.010920
C43   C     C_R   0.851337 0.141779 0.536896 -0.129732
C44   C     C_R   0.705833 0.109891 0.497117 -0.020520
C45   C     C_3   0.094015 0.299123 0.725667 0.357432
C46   C     C_1   0.660636 0.025887 0.482261 0.059285
C47   C     C_1   0.615556 0.956158 0.470964 0.172566
C48   C     C_R   0.790602 0.272802 0.524519 -0.287890
C49   C     C_3   0.973536 0.290596 0.376744 0.314345
C50   C     C_3   0.960599 0.201388 0.358051 -0.341165
C51   C     C_3   0.686322 0.630560 0.675945 0.380686
C52   C     C_3   0.674407 0.646411 0.755681 -0.330120
C53   C     C_3   0.917967 0.869399 0.782822 0.122712
C54   C     C_3   0.303028 0.265994 0.143363 0.202745
C55   C     C_3   0.767332 0.888210 0.603543 0.257100
C56   C     C_3   0.129661 0.275218 0.796937 -0.354378
C57   C     C_3   0.565305 0.250976 0.672341 0.364353
C58   C     C_3   0.522092 0.167342 0.684978 -0.338288
C59   C     C_R   0.060478 0.535251 0.800055 -0.160282
H1    H     H_    0.702841 0.742379 0.359019 0.048043
H2    H     H_    0.821079 0.825631 0.274466 0.146299
H3    H     H_    0.747669 0.702206 0.779903 0.143320
H4    H     H_    0.718948 0.597554 0.779067 0.033785
H5    H     H_    0.545507 0.650201 0.768295 0.177277
H6    H     H_    0.509452 0.729592 0.307637 -0.067469
H7    H     H_    0.649435 0.864846 0.316383 0.118230
H8    H     H_    0.370833 0.372979 0.339444 -0.016800
H9    H     H_    0.587084 0.397476 0.334204 0.003512
H10   H     H_    0.462166 0.387690 0.218737 -0.069188
H11   H     H_    0.575643 0.303634 0.219895 0.024694
H12   H     H_    0.166716 0.833514 0.727908 0.001528
H13   H     H_    0.624646 0.813182 0.226430 0.134325
H14   H     H_    0.103018 0.661926 0.152504 0.057400
H15   H     H_    0.160903 0.358059 0.725721 0.077362
H16   H     H_    0.961037 0.301408 0.718407 -0.059293
H17   H     H_    0.261579 0.269813 0.805094 0.157923
H18   H     H_    0.094793 0.320142 0.840033 0.064625
H19   H     H_    0.059298 0.217841 0.799398 0.113598
H20   H     H_    0.699991 0.261455 0.672092 -0.086527
H21   H     H_    0.509488 0.256375 0.620042 0.075627
H22   H     H_    0.569200 0.125209 0.642815 0.062634
H23   H     H_    0.852469 0.308964 0.389363 -0.020369
H24   H     H_    0.387889 0.153801 0.684474 0.158844
H25   H     H_    0.040056 0.629162 0.269410 0.035620
H26   H     H_    0.577715 0.160208 0.736827 0.111685
H27   H     H_    0.148472 0.583998 0.822499 0.130664
H28   H     H_    0.815582 0.376820 0.833055 0.066716
H29   H     H_    0.384359 0.610591 0.162792 0.079831
H30   H     H_    0.044758 0.406418 0.178007 0.070119
H31   H     H_    0.841558 0.469651 0.644456 0.053005
H32   H     H_    0.355094 0.522802 0.353717 0.058958
H33   H     H_    0.704154 0.449244 0.908648 0.079449
H34   H     H_    0.061138 0.309787 0.423265 0.062612
H35   H     H_    0.539984 0.389464 0.987574 0.073732
H36   H     H_    0.625898 0.416048 0.113772 0.074109
H37   H     H_    0.234596 0.690006 0.274698 -0.056541
H38   H     H_    0.884818 0.492738 0.151709 0.125610
H39   H     H_    0.492059 0.533760 0.088732 0.078105
H40   H     H_    0.659078 0.594009 0.010916 0.086857
H41   H     H_    0.572006 0.571596 0.884966 0.084056
H42   H     H_    0.310075 0.499389 0.846220 0.124582
H43   H     H_    0.494936 0.135983 0.437932 0.130110
H44   H     H_    0.932486 0.103404 0.555902 0.094411
H45   H     H_    0.866673 0.180189 0.314118 0.129326
H46   H     H_    0.929532 0.708604 0.183668 0.145993
H47   H     H_    0.825836 0.335603 0.533145 0.059592
H48   H     H_    0.125664 0.765348 0.188252 0.166268
H49   H     H_    0.966932 0.720000 0.693574 -0.024644
H50   H     H_    0.030099 0.676577 0.768402 -0.065431
H51   H     H_    0.419580 0.719587 0.886713 0.352472
H52   H     H_    0.847138 0.833625 0.736196 0.032832
H53   H     H_    0.987468 0.922074 0.768289 0.031185
H54   H     H_    0.829403 0.890383 0.821329 0.142427
H55   H     H_    0.405472 0.235971 0.119767 0.034101
H56   H     H_    0.926516 0.174310 0.404105 0.065700
H57   H     H_    0.291374 0.321239 0.122123 0.006546
H58   H     H_    0.188983 0.226421 0.127139 0.082819
H59   H     H_    0.057430 0.930770 0.352790 0.355649
H60   H     H_    0.690108 0.850658 0.633360 0.061917
H61   H     H_    0.715498 0.944912 0.603762 -0.021994
H62   H     H_    0.889497 0.901641 0.631709 0.073253
H63   H     H_    0.282318 0.884646 0.575080 0.315998
H64   H     H_    0.079846 0.182566 0.341725 0.157193
H65   H     H_    0.802941 0.607823 0.662714 -0.122791
H66   H     H_    0.588156 0.583754 0.654512 0.101194
O1    O     O_2   0.880230 0.446130 0.326290 -0.476645
O2    O     O_2   0.226718 0.232947 0.544388 -0.473532
O3    O     O_3   0.145012 0.243119 0.672491 -0.593737
O4    O     O_3   0.127880 0.453050 0.414940 -0.494733
O5    O     O_3   0.568990 0.594210 0.536150 -0.510175
O6    O     O_2   0.359830 0.311600 0.465710 -0.452273
O7    O     O_3   0.513255 0.282999 0.347069 -0.633969
O8    O     O_2   0.472677 0.454294 0.759394 -0.518628
O9    O     O_3   0.505149 0.303941 0.725792 -0.590083
O10   O     O_3   0.652660 0.587690 0.369690 -0.498187
O11   O     O_2   0.718832 0.524339 0.244087 -0.507728
O12   O     O_3   0.675037 0.700389 0.648416 -0.588474
O13   O     O_3   0.026648 0.321634 0.318212 -0.604097
O14   O     O_3   0.700582 0.676521 0.259042 -0.596145
O15   O     O_2   0.829870 0.688430 0.534340 -0.389087
O16   O     O_3   0.069940 0.629350 0.405460 -0.491447
O17   O     O_2   0.984182 0.769292 0.449564 -0.323682
O18   O     O_2   0.464283 0.792046 0.772603 -0.297082
O19   O     O_2   0.349484 0.867838 0.873452 -0.252410
O20   O     O_3   0.312532 0.715764 0.860345 -0.557657
O21   O     O_3   0.021898 0.823863 0.814742 -0.646011
O22   O     O_3   0.322520 0.280502 0.217688 -0.615301
O23   O     O_3   0.042816 0.745237 0.317731 -0.558297
O24   O     O_2   0.392300 0.980580 0.369086 -0.307976
O25   O     O_2   0.294884 0.856465 0.293447 -0.329787
O26   O     O_3   0.112799 0.911797 0.392426 -0.479639
O27   O     O_3   0.785969 0.850135 0.534164 -0.567864
O28   O     O_2   0.142435 0.691781 0.559036 -0.248414
O29   O     O_2   0.382383 0.764712 0.631336 -0.305232
O30   O     O_3   0.189370 0.842823 0.567948 -0.492551
O31   O     O_2   0.309470 0.553890 0.673760 -0.468689
O32   O     O_3   0.061830 0.547010 0.585070 -0.446005
O33   O     O_3   0.537040 0.412370 0.630320 -0.479004
O34   O     O_3   0.186602 0.677820 0.685649 -0.515523
O35   O     O_3   0.620720 0.405850 0.463860 -0.495985
O36   O     O_3   0.119760 0.370720 0.594550 -0.500860
P1    P     P_3+3 0.050120 0.424430 0.337400 0.995167
P2    P     P_3+3 0.655220 0.678730 0.555760 1.117550
P3    P     P_3+3 0.108131 0.729865 0.401628 1.147877
P4    P     P_3+3 0.139590 0.575630 0.662610 1.102859
P5    P     P_3+3 0.094783 0.267944 0.590321 0.950425
P6    P     P_3+3 0.617336 0.587577 0.280366 0.919524
P7    P     P_3+3 0.536586 0.307856 0.439227 0.950836
P8    P     P_3+3 0.580067 0.399123 0.716033 0.922537
S1    S     S_3+6 0.323219 0.794071 0.819100 -0.025510
S2    S     S_3+6 0.302901 0.900559 0.367720 -0.077841
S3    S     S_3+6 0.274465 0.758257 0.565465 -0.081548

loop_
_geom_bond_atom_site_label_1
_geom_bond_atom_site_label_2
_ccdc_geom_bond_type
C16   H14   S    
O24   S2    D    
C5    P8    S    
C7    P6    S    
C1    H7    S    
C57   H21   S    
C37   S2    S    
Ba1   O5    S    
C40   O21   S    
Ba2   O35   S    
C36   C47   S    
C43   C44   A    
C25   C31   A    
O29   S3    D    
C14   H32   S    
C15   C21   A    
C52   H3    S    
C38   P3    S    
C28   H49   S    
C39   H43   S    
C32   C38   A    
C4    H37   S    
C33   C35   A    
C7    C14   A    
C22   C24   A    
C45   H15   S    
C32   C33   A    
O19   S1    D    
C8    C13   A    
C36   C37   A    
C19   H38   S    
C58   H22   S    
C34   O22   S    
O23   P3    S    
O26   S2    S    
C57   O9    S    
O1    P1    D    
Ba1   Ba2   S    
C42   P5    S    
C2    C11   A    
O12   P2    S    
C1    H13   S    
C16   H46   S    
C9    P1    S    
Ba1   O15   S    
C51   H66   S    
C15   C17   A    
C55   H61   S    
C58   H26   S    
C18   H36   S    
C17   C18   A    
Ba1   P1    S    
Ba2   O32   S    
Ba2   O5    S    
C12   H6    S    
C16   H48   S    
O8    P8    D    
O10   P6    S    
O2    P5    D    
C34   H10   S    
C56   H19   S    
O30   S3    S    
C50   H56   S    
C23   H9    S    
O18   S1    D    
C50   H45   S    
C57   C58   S    
C51   O12   S    
C19   C20   A    
O11   P6    D    
C48   H47   S    
C39   C41   A    
C41   P7    S    
C43   H44   S    
O31   P4    D    
C4    C16   S    
C44   C46   S    
Ba2   O6    S    
C45   O3    S    
C49   C50   S    
Ba1   O32   S    
O5    P2    S    
C3    C10   A    
C8    C9    A    
C37   C38   A    
C52   H4    S    
C6    C7    A    
C53   H52   S    
C51   C52   S    
C2    C59   A    
O17   P3    D    
O6    P7    D    
O16   P3    S    
C35   C36   A    
C32   S3    S    
C59   H27   S    
C55   H62   S    
C9    C14   A    
C29   C30   A    
O35   P7    S    
O9    P8    S    
Ba1   P2    S    
C39   C44   A    
H63   O30   S    
O14   P6    S    
Ba2   O4    S    
C54   H55   S    
C21   C26   A    
C18   C19   A    
C23   O7    S    
O34   P4    S    
C1    C12   S    
C40   S1    S    
C56   H18   S    
O25   S2    D    
Ba1   O1    S    
C46   C47   T    
C10   C26   S    
Ba1   O35   S    
C6    C13   A    
C11   H31   S    
C24   C25   A    
C54   H58   S    
C20   C22   A    
C23   H8    S    
C45   H16   S    
C29   H40   S    
Ba1   O10   S    
C42   C43   A    
O28   S3    D    
C3    C5    A    
C42   C48   A    
O20   S1    S    
C13   C22   S    
C40   H12   S    
C27   H39   S    
C31   H42   S    
C54   H57   S    
C35   O27   S    
C57   H20   S    
Ba1   O4    S    
Ba2   O36   S    
C8    H30   S    
C50   H64   S    
H51   O20   S    
C41   C48   A    
C52   H5    S    
C53   H53   S    
C1    H2    S    
Ba1   O16   S    
O13   P1    S    
C55   O27   S    
C4    H25   S    
C2    P4    S    
C28   H50   S    
C30   C31   A    
O36   P5    S    
C27   C29   A    
C49   O13   S    
O15   P2    D    
C10   C59   A    
C53   O21   S    
C53   H54   S    
O4    P1    S    
Ba2   P4    S    
H59   O26   S    
C33   P2    S    
O33   P8    S    
O32   P4    S    
C30   H41   S    
C12   O14   S    
C51   H65   S    
C56   H17   S    
C23   C34   S    
C55   H60   S    
C4    O23   S    
O3    P5    S    
C5    C11   A    
C6    H29   S    
Ba2   O31   S    
C24   C27   A    
Ba2   O33   S    
O7    P7    S    
C25   C26   A    
C20   C21   A    
C28   C40   S    
C58   H24   S    
C15   H33   S    
C28   O34   S    
C54   O22   S    
C49   H23   S    
C3    H28   S    
C17   H35   S    
C34   H11   S    
C49   H34   S    
C45   C56   S    
C12   H1    S    
