data_mof_unit_28683.cif
_audit_creation_date              2012-10-26T20:01:50-0400
_audit_creation_method            fapswitch 2.2
_symmetry_space_group_name_H-M    P1
_symmetry_Int_Tables_number       1
_space_group_crystal_system       triclinic
_cell_length_a                    11.698364
_cell_length_b                    10.822541
_cell_length_c                    9.635874
_cell_angle_alpha                 89.343888
_cell_angle_beta                  90.093185
_cell_angle_gamma                 94.256671
_cell_volume                      1216.51436159

loop_
_atom_site_label
_atom_site_type_symbol
_atom_type_description
_atom_site_fract_x
_atom_site_fract_y
_atom_site_fract_z
_atom_type_partial_charge
C1    C     C_R   0.491769 0.262398 0.500825 0.533501
C2    C     C_R   0.475821 0.869369 0.498259 0.009153
C3    C     C_R   0.693316 0.628990 0.131282 0.261353
C4    C     C_R   0.284185 0.499362 0.499942 0.531445
C5    C     C_R   0.789124 0.660756 0.048373 -0.094364
C6    C     C_R   0.776249 0.673110 0.907686 -0.188693
C7    C     C_R   0.671611 0.639268 0.848734 -0.079064
C8    C     C_R   0.585998 0.567985 0.922849 0.123977
C9    C     C_R   0.590258 0.566193 0.072430 0.156078
C10   C     C_R   0.416646 0.436766 0.074495 0.008970
C11   C     C_R   0.417335 0.435858 0.927072 0.010457
C12   C     C_R   0.272093 0.042903 0.791269 0.248478
C13   C     C_R   0.491165 0.736505 0.499516 0.568785
C14   C     C_R   0.715699 0.498904 0.500225 0.589480
C15   C     C_1   0.162426 0.499440 0.499906 -0.003660
C16   C     C_1   0.059889 0.499437 0.500123 -0.016474
C17   C     C_1   0.940020 0.499278 0.500409 -0.012373
C18   C     C_1   0.837476 0.499047 0.500498 0.018828
C19   C     C_R   0.338759 0.113921 0.695750 -0.071627
C20   C     C_R   0.271661 0.914434 0.790382 -0.078994
C21   C     C_R   0.337772 0.856303 0.694234 -0.144797
C22   C     C_R   0.409453 0.926283 0.599382 0.011541
C23   C     C_R   0.410117 0.057540 0.600417 -0.007348
C24   C     C_R   0.478213 0.127622 0.501369 0.005954
C25   C     C_R   0.532566 0.068182 0.395260 -0.134493
C26   C     C_R   0.529161 0.941121 0.392193 -0.120148
Cl1   Cl    Cl    0.185467 0.115415 0.909361 -0.621698
Cl2   Cl    Cl    0.708445 0.725019 0.276448 -0.634689
Cu1   Cu    Cu3+1 0.499990 0.499990 0.640660 0.942089
Cu2   Cu    Cu3+1 0.500010 0.500010 0.359340 1.012359
H1    H     H_    0.580529 0.120435 0.315092 0.153084
H2    H     H_    0.868959 0.699072 0.093395 0.175432
H3    H     H_    0.844967 0.717478 0.845515 0.144302
H4    H     H_    0.662144 0.669732 0.744310 0.198882
H5    H     H_    0.349471 0.382805 0.873046 0.149261
H6    H     H_    0.330143 0.212449 0.694761 0.154286
H7    H     H_    0.217681 0.859012 0.862152 0.151766
H8    H     H_    0.328016 0.756425 0.692628 0.155341
H9    H     H_    0.571615 0.900008 0.307345 0.203180
H10   H     H_    0.348360 0.384371 0.129702 0.148469
N1    N     N_R   0.501070 0.501210 0.147910 -0.244163
N2    N     N_R   0.501110 0.501290 0.852040 -0.250648
O1    O     O_R   0.499990 0.319640 0.618810 -0.503735
O2    O     O_R   0.500000 0.319660 0.381240 -0.504536
O3    O     O_R   0.337190 0.500000 0.618790 -0.517734
O4    O     O_R   0.337200 0.500030 0.381210 -0.500754
O5    O     O_R   0.500000 0.680340 0.618760 -0.535305
O6    O     O_R   0.500010 0.680360 0.381190 -0.440987
O7    O     O_R   0.662800 0.499970 0.618790 -0.514802
O8    O     O_R   0.662810 0.500000 0.381210 -0.445364

loop_
_geom_bond_atom_site_label_1
_geom_bond_atom_site_label_2
_ccdc_geom_bond_type
C2    C22   A    
C13   O6    A    
C19   C23   A    
C23   C24   A    
Cu2   N1    S    
C25   H1    S    
C6    C7    A    
C3    C9    A    
Cu1   N2    S    
C14   C18   S    
C1    O2    A    
C9    N1    A    
C6    H3    S    
Cu2   O4    S    
C4    O3    A    
C5    H2    S    
C12   C20   A    
C4    C15   S    
C11   H5    S    
C17   C18   T    
Cu2   O8    S    
C7    C8    A    
C2    C26   A    
C4    O4    A    
C21   C22   A    
Cu1   O1    S    
C10   N1    A    
C20   H7    S    
Cu2   O2    S    
Cu1   Cu2   S    
Cu1   O5    S    
C12   C19   A    
Cu2   O6    S    
C3    Cl2   S    
C25   C26   A    
C8    N2    A    
C19   H6    S    
C5    C6    A    
C7    H4    S    
C26   H9    S    
C14   O7    A    
C10   C11   A    
C14   O8    A    
C12   Cl1   S    
C15   C16   T    
C24   C25   A    
C1    C24   S    
C10   H10   S    
C13   O5    A    
C2    C13   S    
C22   C23   A    
C16   C17   S    
Cu1   O7    S    
C11   N2    A    
C20   C21   A    
C1    O1    A    
C21   H8    S    
Cu1   O3    S    
C8    C9    A    
C3    C5    A    
