data_mof_unit_9254.cif
_audit_creation_date              2013-03-05T16:12:21-0500
_audit_creation_method            fapswitch 2.2
_symmetry_space_group_name_H-M    P1
_symmetry_Int_Tables_number       1
_space_group_crystal_system       triclinic
_cell_length_a                    6.935509
_cell_length_b                    21.785033
_cell_length_c                    22.211557
_cell_angle_alpha                 107.63815
_cell_angle_beta                  90.494296
_cell_angle_gamma                 90.23312
_cell_volume                      3197.98681733

loop_
_atom_site_label
_atom_site_type_symbol
_atom_site_description
_atom_site_fract_x
_atom_site_fract_y
_atom_site_fract_z
_atom_type_partial_charge
O1    O     O_R   0.505730 0.449200 0.552060 -0.563308
O2    O     O_R   0.171560 0.427840 0.423150 -0.607211
O3    O     O_R   0.005630 0.550800 0.447940 -0.603598
C1    C     C_R   0.338539 0.409419 0.398765 0.934778
O4    O     O_R   0.175730 0.441570 0.550050 -0.559826
O5    O     O_R   0.009820 0.564620 0.575740 -0.584482
C2    C     C_R   0.345398 0.429355 0.569558 1.016303
O6    O     O_R   0.501530 0.435380 0.424260 -0.595304
O7    O     O_3   0.340640 0.540360 0.508280 -0.286335
V1    V     V_3+5 0.064080 0.492510 0.498460 1.209893
O8    O     O_R   0.680360 0.572160 0.576850 -0.602967
C3    C     C_R   0.848569 0.589739 0.601612 1.031056
O9    O     O_R   0.676190 0.558430 0.449950 -0.599404
C4    C     C_R   0.844860 0.571510 0.431216 0.941644
V2    V     V_3+5 0.564610 0.507490 0.501540 1.201437
O10   O     O_3   0.837920 0.459640 0.491720 -0.249022
C5    C     C_R   0.070073 0.803340 0.151605 -0.090847
H1    H     H_    0.182550 0.768704 0.150524 0.198771
C6    C     C_R   0.084755 0.842737 0.112193 -0.094220
H2    H     H_    0.208579 0.837736 0.081745 0.154502
C7    C     C_R   0.939272 0.887149 0.111237 -0.202089
C8    C     C_R   0.780669 0.892016 0.151512 -0.281757
H3    H     H_    0.668770 0.926637 0.151930 0.193362
C9    C     C_R   0.766947 0.853768 0.192275 0.565514
C10   C     C_R   0.912467 0.808492 0.192065 -0.123860
C11   C     C_1   0.903005 0.767209 0.232819 0.175823
C12   C     C_1   0.895284 0.732852 0.266849 0.140975
C13   C     C_R   0.043499 0.651448 0.313073 0.359455
C14   C     C_R   0.025739 0.612977 0.353726 -0.262007
H4    H     H_    0.144957 0.582585 0.358049 0.177339
C15   C     C_R   0.857187 0.612860 0.388563 -0.181749
C16   C     C_R   0.703467 0.652174 0.381966 -0.120170
H5    H     H_    0.571387 0.653187 0.407896 0.141068
C17   C     C_R   0.719498 0.691456 0.342492 -0.041653
H6    H     H_    0.599197 0.721760 0.338878 0.189296
C18   C     C_R   0.887894 0.691775 0.307847 -0.070083
C19   C     C_R   0.849177 0.643361 0.661960 -0.209959
C20   C     C_R   0.949694 0.856263 0.837416 -0.333381
C21   C     C_R   0.115621 0.794379 0.741493 -0.200197
C22   C     C_R   0.105848 0.848741 0.794640 0.398840
C23   C     C_R   0.805773 0.808153 0.824462 -0.142416
C24   C     C_R   0.819211 0.751882 0.771744 0.009420
C25   C     C_R   0.976202 0.745690 0.729816 0.156615
C26   C     C_R   0.991880 0.691288 0.676077 -0.172874
C27   C     C_R   0.693910 0.649305 0.703649 -0.186670
C28   C     C_R   0.679314 0.701824 0.758934 0.332795
H7    H     H_    0.111123 0.687514 0.643918 0.132376
H8    H     H_    0.583964 0.611984 0.693588 0.195034
H9    H     H_    0.235767 0.789858 0.709528 0.148932
H10   H     H_    0.686335 0.814581 0.856631 0.206443
C29   C     C_R   0.336892 0.353737 0.339547 -0.130783
C30   C     C_R   0.458773 0.146332 0.160413 -0.123825
C31   C     C_R   0.641062 0.215599 0.250620 -0.215187
C32   C     C_R   0.628947 0.161207 0.197384 -0.133676
C33   C     C_R   0.299114 0.187268 0.178655 -0.274128
C34   C     C_R   0.311511 0.242794 0.231887 0.215451
C35   C     C_R   0.484133 0.257253 0.268093 0.211784
C36   C     C_R   0.496540 0.312790 0.321317 -0.265284
C37   C     C_R   0.166695 0.338841 0.302589 -0.134025
C38   C     C_R   0.154571 0.284441 0.249363 -0.220157
H11   H     H_    0.628228 0.323127 0.349317 0.142329
H12   H     H_    0.041184 0.369352 0.314998 0.138071
H13   H     H_    0.773967 0.225255 0.277945 0.135626
H14   H     H_    0.021654 0.274776 0.222045 0.130961
H15   H     H_    0.754443 0.130688 0.184976 0.138753
H16   H     H_    0.167425 0.176934 0.150655 0.139048
C39   C     C_R   0.581661 0.196708 0.849538 -0.099924
H17   H     H_    0.700270 0.229609 0.850814 0.141149
C40   C     C_R   0.587536 0.157039 0.888890 -0.122656
H18   H     H_    0.710103 0.161164 0.920328 0.176732
C41   C     C_R   0.435624 0.113824 0.888977 -0.313454
C42   C     C_R   0.274029 0.112108 0.848198 0.371759
C43   C     C_R   0.271448 0.151867 0.808787 -0.182526
H19   H     H_    0.147838 0.150318 0.778106 0.194676
C44   C     C_R   0.423394 0.194238 0.809340 0.067191
C45   C     C_1   0.412607 0.235609 0.769141 0.058006
C46   C     C_1   0.398167 0.269556 0.735047 0.180413
C47   C     C_R   0.524352 0.355115 0.695310 -0.176368
H20   H     H_    0.645828 0.360057 0.727522 0.192494
C48   C     C_R   0.515743 0.394404 0.655699 0.394019
C49   C     C_R   0.358623 0.388659 0.612922 -0.365594
C50   C     C_R   0.211360 0.343862 0.612576 -0.245298
H21   H     H_    0.090487 0.338842 0.580268 0.213778
C51   C     C_R   0.219619 0.304812 0.652796 0.487975
C52   C     C_R   0.379363 0.309932 0.693898 -0.112282
O11   O     O_R   0.294110 0.064720 0.075690 -0.601682
O12   O     O_R   0.619980 0.058360 0.949870 -0.559105
O13   O     O_R   0.785810 0.935300 0.924300 -0.558298
C53   C     C_R   0.449808 0.071310 0.930871 1.017529
O14   O     O_R   0.624080 0.072230 0.076800 -0.614997
O15   O     O_R   0.789930 0.949270 0.052130 -0.603495
C54   C     C_R   0.457113 0.090659 0.101189 0.918955
O16   O     O_R   0.289980 0.050750 0.947860 -0.555628
O17   O     O_3   0.454970 0.959660 0.991750 -0.252201
V3    V     V_3+5 0.731560 0.007480 0.001530 1.239353
O18   O     O_R   0.119360 0.941610 0.050140 -0.599930
C55   C     C_R   0.950743 0.928538 0.068772 0.954180
O19   O     O_R   0.115260 0.927740 0.923220 -0.562009
C56   C     C_R   0.947837 0.910609 0.897853 1.039642
V4    V     V_3+5 0.231020 0.992470 0.998490 1.255922
O20   O     O_3   0.957740 0.040330 0.008250 -0.260001
N1    N     N_R   0.523389 0.702637 0.801401 0.237951
O21   O     O_R   0.354415 0.680604 0.778931 -0.389097
O22   O     O_R   0.558749 0.712615 0.861245 -0.370344
N2    N     N_R   0.256018 0.896101 0.803471 0.231797
O23   O     O_R   0.280988 0.924422 0.760292 -0.341064
O24   O     O_R   0.399437 0.895122 0.841270 -0.394803
N3    N     N_R   0.110737 0.070773 0.845521 0.233601
O25   O     O_R   0.046553 0.035387 0.790745 -0.328937
O26   O     O_R   0.994811 0.083272 0.893302 -0.412401
N4    N     N_R   0.664576 0.441548 0.661544 0.228570
O27   O     O_R   0.677740 0.489911 0.712973 -0.391028
O28   O     O_R   0.809944 0.428374 0.623293 -0.381627
S1    S     S_3+6 0.028964 0.250003 0.651087 -0.021138
O29   O     O_2   0.943185 0.265432 0.715826 -0.293073
O30   O     O_2   0.874250 0.254105 0.604657 -0.281137
O31   O     O_3   0.115837 0.174642 0.630970 -0.476873
H22   H     H_    0.180536 0.168724 0.590033 0.351908
S2    S     S_3+6 0.568859 0.864509 0.243912 -0.044915
O32   O     O_2   0.473723 0.800469 0.235971 -0.287503
O33   O     O_2   0.640729 0.891483 0.310824 -0.261539
O34   O     O_3   0.407621 0.915382 0.228465 -0.553511
H23   H     H_    0.295837 0.914103 0.255535 0.384862
N5    N     N_R   0.218616 0.647836 0.277497 0.226456
O35   O     O_R   0.332432 0.598617 0.268891 -0.405329
O36   O     O_R   0.271594 0.694599 0.256171 -0.380389

loop_
_geom_bond_atom_site_label_1
_geom_bond_atom_site_label_2
_geom_bond_distance
_ccdc_geom_bond_type
C33   C34   1.413962 A    
C23   C24   1.419670 A    
N4    O27   1.300524 A    
C4    C15   1.494732 S    
C1    O6    1.306926 A    
C49   C50   1.408113 A    
O14   V3    1.985307 S    
C32   H15   1.083218 S    
C31   C32   1.399181 A    
C34   C35   1.416356 A    
C28   N1    1.437756 S    
C11   C12   1.215582 T    
C13   C14   1.411604 A    
C6    C7    1.405222 A    
O5    C3    1.306103 A    
C47   C48   1.402192 A    
C27   H8    1.083668 S    
V2    O10   2.147722 S    
N3    O25   1.300825 A    
C17   H6    1.083443 S    
C43   H19   1.084556 S    
C3    C19   1.487378 S    
C40   C41   1.410466 A    
O8    V2    1.991702 S    
C51   C52   1.411813 A    
C42   N3    1.433548 S    
C37   H12   1.083211 S    
O12   V3    1.976493 S    
O1    V2    1.976274 S    
O11   V4    1.988722 S    
O7    V1    2.156842 S    
C26   H7    1.084476 S    
C42   C43   1.405756 A    
N2    O24   1.300522 A    
C36   H11   1.084114 S    
O13   V3    1.984453 S    
C46   C52   1.453312 S    
C37   C38   1.399151 A    
O9    C4    1.303979 A    
C43   C44   1.395598 A    
N1    O21   1.301169 A    
C30   C32   1.411113 A    
S1    O29   1.502710 D    
S2    O33   1.502730 D    
C1    C29   1.494794 S    
C39   H17   1.083385 S    
S1    O31   1.681124 S    
C9    C10   1.413122 A    
C20   C23   1.407620 A    
C21   C22   1.398379 A    
O4    C2    1.306486 A    
C31   C35   1.400195 A    
C47   H20   1.084199 S    
C20   C56   1.497063 S    
C21   C25   1.395693 A    
C10   C11   1.458213 S    
C27   C28   1.406711 A    
O15   C55   1.297198 A    
C34   C38   1.400169 A    
C39   C40   1.403537 A    
C16   C17   1.403206 A    
O2    C1    1.295544 A    
C44   C45   1.449896 S    
C14   H4    1.082975 S    
C7    C55   1.491674 S    
O14   C54   1.295540 A    
C15   C16   1.404429 A    
C41   C53   1.501607 S    
O17   V4    1.701163 S    
S2    O32   1.501378 D    
O18   C55   1.302698 A    
C13   N5    1.444070 S    
C5    H1    1.082859 S    
O17   V3    2.156782 S    
N4    O28   1.300019 A    
C29   C36   1.408029 A    
C45   C46   1.212072 T    
N1    O22   1.301190 A    
O16   V4    1.978080 S    
O3    C4    1.297430 A    
C47   C52   1.397755 A    
C2    C49   1.496228 S    
C50   H21   1.082144 S    
O6    V2    1.988199 S    
O19   V4    1.991764 S    
O9    V2    1.980498 S    
C25   C26   1.409668 A    
C24   C28   1.417806 A    
C8    C9    1.407506 A    
C30   C54   1.494751 S    
C29   C37   1.411117 A    
C24   C25   1.418993 A    
C19   C27   1.406951 A    
O2    V1    1.985073 S    
C23   H10   1.080216 S    
C33   H16   1.084115 S    
N5    O36   1.299848 A    
S2    O34   1.682392 S    
C9    S2    1.767722 S    
C51   S1    1.770422 S    
C21   H9    1.084729 S    
O1    C2    1.296087 A    
C48   C49   1.419459 A    
O5    V1    1.984354 S    
S1    O30   1.503466 D    
O8    C3    1.291434 A    
C30   C33   1.407990 A    
C12   C18   1.458384 S    
N2    O23   1.300403 A    
C50   C51   1.408930 A    
C38   H14   1.083356 S    
C5    C10   1.404232 A    
C16   H5    1.083009 S    
C6    H2    1.082998 S    
O12   C53   1.310292 A    
O7    V2    1.701810 S    
C41   C42   1.428120 A    
C14   C15   1.407865 A    
O3    V1    1.973800 S    
V1    O10   1.708018 S    
O31   H22   0.990560 S    
C20   C22   1.423846 A    
C31   H13   1.083355 S    
C35   C36   1.413995 A    
C19   C26   1.398502 A    
O18   V4    1.980442 S    
C48   N4    1.430170 S    
V4    O20   2.147690 S    
C5    C6    1.403369 A    
N3    O26   1.299347 A    
C17   C18   1.405326 A    
C53   O16   1.295121 A    
C40   H18   1.081383 S    
O13   C56   1.312255 A    
O15   V3    1.973617 S    
O4    V1    1.976487 S    
C39   C44   1.399435 A    
C13   C18   1.420316 A    
O19   C56   1.289493 A    
C8    H3    1.082536 S    
N5    O35   1.301764 A    
O11   C54   1.306888 A    
O34   H23   0.990639 S    
C7    C8    1.407817 A    
V3    O20   1.707994 S    
C22   N2    1.432743 S    
