data_mof_unit_6522.cif
_audit_creation_date              2012-12-11T15:09:05-0500
_audit_creation_method            fapswitch 2.2
_symmetry_space_group_name_H-M    P1
_symmetry_Int_Tables_number       1
_space_group_crystal_system       triclinic
_cell_length_a                    25.916011
_cell_length_b                    27.894938
_cell_length_c                    8.409462
_cell_angle_alpha                 90.001331
_cell_angle_beta                  96.285996
_cell_angle_gamma                 89.999961
_cell_volume                      6042.86370629

loop_
_atom_site_label
_atom_site_type_symbol
_atom_type_description
_atom_site_fract_x
_atom_site_fract_y
_atom_site_fract_z
_atom_type_partial_charge
Ba1   Ba    Ba6+2 0.999910 0.465960 0.844870 1.621709
Ba2   Ba    Ba6+2 0.999910 0.534040 0.344870 1.621709
Ba3   Ba    Ba6+2 0.499910 0.965960 0.844870 1.621700
Ba4   Ba    Ba6+2 0.499910 0.034040 0.344870 1.621702
C1    C     C_3   0.039446 0.243793 0.590319 -0.385844
C2    C     C_R   0.846023 0.642588 0.601747 -0.137654
C3    C     C_3   0.515118 0.206674 0.093577 0.383330
C4    C     C_R   0.898589 0.393223 0.326911 -0.218508
C5    C     C_R   0.898587 0.606777 0.826917 -0.218507
C6    C     C_R   0.398589 0.893224 0.326912 -0.218512
C7    C     C_R   0.398586 0.106776 0.826918 -0.218509
C8    C     C_3   0.700808 0.481317 0.904853 -0.500464
C9    C     C_3   0.700807 0.518682 0.404871 -0.500446
C10   C     C_3   0.200818 0.981334 0.904634 -0.500448
C11   C     C_3   0.200817 0.018666 0.404662 -0.500445
C12   C     C_3   0.919038 0.437999 0.409221 -0.223258
C13   C     C_R   0.346021 0.857414 0.101741 -0.137648
C14   C     C_3   0.919034 0.562001 0.909223 -0.223261
C15   C     C_3   0.419038 0.937999 0.409222 -0.223256
C16   C     C_3   0.419034 0.062000 0.909223 -0.223260
C17   C     C_3   0.961327 0.281388 0.144503 -0.330915
C18   C     C_3   0.961328 0.718611 0.644526 -0.330914
C19   C     C_3   0.461327 0.781389 0.144505 -0.330915
C20   C     C_3   0.461327 0.218610 0.644528 -0.330914
C21   C     C_3   0.073446 0.192699 0.093624 -0.414454
C22   C     C_3   0.073446 0.807302 0.593655 -0.414453
C23   C     C_3   0.573446 0.692699 0.093628 -0.414454
C24   C     C_R   0.346021 0.142586 0.601749 -0.137651
C25   C     C_3   0.573444 0.307302 0.593662 -0.414453
C26   C     C_R   0.833608 0.318434 0.199308 0.000500
C27   C     C_R   0.833607 0.681566 0.699318 0.000500
C28   C     C_R   0.333607 0.818435 0.199309 0.000498
C29   C     C_R   0.333605 0.181565 0.699320 0.000500
C30   C     C_R   0.859911 0.314942 0.355522 -0.140703
C31   C     C_R   0.859910 0.685059 0.855534 -0.140703
C32   C     C_R   0.359910 0.814942 0.355523 -0.140706
C33   C     C_3   0.039447 0.756207 0.090346 -0.385844
C34   C     C_R   0.359908 0.185058 0.855535 -0.140704
C35   C     C_R   0.893215 0.351704 0.417928 0.027937
C36   C     C_R   0.893213 0.648297 0.917937 0.027937
C37   C     C_R   0.393214 0.851704 0.417928 0.027934
C38   C     C_R   0.393212 0.148296 0.917938 0.027936
C39   C     C_R   0.796763 0.233655 0.183259 -0.079065
C40   C     C_R   0.796761 0.766346 0.683274 -0.079064
C41   C     C_R   0.296762 0.733655 0.183260 -0.079065
C42   C     C_R   0.296760 0.266344 0.683275 -0.079064
C43   C     C_R   0.256561 0.700919 0.136313 -0.076483
C44   C     C_3   0.539446 0.743793 0.590321 -0.385844
C45   C     C_R   0.256559 0.299080 0.636321 -0.076482
C46   C     C_R   0.756561 0.200919 0.136313 -0.076483
C47   C     C_R   0.756560 0.799081 0.636320 -0.076482
C48   C     C_R   0.210359 0.715908 0.045767 0.060686
C49   C     C_R   0.210359 0.284091 0.545761 0.060685
C50   C     C_R   0.710359 0.215908 0.045767 0.060686
C51   C     C_R   0.710360 0.784092 0.545760 0.060684
C52   C     C_R   0.206060 0.764779 0.003107 -0.077212
C53   C     C_R   0.206061 0.235221 0.503095 -0.077211
C54   C     C_R   0.706060 0.264778 0.003106 -0.077211
C55   C     C_3   0.539447 0.256207 0.090348 -0.385845
C56   C     C_R   0.706063 0.735221 0.503093 -0.077210
C57   C     C_R   0.746267 0.297427 0.049562 -0.076695
C58   C     C_R   0.746269 0.702573 0.549557 -0.076693
C59   C     C_R   0.246266 0.797428 0.049563 -0.076695
C60   C     C_R   0.246267 0.202572 0.549559 -0.076693
C61   C     C_3   0.017144 0.265083 0.132756 0.374142
C62   C     C_3   0.017144 0.734916 0.632779 0.374141
C63   C     C_3   0.517143 0.765084 0.132759 0.374142
C64   C     C_3   0.517143 0.234916 0.632782 0.374140
C65   C     C_R   0.792250 0.282539 0.141138 0.059960
C66   C     C_R   0.879686 0.394384 0.163634 0.043660
C67   C     C_R   0.792249 0.717461 0.641146 0.059959
C68   C     C_R   0.292249 0.782540 0.141139 0.059961
C69   C     C_R   0.292247 0.217460 0.641148 0.059959
C70   C     C_R   0.138089 0.686022 0.842043 -0.140114
C71   C     C_R   0.138090 0.313977 0.342031 -0.140114
C72   C     C_R   0.638089 0.186021 0.842042 -0.140114
C73   C     C_R   0.638090 0.813978 0.342031 -0.140113
C74   C     C_R   0.098064 0.653698 0.791458 -0.010431
C75   C     C_R   0.098065 0.346301 0.291449 -0.010429
C76   C     C_R   0.598064 0.153698 0.791458 -0.010430
C77   C     C_R   0.879685 0.605616 0.663639 0.043660
C78   C     C_R   0.598065 0.846301 0.291448 -0.010429
C79   C     C_R   0.115465 0.609117 0.039108 0.064508
C80   C     C_R   0.115466 0.390883 0.539104 0.064510
C81   C     C_R   0.615465 0.109116 0.039108 0.064509
C82   C     C_R   0.615466 0.890883 0.539104 0.064510
C83   C     C_R   0.155775 0.641541 0.090519 -0.129767
C84   C     C_R   0.155775 0.358458 0.590514 -0.129764
C85   C     C_R   0.655775 0.141541 0.090519 -0.129767
C86   C     C_R   0.655775 0.858459 0.590513 -0.129763
C87   C     C_R   0.167210 0.681023 0.993569 -0.008256
C88   C     C_R   0.379685 0.894385 0.163635 0.043679
C89   C     C_R   0.167211 0.318976 0.493560 -0.008256
C90   C     C_R   0.667210 0.181023 0.993568 -0.008256
C91   C     C_R   0.667211 0.818977 0.493559 -0.008256
C92   C     C_R   0.085902 0.616650 0.892436 -0.271658
C93   C     C_R   0.085903 0.383349 0.392430 -0.271660
C94   C     C_R   0.585902 0.116650 0.892436 -0.271658
C95   C     C_R   0.585903 0.883349 0.392430 -0.271660
C96   C     C_3   0.017978 0.211423 0.092120 -0.171700
C97   C     C_3   0.017977 0.788577 0.592151 -0.171700
C98   C     C_3   0.517977 0.711423 0.092124 -0.171700
C99   C     C_R   0.379683 0.105615 0.663641 0.043669
C100  C     C_3   0.517976 0.288576 0.592156 -0.171699
C101  C     C_3   0.147471 0.470289 0.222944 0.315501
C102  C     C_3   0.147471 0.529712 0.722941 0.315497
C103  C     C_3   0.647471 0.970289 0.222944 0.315500
C104  C     C_3   0.647471 0.029712 0.722941 0.315497
C105  C     C_3   0.196595 0.440104 0.247012 -0.393075
C106  C     C_3   0.196596 0.559896 0.747015 -0.393077
C107  C     C_3   0.696595 0.940104 0.247012 -0.393075
C108  C     C_3   0.696596 0.059896 0.747015 -0.393078
C109  C     C_3   0.796613 0.467009 0.975825 0.283486
C110  C     C_R   0.846023 0.357412 0.101740 -0.137657
C111  C     C_3   0.796612 0.532991 0.475823 0.283492
C112  C     C_3   0.296618 0.967015 0.975699 0.283464
C113  C     C_3   0.296617 0.032985 0.475724 0.283473
C114  C     C_3   0.753922 0.504619 0.944177 -0.193552
C115  C     C_3   0.753921 0.495380 0.444191 -0.193538
C116  C     C_3   0.253931 0.004630 0.944078 -0.193553
C117  C     C_3   0.253932 0.995370 0.444060 -0.193537
C118  C     C_3   0.015117 0.293326 0.593555 0.383334
C119  C     C_3   0.015118 0.706674 0.093574 0.383333
C120  C     C_3   0.515117 0.793326 0.593557 0.383332
H1    H     H_    0.039374 0.315420 0.682980 0.093546
H2    H     H_    0.187558 0.596602 0.785241 0.069091
H3    H     H_    0.200509 0.958454 0.796426 0.129494
H4    H     H_    0.191044 0.959105 0.006796 0.135036
H5    H     H_    0.170809 0.990387 0.381025 0.140815
H6    H     H_    0.191042 0.040878 0.506866 0.135038
H7    H     H_    0.200505 0.041563 0.296494 0.129488
H8    H     H_    0.014876 0.309633 0.472953 -0.081446
H9    H     H_    0.014877 0.690367 0.972970 -0.081443
H10   H     H_    0.514877 0.809634 0.472956 -0.081443
H11   H     H_    0.514878 0.190366 0.972974 -0.081439
H12   H     H_    0.853716 0.284420 0.430540 0.072040
H13   H     H_    0.687558 0.903400 0.285249 0.069087
H14   H     H_    0.853716 0.715582 0.930553 0.072039
H15   H     H_    0.353716 0.784420 0.430540 0.072041
H16   H     H_    0.353714 0.215580 0.930555 0.072040
H17   H     H_    0.016171 0.220748 0.501749 0.107022
H18   H     H_    0.016173 0.779252 0.001779 0.107022
H19   H     H_    0.516171 0.720748 0.501749 0.107022
H20   H     H_    0.516173 0.279252 0.001778 0.107022
H21   H     H_    0.898884 0.469368 0.353595 0.131504
H22   H     H_    0.909634 0.439156 0.534516 0.152347
H23   H     H_    0.961379 0.441259 0.402715 0.128922
H24   H     H_    0.687558 0.096602 0.785241 0.069090
H25   H     H_    0.898878 0.530632 0.853592 0.131499
H26   H     H_    0.961375 0.558739 0.902716 0.128927
H27   H     H_    0.909629 0.560844 0.034517 0.152346
H28   H     H_    0.398884 0.969369 0.353596 0.131507
H29   H     H_    0.409634 0.939157 0.534516 0.152347
H30   H     H_    0.461379 0.941258 0.402714 0.128922
H31   H     H_    0.398879 0.030631 0.853593 0.131496
H32   H     H_    0.461375 0.058740 0.902715 0.128927
H33   H     H_    0.409630 0.060844 0.034518 0.152349
H34   H     H_    0.961019 0.319582 0.180533 0.075631
H35   H     H_    0.214492 0.437735 0.133132 0.126085
H36   H     H_    0.937393 0.277280 0.027361 0.143602
H37   H     H_    0.943807 0.260008 0.236239 0.055457
H38   H     H_    0.961020 0.680417 0.680551 0.075627
H39   H     H_    0.943808 0.739991 0.736266 0.055457
H40   H     H_    0.937393 0.722718 0.527385 0.143602
H41   H     H_    0.461019 0.819583 0.180534 0.075630
H42   H     H_    0.437392 0.777281 0.027363 0.143602
H43   H     H_    0.443806 0.760009 0.236241 0.055457
H44   H     H_    0.461020 0.180416 0.680553 0.075626
H45   H     H_    0.443806 0.239989 0.736268 0.055458
H46   H     H_    0.214495 0.562261 0.633139 0.126083
H47   H     H_    0.437392 0.222717 0.527387 0.143602
H48   H     H_    0.095205 0.197856 0.213726 0.110587
H49   H     H_    0.072542 0.153823 0.065159 0.116215
H50   H     H_    0.093952 0.211676 0.002889 0.151631
H51   H     H_    0.095205 0.802144 0.713756 0.110587
H52   H     H_    0.093951 0.788324 0.502916 0.151631
H53   H     H_    0.072541 0.846178 0.565195 0.116215
H54   H     H_    0.595205 0.697856 0.213730 0.110587
H55   H     H_    0.572541 0.653822 0.065164 0.116215
H56   H     H_    0.593951 0.711675 0.002893 0.151631
H57   H     H_    0.714492 0.937735 0.133132 0.126085
H58   H     H_    0.595203 0.302144 0.713762 0.110587
H59   H     H_    0.593950 0.288325 0.502922 0.151631
H60   H     H_    0.572538 0.346178 0.565203 0.116214
H61   H     H_    0.714496 0.062261 0.633140 0.126083
H62   H     H_    0.787375 0.443954 0.076809 -0.022915
H63   H     H_    0.787376 0.556050 0.576805 -0.022927
H64   H     H_    0.287362 0.943936 0.076601 -0.022920
H65   H     H_    0.039374 0.684580 0.182997 0.093547
H66   H     H_    0.287362 0.056054 0.576657 -0.022914
H67   H     H_    0.797758 0.444977 0.865805 0.028578
H68   H     H_    0.797755 0.555019 0.365795 0.028580
H69   H     H_    0.297782 0.945009 0.865633 0.028656
H70   H     H_    0.297777 0.055003 0.365682 0.028634
H71   H     H_    0.753175 0.527663 0.051747 0.108942
H72   H     H_    0.753178 0.472339 0.551770 0.108941
H73   H     H_    0.253171 0.027653 0.051693 0.108947
H74   H     H_    0.253176 0.972334 0.551645 0.108935
H75   H     H_    0.762354 0.527691 0.842439 0.103154
H76   H     H_    0.539373 0.815420 0.682984 0.093548
H77   H     H_    0.762352 0.472304 0.342454 0.103146
H78   H     H_    0.262380 0.027723 0.842407 0.103141
H79   H     H_    0.262380 0.972289 0.342354 0.103140
H80   H     H_    0.079507 0.246765 0.556159 0.068163
H81   H     H_    0.079509 0.753235 0.056188 0.068163
H82   H     H_    0.579508 0.746765 0.556163 0.068164
H83   H     H_    0.579509 0.253235 0.056194 0.068164
H84   H     H_    0.041067 0.226967 0.710412 0.136001
H85   H     H_    0.041067 0.773033 0.210442 0.136001
H86   H     H_    0.541066 0.726967 0.710414 0.136002
H87   H     H_    0.539373 0.184580 0.183003 0.093550
H88   H     H_    0.541066 0.273033 0.210443 0.136002
H89   H     H_    0.998445 0.190701 0.181386 0.066918
H90   H     H_    0.998445 0.809298 0.681420 0.066918
H91   H     H_    0.498444 0.690702 0.181390 0.066918
H92   H     H_    0.498443 0.309297 0.681425 0.066918
H93   H     H_    0.178264 0.635599 0.204969 0.083841
H94   H     H_    0.178263 0.364401 0.704966 0.083843
H95   H     H_    0.678265 0.135599 0.204969 0.083841
H96   H     H_    0.678264 0.864402 0.704965 0.083843
H97   H     H_    0.262135 0.663621 0.169206 0.060107
H98   H     H_    0.224764 0.456554 0.340308 0.122556
H99   H     H_    0.262133 0.336379 0.669219 0.060106
H100  H     H_    0.762135 0.163620 0.169206 0.060107
H101  H     H_    0.762133 0.836380 0.669219 0.060106
H102  H     H_    0.831698 0.220471 0.251651 0.061836
H103  H     H_    0.831695 0.779529 0.751675 0.061835
H104  H     H_    0.331698 0.720472 0.251651 0.061836
H105  H     H_    0.331693 0.279528 0.751676 0.061836
H106  H     H_    0.828505 0.359710 0.979128 0.073484
H107  H     H_    0.828506 0.640289 0.479133 0.073486
H108  H     H_    0.328503 0.859712 0.979129 0.073476
H109  H     H_    0.224762 0.543449 0.840319 0.122557
H110  H     H_    0.328503 0.140287 0.479135 0.073479
H111  H     H_    0.171010 0.778191 0.935998 0.053308
H112  H     H_    0.171013 0.221808 0.435976 0.053308
H113  H     H_    0.671011 0.278191 0.935997 0.053308
H114  H     H_    0.671015 0.721808 0.435973 0.053308
H115  H     H_    0.740650 0.334788 0.017216 0.049252
H116  H     H_    0.740652 0.665211 0.517205 0.049251
H117  H     H_    0.240648 0.834789 0.017218 0.049253
H118  H     H_    0.240650 0.165210 0.517207 0.049252
H119  H     H_    0.147495 0.713942 0.760608 0.067698
H120  H     H_    0.724764 0.956554 0.340308 0.122556
H121  H     H_    0.147496 0.286057 0.260595 0.067697
H122  H     H_    0.647495 0.213941 0.760608 0.067699
H123  H     H_    0.647496 0.786057 0.260594 0.067697
H124  H     H_    0.055696 0.591367 0.851235 0.053934
H125  H     H_    0.055697 0.408632 0.351231 0.053933
H126  H     H_    0.555696 0.091367 0.851235 0.053934
H127  H     H_    0.555697 0.908632 0.351231 0.053933
H128  H     H_    0.040054 0.269422 0.251179 -0.020918
H129  H     H_    0.040055 0.730578 0.751201 -0.020918
H130  H     H_    0.540054 0.769423 0.251181 -0.020918
H131  H     H_    0.724762 0.043449 0.840320 0.122558
H132  H     H_    0.540054 0.230577 0.751204 -0.020917
H133  H     H_    0.996599 0.205052 0.971957 0.121077
H134  H     H_    0.996598 0.794947 0.471988 0.121078
H135  H     H_    0.496598 0.705052 0.971960 0.121077
H136  H     H_    0.496597 0.294947 0.471994 0.121078
H137  H     H_    0.130841 0.473246 0.338232 0.010328
H138  H     H_    0.130839 0.526758 0.838225 0.010326
H139  H     H_    0.630841 0.973246 0.338232 0.010329
H140  H     H_    0.630839 0.026758 0.838224 0.010326
H141  H     H_    0.119385 0.452395 0.132704 0.068151
H142  H     H_    0.187558 0.403400 0.285249 0.069087
H143  H     H_    0.119388 0.547604 0.632693 0.068153
H144  H     H_    0.619386 0.952395 0.132704 0.068151
H145  H     H_    0.619388 0.047604 0.632693 0.068152
H146  H     H_    0.670794 0.509591 0.881207 0.140817
H147  H     H_    0.700487 0.458408 0.796711 0.129498
H148  H     H_    0.691046 0.459117 0.007094 0.135043
H149  H     H_    0.670791 0.490407 0.381274 0.140814
H150  H     H_    0.691052 0.540895 0.507099 0.135034
H151  H     H_    0.700481 0.541579 0.296699 0.129497
H152  H     H_    0.170807 0.009612 0.881045 0.140814
O1    O     O_2   0.898940 0.431940 0.867860 -0.459261
O2    O     O_3   0.038245 0.709096 0.511076 -0.576834
O3    O     O_3   0.538245 0.790904 0.011059 -0.576835
O4    O     O_3   0.538245 0.209096 0.511078 -0.576835
O5    O     O_3   0.058810 0.523750 0.066650 -0.506077
O6    O     O_3   0.058810 0.476250 0.566650 -0.506088
O7    O     O_3   0.558810 0.023750 0.066650 -0.506076
O8    O     O_3   0.558810 0.976250 0.566650 -0.506088
O9    O     O_3   0.941140 0.476130 0.123050 -0.488232
O10   O     O_3   0.941140 0.523870 0.623050 -0.488241
O11   O     O_3   0.441140 0.976130 0.123050 -0.488226
O12   O     O_2   0.898940 0.568060 0.367860 -0.459261
O13   O     O_3   0.441140 0.023870 0.623050 -0.488235
O14   O     O_3   0.982430 0.389880 0.635700 -0.504086
O15   O     O_3   0.982430 0.610120 0.135700 -0.504089
O16   O     O_3   0.482430 0.889880 0.635700 -0.504086
O17   O     O_3   0.482430 0.110120 0.135700 -0.504089
O18   O     O_2   0.901557 0.348624 0.755648 -0.472954
O19   O     O_2   0.901558 0.651377 0.255658 -0.472953
O20   O     O_2   0.401557 0.848624 0.755648 -0.472955
O21   O     O_2   0.401558 0.151376 0.255659 -0.472953
O22   O     O_3   0.844147 0.490567 0.015917 -0.643138
O23   O     O_2   0.398940 0.931940 0.867860 -0.459284
O24   O     O_3   0.844147 0.509432 0.515911 -0.643139
O25   O     O_3   0.344147 0.990568 0.015926 -0.643154
O26   O     O_3   0.344148 0.009432 0.515915 -0.643155
O27   O     O_3   0.964432 0.289159 0.636525 -0.591984
O28   O     O_3   0.964432 0.710842 0.136543 -0.591985
O29   O     O_3   0.464431 0.789159 0.636523 -0.591985
O30   O     O_3   0.464431 0.210841 0.136539 -0.591986
O31   O     O_2   0.100770 0.431440 0.821660 -0.451601
O32   O     O_2   0.100770 0.568560 0.321660 -0.451607
O33   O     O_2   0.600770 0.931440 0.821660 -0.451601
O34   O     O_2   0.398940 0.068060 0.367860 -0.459274
O35   O     O_2   0.600770 0.068560 0.321660 -0.451607
O36   O     O_3   0.017130 0.389790 0.053700 -0.465973
O37   O     O_3   0.017130 0.610210 0.553700 -0.465969
O38   O     O_3   0.517130 0.889790 0.053700 -0.465972
O39   O     O_3   0.517130 0.110210 0.553700 -0.465968
O40   O     O_2   0.106153 0.355942 0.970157 -0.479922
O41   O     O_2   0.106153 0.644058 0.470166 -0.479923
O42   O     O_2   0.606152 0.855942 0.970156 -0.479922
O43   O     O_2   0.606153 0.144058 0.470164 -0.479924
O44   O     O_3   0.160722 0.484269 0.670198 -0.634333
O45   O     O_3   0.160721 0.515730 0.170193 -0.634332
O46   O     O_3   0.660722 0.984269 0.670199 -0.634333
O47   O     O_3   0.660721 0.015730 0.170193 -0.634332
O48   O     O_3   0.038245 0.290904 0.011058 -0.576834
P1    P     P_3+3 0.893960 0.447890 0.040050 0.971997
P2    P     P_3+3 0.065107 0.654749 0.585255 0.954476
P3    P     P_3+3 0.565107 0.845250 0.085246 0.954474
P4    P     P_3+3 0.565107 0.154749 0.585255 0.954475
P5    P     P_3+3 0.934106 0.654811 0.112522 0.961257
P6    P     P_3+3 0.934106 0.345189 0.612513 0.961259
P7    P     P_3+3 0.434106 0.154811 0.112522 0.961255
P8    P     P_3+3 0.434106 0.845189 0.612513 0.961257
P9    P     P_3+3 0.893960 0.552110 0.540050 0.971990
P10   P     P_3+3 0.393960 0.947890 0.040050 0.971981
P11   P     P_3+3 0.393960 0.052110 0.540050 0.971976
P12   P     P_3+3 0.105800 0.447360 0.649510 0.979977
P13   P     P_3+3 0.105800 0.552640 0.149510 0.979983
P14   P     P_3+3 0.605800 0.947360 0.649510 0.979977
P15   P     P_3+3 0.605800 0.052640 0.149510 0.979984
P16   P     P_3+3 0.065107 0.345251 0.085246 0.954475

loop_
_geom_bond_atom_site_label_1
_geom_bond_atom_site_label_2
_ccdc_geom_bond_type
O41   P2    D    
C16   H32   S    
C109  O22   S    
C83   C87   A    
Ba3   O33   S    
C1    H80   S    
C86   C91   A    
O23   P10   D    
C46   H100  S    
C102  H143  S    
C115  H72   S    
C104  H145  S    
C16   H31   S    
O18   P6    D    
O38   P3    S    
C59   H117  S    
Ba4   O7    S    
C10   H4    S    
C56   C58   A    
C17   H34   S    
C85   C90   A    
C20   H47   S    
C72   C90   A    
C3    O30   S    
C74   C92   A    
C52   H111  S    
C9    H149  S    
O39   P4    S    
C76   C94   A    
C54   C57   A    
C4    C12   S    
Ba2   P9    S    
C6    C37   A    
C3    C55   S    
Ba1   O10   S    
Ba2   O5    S    
C41   C43   A    
C7    C16   S    
C33   H18   S    
C57   H115  S    
Ba3   O38   S    
C64   C100  S    
C23   H56   S    
C100  H92   S    
Ba2   O6    S    
C82   C86   A    
Ba1   P12   S    
O13   P11   S    
C108  H131  S    
C93   H125  S    
Ba3   P10   S    
C49   C89   S    
C73   H123  S    
Ba1   O1    S    
C85   H95   S    
C21   C96   S    
C62   H129  S    
C30   H12   S    
C116  H73   S    
O29   P8    S    
C114  H71   S    
Ba3   O23   S    
O14   P6    S    
C19   H43   S    
C29   C69   S    
C24   C29   A    
C15   H29   S    
C42   H105  S    
C26   C65   S    
C36   P5    S    
C71   C89   A    
C96   H133  S    
C75   C93   A    
C80   C84   A    
C23   H55   S    
C43   C48   A    
C64   O4    S    
C29   C34   A    
C103  O47   S    
C31   C36   A    
O30   P7    S    
Ba1   O5    S    
C11   H6    S    
C73   C78   A    
C107  H13   S    
C45   C49   A    
O7    P15   S    
C104  H140  S    
C47   C51   A    
C40   H103  S    
C9    H151  S    
C82   P14   S    
C13   C28   A    
C48   C87   S    
C14   H26   S    
C71   C75   A    
C104  O46   S    
C24   H110  S    
C116  H78   S    
C8    H147  S    
Ba3   P14   S    
C28   C32   A    
Ba4   O35   S    
O26   P11   S    
C88   P10   S    
C101  H141  S    
C102  H138  S    
C18   H40   S    
C19   C63   S    
O16   P8    S    
C33   C119  S    
C1    H17   S    
C113  O26   S    
O42   P3    D    
C60   C69   A    
C86   H96   S    
C106  H109  S    
C27   C67   S    
C43   H97   S    
C39   C65   A    
C2    C77   A    
C62   C97   S    
Ba4   P15   S    
Ba3   O16   S    
C13   H108  S    
O9    P1    S    
Ba4   O11   S    
C25   H58   S    
C26   C30   A    
C30   C35   A    
Ba4   O17   S    
C117  H79   S    
C108  H61   S    
C1    C118  S    
O22   P1    S    
O20   P8    D    
C25   C100  S    
C12   H21   S    
C21   H49   S    
O46   P14   S    
C111  H63   S    
C22   H52   S    
C38   P7    S    
C106  H2    S    
Ba2   O9    S    
Ba3   O8    S    
Ba1   O36   S    
C111  C115  S    
C10   H152  S    
C63   O3    S    
Ba3   Ba4   S    
C105  H35   S    
O34   P11   D    
C22   H53   S    
C55   H83   S    
C101  C105  S    
O15   P5    S    
C74   P2    S    
C103  C107  S    
C101  O45   S    
C72   C76   A    
O27   P6    S    
C3    H87   S    
C39   C46   A    
C102  O44   S    
C23   C98   S    
C4    C66   A    
C120  H10   S    
C118  H1    S    
C119  O28   S    
O40   P16   D    
C79   C92   A    
Ba4   O8    S    
C92   H124  S    
C58   C67   A    
C32   H15   S    
C117  H74   S    
C5    C14   S    
C11   H7    S    
Ba4   P11   S    
C61   H128  S    
C103  H144  S    
Ba3   O13   S    
O35   P15   D    
C42   C69   A    
C79   C83   A    
C25   H60   S    
C78   C95   A    
C28   C68   S    
Ba1   O31   S    
C42   C45   A    
C46   C50   A    
Ba2   O32   S    
C119  H9    S    
C12   H23   S    
C80   C93   A    
C81   P15   S    
O24   P9    S    
C8    H146  S    
C102  C106  S    
C18   H38   S    
C112  C116  S    
C63   H130  S    
C60   H118  S    
C107  H57   S    
C58   H116  S    
C7    C38   A    
C100  H136  S    
O31   P12   D    
Ba4   O34   S    
C23   H54   S    
O25   P10   S    
C66   P1    S    
C54   H113  S    
C25   H59   S    
C39   H102  S    
C2    C27   A    
C6    C88   A    
C51   C56   A    
C45   H99   S    
O5    P13   S    
C32   C37   A    
C79   P13   S    
C33   H81   S    
Ba4   O39   S    
C96   H89   S    
C118  O27   S    
C76   P4    S    
C94   H126  S    
C81   C85   A    
Ba2   P13   S    
C5    C36   A    
O6    P12   S    
C10   H3    S    
C104  C108  S    
C44   H19   S    
O1    P1    D    
C111  O24   S    
O48   P16   S    
C70   C87   A    
C110  H106  S    
C11   H5    S    
C6    C15   S    
C97   H134  S    
Ba2   O37   S    
C9    H150  S    
C8    C114  S    
C70   H119  S    
C106  H46   S    
C21   H48   S    
C95   H127  S    
C10   C116  S    
C16   H33   S    
C17   H36   S    
C27   C31   A    
C14   H27   S    
C53   H112  S    
Ba2   O12   S    
C26   C110  A    
C35   P6    S    
C49   C53   A    
C17   C61   S    
C8    H148  S    
C61   C96   S    
C84   H94   S    
C120  H76   S    
C22   C97   S    
C1    H84   S    
C24   C99   A    
C112  O25   S    
Ba1   O14   S    
O19   P5    D    
C20   C64   S    
C59   C68   A    
C77   P9    S    
C70   C74   A    
C15   H30   S    
O33   P14   D    
O2    P2    S    
C105  H98   S    
O47   P15   S    
C107  H120  S    
C115  H77   S    
C61   O48   S    
C66   C110  A    
C112  H64   S    
C20   H44   S    
C34   C38   A    
C31   H14   S    
Ba1   O6    S    
C98   H135  S    
C40   C67   A    
C12   H22   S    
Ba1   Ba2   S    
C113  C117  S    
C18   C62   S    
C81   C94   A    
O12   P9    D    
O10   P9    S    
C21   H50   S    
C99   P11   S    
C47   H101  S    
C113  H70   S    
C4    C35   A    
O37   P2    S    
C119  H65   S    
C14   H25   S    
C97   H90   S    
C71   H121  S    
Ba3   O7    S    
C19   H41   S    
C2    H107  S    
C37   P8    S    
O44   P12   S    
C120  O29   S    
C13   C88   A    
C114  H75   S    
C118  H8    S    
C9    C115  S    
O36   P16   S    
C109  H67   S    
C17   H37   S    
O8    P14   S    
O3    P3    S    
C51   C91   S    
C73   C91   A    
C108  H24   S    
C41   H104  S    
Ba2   O15   S    
C3    H11   S    
C82   C95   A    
O21   P7    D    
C19   H42   S    
C64   H132  S    
O45   P13   S    
C15   H28   S    
C52   C59   A    
C78   P3    S    
C20   H45   S    
C33   H85   S    
C112  H69   S    
C40   C47   A    
C44   H86   S    
C55   H20   S    
C75   P16   S    
C56   H114  S    
C111  H68   S    
C55   H88   S    
O4    P4    S    
C53   C60   A    
C50   C54   A    
C57   C65   A    
C84   C89   A    
C11   C117  S    
O28   P5    S    
C72   H122  S    
C105  H142  S    
C44   C120  S    
C103  H139  S    
C80   P12   S    
C18   H39   S    
C22   H51   S    
C109  H62   S    
C62   O2    S    
O11   P10   S    
C83   H93   S    
O17   P7    S    
O32   P13   D    
C50   C90   S    
C113  H66   S    
C109  C114  S    
C98   H91   S    
O43   P4    D    
C101  H137  S    
C44   H82   S    
C34   H16   S    
C7    C99   A    
Ba1   P1    S    
C48   C52   A    
C63   C98   S    
C5    C77   A    
C41   C68   A    
