data_mof_unit_10380.cif
_audit_creation_date              2012-12-11T16:53:52-0500
_audit_creation_method            fapswitch 2.2
_symmetry_space_group_name_H-M    P1
_symmetry_Int_Tables_number       1
_space_group_crystal_system       triclinic
_cell_length_a                    14.872768
_cell_length_b                    14.757386
_cell_length_c                    17.029823
_cell_angle_alpha                 108.935524
_cell_angle_beta                  106.182805
_cell_angle_gamma                 107.958919
_cell_volume                      3050.75307492

loop_
_atom_site_label
_atom_site_type_symbol
_atom_type_description
_atom_site_fract_x
_atom_site_fract_y
_atom_site_fract_z
_atom_type_partial_charge
C1    C     C_R   0.094434 0.276746 0.035817 -0.139494
C2    C     C_R   0.065636 0.483069 0.253677 -0.120743
C3    C     C_R   0.279905 0.783855 0.174991 -0.133905
C4    C     C_R   0.939080 0.464299 0.734608 -0.123574
C5    C     C_R   0.742990 0.469397 0.052956 -0.123831
C6    C     C_R   0.336050 0.779155 0.252181 0.063530
C7    C     C_R   0.714886 0.545878 0.038256 0.071754
C8    C     C_R   0.975286 0.421498 0.255545 0.065415
C9    C     C_R   0.997759 0.823883 0.985806 0.055231
C10   C     C_R   0.525279 0.658344 0.047586 0.164483
C11   C     C_R   0.473502 0.602012 0.086262 0.032049
C12   C     C_R   0.032368 0.479151 0.726211 0.062732
C13   C     C_R   0.529083 0.567952 0.142457 -0.199629
C14   C     C_R   0.620488 0.564044 0.138134 -0.197813
C15   C     C_R   0.654852 0.593189 0.076960 0.032490
C16   C     C_R   0.753630 0.200307 0.811938 -0.131633
C17   C     C_R   0.614607 0.653383 0.042401 0.169126
C18   C     C_3   0.584169 0.650999 0.949813 -0.525904
C19   C     C_3   0.487140 0.657214 0.955903 -0.528262
C20   C     C_R   0.969670 0.381290 0.323135 0.129590
C21   C     C_R   0.043422 0.437600 0.640658 0.131855
C22   C     C_R   0.148614 0.455201 0.555991 -0.225454
C23   C     C_R   0.725530 0.193426 0.724956 0.063025
C24   C     C_R   0.141618 0.473990 0.638889 -0.173777
C25   C     C_R   0.953927 0.369105 0.558476 -0.277487
C26   C     C_R   0.959544 0.356464 0.475892 0.189305
C27   C     C_R   0.057367 0.403876 0.475330 0.189465
C28   C     C_R   0.301081 0.595855 0.004228 -0.159357
C29   C     C_R   0.061752 0.411452 0.397352 -0.281020
C30   C     C_R   0.872904 0.323703 0.320330 -0.175838
C31   C     C_R   0.868086 0.309307 0.396034 -0.223138
C32   C     C_R   0.680659 0.097267 0.638906 0.135515
C33   C     C_R   0.444373 0.850745 0.317317 0.127891
C34   C     C_R   0.360982 0.563126 0.055225 0.082871
C35   C     C_R   0.582736 0.029829 0.394243 -0.222216
C36   C     C_R   0.497108 0.946910 0.316036 -0.173992
C37   C     C_R   0.488760 0.831851 0.390871 -0.278129
C38   C     C_R   0.567483 0.916715 0.471682 0.190271
C39   C     C_R   0.611373 0.017745 0.474362 0.189032
C40   C     C_R   0.756913 0.296500 0.735011 -0.133022
C41   C     C_R   0.671922 0.106927 0.558194 -0.278474
C42   C     C_R   0.646178 0.995825 0.636041 -0.172983
C43   C     C_R   0.591555 0.905391 0.552326 -0.226505
C44   C     C_R   0.114750 0.070947 0.952085 0.140686
C45   C     C_R   0.272876 0.687932 0.252082 -0.121873
C46   C     C_R   0.018365 0.073798 0.939522 0.040054
C47   C     C_R   0.927773 0.977223 0.877862 -0.198044
C48   C     C_R   0.934955 0.887738 0.822033 -0.185837
C49   C     C_R   0.032221 0.892487 0.827419 0.022120
C50   C     C_R   0.121083 0.981776 0.897838 0.157995
C51   C     C_3   0.217574 0.046437 0.894398 -0.490679
C52   C     C_R   0.296399 0.498564 0.079616 -0.135881
C53   C     C_3   0.210980 0.144545 0.953141 -0.506795
C54   C     C_R   0.112268 0.542663 0.813279 -0.137280
C55   C     C_R   0.921138 0.190551 0.962753 -0.116995
C56   C     C_R   0.749848 0.565581 0.975565 -0.142045
C57   C     C_R   0.011577 0.175621 0.980672 0.061537
C58   C     C_R   0.892946 0.396385 0.176683 -0.149556
C59   C     C_R   0.083664 0.807588 0.022787 -0.123088
C60   C     C_R   0.912944 0.723775 0.941240 -0.129300
H1    H     H_    0.176257 0.296464 0.065322 0.102683
H2    H     H_    0.654827 0.525269 0.172860 0.127034
H3    H     H_    0.637821 0.723455 0.950725 0.191396
H4    H     H_    0.863085 0.428378 0.679838 0.084687
H5    H     H_    0.565958 0.573859 0.893974 0.200367
H6    H     H_    0.485219 0.733582 0.961007 0.189428
H7    H     H_    0.415319 0.583975 0.903356 0.200980
H8    H     H_    0.137310 0.451857 0.399658 0.114883
H9    H     H_    0.800479 0.295979 0.262777 0.112962
H10   H     H_    0.224373 0.490069 0.556097 0.125527
H11   H     H_    0.792549 0.270973 0.395138 0.121000
H12   H     H_    0.743128 0.621411 0.949803 0.105860
H13   H     H_    0.212612 0.523039 0.701059 0.115472
H14   H     H_    0.878257 0.334790 0.558414 0.114221
H15   H     H_    0.730190 0.135590 0.829106 0.082298
H16   H     H_    0.656666 0.985727 0.697544 0.112452
H17   H     H_    0.617824 0.106512 0.395024 0.119978
H18   H     H_    0.559685 0.827875 0.550905 0.124127
H19   H     H_    0.467525 0.961992 0.258385 0.112556
H20   H     H_    0.453359 0.756087 0.391031 0.113329
H21   H     H_    0.864737 0.816987 0.770819 0.127160
H22   H     H_    0.285761 0.036286 0.930556 0.186091
H23   H     H_    0.813429 0.337598 0.149475 0.086623
H24   H     H_    0.205599 0.037480 0.824355 0.200334
H25   H     H_    0.276129 0.191200 0.022708 0.184936
H26   H     H_    0.328619 0.661841 0.988810 0.100380
H27   H     H_    0.195097 0.192376 0.916971 0.207221
H28   H     H_    0.734778 0.320995 0.682567 0.085119
H29   H     H_    0.320327 0.471942 0.130504 0.081870
H30   H     H_    0.195020 0.571239 0.832870 0.093479
H31   H     H_    0.294088 0.650857 0.294779 0.082694
H32   H     H_    0.703763 0.184126 0.559346 0.112333
H33   H     H_    0.850999 0.972312 0.867325 0.120152
H34   H     H_    0.164184 0.866193 0.055951 0.093456
H35   H     H_    0.842900 0.128559 0.929394 0.080900
H36   H     H_    0.835996 0.705305 0.895285 0.088650
H37   H     H_    0.145143 0.505912 0.297183 0.083948
H38   H     H_    0.309516 0.836116 0.146821 0.082468
H39   H     H_    0.728809 0.434826 0.097787 0.093795
H40   H     H_    0.496168 0.531589 0.179927 0.123380
N1    N     N_R   0.055640 0.348550 0.045600 -0.040164
N2    N     N_R   0.811290 0.303400 0.871650 -0.038685
N3    N     N_R   0.205180 0.552990 0.997660 -0.036785
N4    N     N_R   0.814810 0.361830 0.823710 -0.038515
N5    N     N_R   0.201660 0.494570 0.045600 -0.037353
N6    N     N_R   0.068420 0.560530 0.871650 -0.039884
N7    N     N_R   0.948050 0.295860 0.997660 -0.039305
N8    N     N_R   0.185190 0.638170 0.176290 -0.039124
N9    N     N_R   0.798340 0.505430 0.954400 -0.041485
N10   N     N_R   0.931580 0.439470 0.128350 -0.038387
N11   N     N_R   0.051950 0.704140 0.002340 -0.040638
N12   N     N_R   0.944360 0.651450 0.954400 -0.040432
N13   N     N_R   0.039170 0.492150 0.176290 -0.039656
N14   N     N_R   0.188710 0.696600 0.128350 -0.037741
N15   N     N_R   0.794820 0.447010 0.002340 -0.041954
N16   N     N_R   0.960830 0.507850 0.823710 -0.039736
Ni1   Ni    Ni4+2 0.119330 0.493420 0.109950 0.206626
Ni2   Ni    Ni4+2 0.880670 0.506580 0.890050 0.212073
Ni3   Ni    Ni4+2 0.872590 0.372590 0.000000 0.212560
Ni4   Ni    Ni4+2 0.127410 0.627410 0.000000 0.207888

loop_
_geom_bond_atom_site_label_1
_geom_bond_atom_site_label_2
_ccdc_geom_bond_type
N1    N7    A    
C6    C45   A    
C27   C29   A    
C16   H15   S    
N3    Ni4   S    
C28   N3    A    
C3    C6    A    
C39   C41   A    
C20   C30   A    
C18   H5    S    
C26   C27   A    
C8    C20   S    
C54   H30   S    
C30   C31   A    
C2    N13   A    
C24   H13   S    
C10   C17   A    
C23   C40   A    
C14   H2    S    
C33   C36   A    
C48   H21   S    
C19   H6    S    
C25   H14   S    
N8    N14   A    
C8    C58   A    
C44   C53   S    
N3    N5    A    
C5    H39   S    
C2    H37   S    
C56   H12   S    
C59   N11   A    
C32   C41   A    
C19   H7    S    
C59   H34   S    
C4    C12   A    
C45   N8    A    
C31   H11   S    
C28   C34   A    
C26   C31   A    
C3    N14   A    
C13   C14   A    
C5    N15   A    
N5    Ni1   S    
C52   H29   S    
C7    C56   A    
C45   H31   S    
N7    Ni3   S    
C44   C46   A    
N9    Ni2   S    
C50   C51   S    
N4    Ni2   S    
C20   C29   A    
C37   H20   S    
C54   N6    A    
C55   H35   S    
C5    C7    A    
C18   C19   S    
C25   C26   A    
C12   C21   S    
C35   H17   S    
C33   C37   A    
C55   N7    A    
N11   Ni4   S    
C43   H18   S    
C35   C36   A    
C35   C39   A    
C37   C38   A    
C60   N12   A    
C1    C57   A    
C40   N4    A    
C29   H8    S    
C47   C48   A    
N10   N13   A    
C10   C19   S    
C17   C18   S    
C47   H33   S    
C53   H27   S    
N2    N4    A    
C51   H22   S    
N13   Ni1   S    
C60   H36   S    
C16   N2    A    
C48   C49   A    
C52   N5    A    
C16   C23   A    
N15   Ni3   S    
C22   C27   A    
C55   C57   A    
C46   C57   S    
C28   H26   S    
C22   C24   A    
C42   C43   A    
C1    N1    A    
C56   N9    A    
C30   H9    S    
C44   C50   A    
C15   C17   A    
C21   C25   A    
C46   C47   A    
N11   N12   A    
N6    Ni4   S    
C58   N10   A    
C42   H16   S    
N8    Ni1   S    
C4    N16   A    
C11   C34   S    
C2    C8    A    
C36   H19   S    
C1    H1    S    
N10   Ni3   S    
C4    H4    S    
C34   C52   A    
C6    C33   S    
C9    C60   A    
N1    Ni1   S    
C23   C32   S    
C40   H28   S    
C13   H40   S    
C38   C43   A    
C58   H23   S    
N12   Ni2   S    
C11   C13   A    
C3    H38   S    
C38   C39   A    
C7    C15   S    
N16   Ni2   S    
C18   H3    S    
C12   C54   A    
C10   C11   A    
N9    N15   A    
C41   H32   S    
C49   C50   A    
C21   C24   A    
N6    N16   A    
C32   C42   A    
C14   C15   A    
C53   H25   S    
C51   C53   S    
C9    C59   A    
C51   H24   S    
C22   H10   S    
N14   Ni4   S    
N2    Ni3   S    
