data_mof_unit_36441.cif
_audit_creation_date              2013-03-05T16:07:28-0500
_audit_creation_method            fapswitch 2.2
_symmetry_space_group_name_H-M    P1
_symmetry_Int_Tables_number       1
_space_group_crystal_system       triclinic
_cell_length_a                    8.393507
_cell_length_b                    15.270116
_cell_length_c                    18.887111
_cell_angle_alpha                 101.419173
_cell_angle_beta                  90.646782
_cell_angle_gamma                 100.801192
_cell_volume                      2327.85443059

loop_
_atom_site_label
_atom_site_type_symbol
_atom_site_description
_atom_site_fract_x
_atom_site_fract_y
_atom_site_fract_z
_atom_type_partial_charge
P1    P     P_3+3 0.039440 0.410950 0.333260 0.557334
O1    O     O_2   0.871970 0.437290 0.322980 -0.434754
O2    O     O_3   0.121420 0.444460 0.412460 -0.325876
O3    O     O_3   0.661430 0.607560 0.372520 -0.413795
O4    O     O_2   0.772514 0.545256 0.248019 -0.355523
O5    O     O_3   0.004000 0.290821 0.302028 -0.541490
O6    O     O_3   0.722078 0.712309 0.270197 -0.470245
H1    H     H_    0.608224 0.762596 0.363231 0.059290
C1    C     C_3   0.697310 0.868033 0.306315 -0.831194
H2    H     H_    0.819179 0.885853 0.334750 0.285876
H3    H     H_    0.709724 0.878734 0.250018 0.269063
P2    P     P_3+3 0.676740 0.714970 0.563520 0.523285
P3    P     P_3+3 0.130057 0.775723 0.419690 0.476069
O7    O     O_2   0.852280 0.726960 0.542370 -0.343212
O8    O     O_3   0.083990 0.657360 0.410240 -0.388961
O9    O     O_2   0.975202 0.809019 0.446294 -0.310599
O10   O     O_3   0.697180 0.739408 0.658163 -0.501904
O11   O     O_3   0.146751 0.801890 0.333333 -0.555318
C2    C     C_3   0.127153 0.721205 0.280630 0.459465
H4    H     H_    0.009619 0.676156 0.285054 0.185995
H5    H     H_    0.227446 0.684603 0.286017 -0.016393
C3    C     C_3   0.128680 0.744575 0.206023 -0.830704
H6    H     H_    0.032401 0.783953 0.200114 0.297121
H7    H     H_    0.248715 0.785643 0.198188 0.235170
C4    C     C_3   0.212608 0.759861 0.650736 0.091868
H8    H     H_    0.342899 0.767894 0.639686 0.117595
H9    H     H_    0.131358 0.730622 0.601712 0.114364
C5    C     C_3   0.178960 0.854361 0.681629 0.009125
H10   H     H_    0.200288 0.897080 0.640075 0.107694
H11   H     H_    0.049755 0.847817 0.695886 0.188762
Ba1   Ba    Ba6+2 0.853510 0.540900 0.466480 1.601928
C6    C     C_3   0.906959 0.238405 0.344339 0.848970
H12   H     H_    0.805337 0.271041 0.363277 -0.042727
C7    C     C_3   0.844187 0.142194 0.298211 -0.920625
H13   H     H_    0.793016 0.142441 0.244372 0.242582
H14   H     H_    0.750450 0.103350 0.327227 0.235456
H15   H     H_    0.945482 0.104592 0.287359 0.279874
C8    C     C_3   0.734251 0.665417 0.683893 0.414425
H16   H     H_    0.847484 0.647626 0.660984 0.078964
H17   H     H_    0.633316 0.605513 0.670264 0.132524
C9    C     C_3   0.758025 0.693171 0.765881 -0.892812
H18   H     H_    0.863809 0.750182 0.780937 0.278614
H19   H     H_    0.779669 0.635471 0.789488 0.206130
H20   H     H_    0.647601 0.715284 0.789177 0.269132
P4    P     P_3+3 0.150270 0.589130 0.666750 0.449732
O12   O     O_2   0.317740 0.562750 0.677070 -0.371293
O13   O     O_3   0.068290 0.555610 0.587550 -0.416042
O14   O     O_3   0.528280 0.392520 0.627490 -0.390456
O15   O     O_3   0.185158 0.706864 0.702871 -0.558606
P5    P     P_3+3 0.048959 0.229892 0.599631 0.562253
O16   O     O_3   0.609300 0.386850 0.459730 -0.390854
O17   O     O_3   0.105720 0.342720 0.589770 -0.326076
O18   O     O_2   0.159261 0.177618 0.549299 -0.309316
O19   O     O_3   0.108030 0.217470 0.686416 -0.518574
Ba2   Ba    Ba6+2 0.336320 0.459170 0.533530 1.616615
P6    P     P_3+3 0.644399 0.600801 0.279604 0.476303
C10   C     C_3   0.621615 0.769305 0.305936 0.433675
H21   H     H_    0.500334 0.753336 0.277179 0.033747
H22   H     H_    0.619068 0.913498 0.334853 0.205951
O20   O     O_3   0.580410 0.613230 0.540280 -0.436758
C11   C     C_3   0.525773 0.284200 0.301042 0.833843
H23   H     H_    0.605292 0.349904 0.325360 0.040398
C12   C     C_3   0.588604 0.250759 0.226838 -1.052837
H24   H     H_    0.538610 0.177198 0.206546 0.292826
H25   H     H_    0.554130 0.289836 0.187220 0.243081
H26   H     H_    0.721797 0.263642 0.229909 0.224395
P7    P     P_3+3 0.520239 0.270269 0.439147 0.481721
O21   O     O_2   0.337420 0.273080 0.457680 -0.246322
O22   O     O_3   0.520448 0.219825 0.345742 -0.621858
H27   H     H_    0.105384 0.681211 0.163831 0.234334
C13   C     C_3   0.004370 0.251166 0.739150 0.467002
H28   H     H_    0.894010 0.265639 0.714575 -0.067643
C14   C     C_3   0.942249 0.179980 0.785923 -0.106254
H29   H     H_    0.034818 0.176676 0.827044 0.141933
H30   H     H_    0.836438 0.199845 0.815523 0.086267
P8    P     P_3+3 0.549800 0.404003 0.721074 0.427615
C15   C     C_3   0.499582 0.229091 0.688974 0.393868
H31   H     H_    0.631409 0.239316 0.680304 0.010570
O23   O     O_2   0.439192 0.469851 0.754766 -0.393842
O24   O     O_3   0.462869 0.299658 0.742191 -0.526451
H32   H     H_    0.431618 0.224789 0.637219 0.151966
H33   H     H_    0.516241 0.142028 0.765237 0.264939
C16   C     C_3   0.449636 0.139332 0.713509 -0.763529
H34   H     H_    0.477344 0.082690 0.671837 0.229811
H35   H     H_    0.317686 0.126041 0.722031 0.295603
C17   C     C_R   0.988801 0.463342 0.047568 0.086798
C18   C     C_R   0.897839 0.414280 0.094489 -0.112464
C19   C     C_R   0.765804 0.423160 0.950648 -0.162722
C20   C     C_R   0.926562 0.464837 0.976543 0.062937
C21   C     C_R   0.710415 0.420382 0.880081 -0.173641
C22   C     C_R   0.812558 0.458007 0.831101 -0.003177
C23   C     C_R   0.971050 0.505439 0.856346 0.032192
C24   C     C_R   0.027209 0.510195 0.929566 0.050113
C25   C     C_R   0.761925 0.449287 0.757507 0.167887
C26   C     C_R   0.872465 0.481499 0.709285 -0.533293
C27   C     C_R   0.026194 0.532575 0.733140 0.264165
C28   C     C_R   0.074399 0.547196 0.808092 -0.067258
C29   C     C_R   0.148927 0.509968 0.072079 0.029321
C30   C     C_R   0.212171 0.509035 0.143497 -0.007727
C31   C     C_R   0.110325 0.464276 0.191291 -0.026880
C32   C     C_R   0.956746 0.415588 0.164014 -0.046026
H36   H     H_    0.833483 0.472819 0.653107 0.178383
H37   H     H_    0.586742 0.386535 0.864245 0.179597
H38   H     H_    0.879817 0.376225 0.195787 0.146060
C33   C     C_R   0.223204 0.601692 0.836427 -0.035056
C34   C     C_R   0.276357 0.608127 0.907627 -0.196298
C35   C     C_R   0.185060 0.558718 0.954613 0.064343
C36   C     C_R   0.246820 0.556590 0.025211 -0.001781
C37   C     C_R   0.407711 0.596390 0.048931 -0.271203
C38   C     C_R   0.376754 0.551767 0.166394 -0.185450
C39   C     C_R   0.473017 0.594440 0.116520 0.357550
C40   C     C_R   0.435554 0.548027 0.237178 0.150575
C41   C     C_R   0.331125 0.503055 0.281641 -0.461270
C42   C     C_R   0.166972 0.466056 0.263564 0.290314
H39   H     H_    0.302498 0.640061 0.804111 0.184711
H40   H     H_    0.382524 0.494629 0.331362 0.179003
H41   H     H_    0.677954 0.392199 0.983904 0.136079
H42   H     H_    0.779026 0.373216 0.079098 0.114935
H43   H     H_    0.391009 0.653347 0.923896 0.143713
H44   H     H_    0.492181 0.626989 0.014265 0.170019
C43   C     C_R   0.318105 0.831352 0.478829 0.198375
H45   H     H_    0.193560 0.956980 0.426762 0.206306
C44   C     C_R   0.565809 0.801179 0.532791 0.091650
C45   C     C_R   0.750181 0.239500 0.534398 -0.409313
C46   C     C_R   0.833363 0.186368 0.567781 0.230944
C47   C     C_R   0.758631 0.097769 0.570000 -0.207667
C48   C     C_R   0.615878 0.053588 0.527023 0.096954
C49   C     C_R   0.534295 0.108275 0.491795 -0.040384
C50   C     C_R   0.551692 0.957242 0.517453 -0.090338
C51   C     C_R   0.392476 0.923106 0.484030 -0.093052
C52   C     C_R   0.312882 0.980297 0.453284 -0.056465
C53   C     C_R   0.385633 0.069155 0.453952 -0.096045
C54   C     C_R   0.642724 0.892890 0.535400 0.237567
C55   C     C_R   0.399252 0.774582 0.509031 -0.328875
C56   C     C_R   0.602830 0.201304 0.495510 0.141363
H46   H     H_    0.803982 0.309877 0.535447 0.181425
H47   H     H_    0.816541 0.064867 0.605086 0.219596
H48   H     H_    0.319622 0.107054 0.425830 0.211697
N1    N     N_R   0.284441 0.898173 0.745699 0.278685
O25   O     O_R   0.441030 0.917044 0.740640 -0.329322
O26   O     O_R   0.222120 0.921261 0.807780 -0.327068
N2    N     N_R   0.001219 0.230527 0.406753 0.227179
O27   O     O_R   0.040102 0.301161 0.458239 -0.337830
O28   O     O_R   0.027979 0.152300 0.416388 -0.404873
N3    N     N_R   0.364803 0.299877 0.291740 0.203505
O29   O     O_R   0.266077 0.250948 0.238830 -0.386114
O30   O     O_R   0.307990 0.340867 0.349128 -0.388810
N4    N     N_2   0.090336 0.337129 0.782362 -0.127928
H49   H     H_    0.143941 0.380797 0.750582 0.226242
C57   C     C_3   0.191821 0.337820 0.845326 -0.849629
H50   H     H_    0.275017 0.404760 0.861581 0.265298
H51   H     H_    0.265823 0.284160 0.834154 0.287142
H52   H     H_    0.114678 0.327303 0.891412 0.220146
N5    N     N_R   0.895945 0.088555 0.741973 0.264194
O31   O     O_R   0.008711 0.044101 0.718011 -0.330931
O32   O     O_R   0.746834 0.044766 0.739590 -0.353018
N6    N     N_R   0.641563 0.633544 0.129681 0.255370
O33   O     O_R   0.745708 0.580399 0.114144 -0.398847
O34   O     O_R   0.688468 0.719493 0.128644 -0.390134
N7    N     N_2   0.320189 0.682816 0.501172 -0.086212
H53   H     H_    0.327476 0.654711 0.545801 0.204583
C58   C     C_3   0.371342 0.629604 0.437913 -0.548381
H54   H     H_    0.343798 0.557624 0.438958 0.248545
H55   H     H_    0.496309 0.651636 0.440663 0.229302
H56   H     H_    0.337792 0.646695 0.386493 0.145599
N8    N     N_R   0.815855 0.916467 0.546137 0.248402
O35   O     O_R   0.885677 0.906171 0.604817 -0.350131
O36   O     O_R   0.902016 0.959554 0.502154 -0.385429

loop_
_geom_bond_atom_site_label_1
_geom_bond_atom_site_label_2
_geom_bond_distance
_ccdc_geom_bond_type
O14   Ba2   2.836618 S    
C55   N7    1.411687 S    
C12   H25   1.111897 S    
C47   H47   1.069549 S    
C47   C48   1.417013 A    
C34   H43   1.075902 S    
C7    H15   1.111253 S    
C14   H30   1.112811 S    
C14   H29   1.107264 S    
O14   P8    1.745196 S    
O4    P6    1.545181 D    
O5    C6    1.402246 S    
C26   C27   1.395264 A    
P8    O23   1.545230 D    
O7    Ba1   2.919855 S    
Ba2   O21   2.919824 S    
C21   C22   1.401670 A    
C15   H31   1.106791 S    
C4    C5    1.525002 S    
P7    O22   1.779905 S    
P5    O19   1.763100 S    
P3    O11   1.755497 S    
C44   C54   1.418991 A    
C5    H10   1.111622 S    
C2    H5    1.108289 S    
N4    C57   1.452138 S    
C7    H13   1.100337 S    
C37   C39   1.391514 A    
C8    H16   1.106270 S    
C34   C35   1.416968 A    
C15   C16   1.519749 S    
C53   H48   1.076691 S    
P1    Ba1   3.460693 S    
C29   C36   1.418540 A    
C36   C37   1.401667 A    
P1    O1    1.553070 D    
C9    H18   1.110708 S    
C11   C12   1.528831 S    
C11   N3    1.430441 S    
C38   C39   1.423961 A    
C23   C24   1.439652 A    
C38   C40   1.435292 A    
P8    C25   1.855859 S    
C18   C32   1.392976 A    
O2    Ba2   2.843325 S    
N6    O33   1.298529 A    
O19   C13   1.413571 S    
C2    H4    1.106208 S    
C57   H52   1.109874 S    
O12   Ba2   2.877485 S    
P5    O17   1.746848 S    
C35   C36   1.433725 A    
P4    O15   1.759501 S    
C43   C55   1.396114 A    
C1    H2    1.110949 S    
C43   C51   1.406658 A    
N5    O32   1.299493 A    
O17   Ba2   2.746085 S    
C41   H40   1.069602 S    
C28   C33   1.399244 A    
C13   N4    1.455104 S    
C12   H26   1.097030 S    
N6    O34   1.301766 A    
Ba1   O13   2.842706 S    
Ba2   O20   2.795875 S    
O3    P6    1.740089 S    
N8    O36   1.302924 A    
C9    H19   1.105377 S    
C11   H23   1.105751 S    
C5    N1    1.459101 S    
O6    P6    1.749953 S    
C49   C53   1.398616 A    
C40   C41   1.401603 A    
N3    O30   1.284105 A    
C23   C28   1.424907 A    
N3    O29   1.302743 A    
C58   H55   1.037150 S    
P4    O13   1.585765 S    
P5    O18   1.547381 D    
C45   H46   1.081065 S    
C44   C55   1.421827 A    
P7    O21   1.584270 D    
C2    C3    1.520166 S    
C31   C42   1.433847 A    
N4    H49   1.029319 S    
C8    C9    1.522751 S    
C41   C42   1.398354 A    
C49   C56   1.416749 A    
Ba1   O16   2.796348 S    
C22   C23   1.417551 A    
C13   C14   1.553087 S    
C17   C18   1.411866 A    
O11   C2    1.403790 S    
O16   Ba2   2.970396 S    
C4    H8    1.104338 S    
P4    O12   1.553472 D    
C30   C38   1.434599 A    
P1    O5    1.778886 S    
O1    Ba1   2.876858 S    
P1    O2    1.585753 S    
C6    C7    1.545230 S    
Ba1   O20   2.971314 S    
C14   N5    1.455887 S    
P7    C56   1.850325 S    
C48   C50   1.443199 A    
C57   H51   1.107709 S    
H1    C10   1.111961 S    
C58   H56   1.101060 S    
P3    C43   1.882145 S    
C16   H34   1.109795 S    
C15   H32   1.110492 S    
C27   C28   1.430254 A    
P5    C46   1.855967 S    
O16   P7    1.760599 S    
O2    Ba1   2.994056 S    
C1    H3    1.110444 S    
N5    O31   1.300120 A    
C18   H42   1.076623 S    
C50   C54   1.439373 A    
C16   H35   1.107437 S    
P2    O7    1.518264 D    
C29   C30   1.447673 A    
C32   H38   1.069808 S    
P3    O8    1.748393 S    
P2    Ba1   3.498060 S    
N8    O35   1.298218 A    
C9    H20   1.111000 S    
C3    H7    1.110651 S    
P1    C42   1.928613 S    
C52   C53   1.377193 A    
H45   C52   1.079428 S    
N2    O28   1.302383 A    
C3    H27   1.108924 S    
O13   Ba2   2.994909 S    
C58   H54   1.084157 S    
C15   O24   1.403189 S    
C11   O22   1.412128 S    
C45   C56   1.395987 A    
C57   H50   1.109102 S    
C6    N2    1.449425 S    
C33   H39   1.078620 S    
C3    H6    1.110751 S    
P8    O24   1.747217 S    
C19   C21   1.396622 A    
C17   C20   1.440035 A    
N1    O25   1.300548 A    
C26   H36   1.081961 S    
O8    Ba1   2.745580 S    
C4    H9    1.108908 S    
C33   C34   1.390949 A    
C30   C31   1.433696 A    
Ba1   Ba2   4.689281 S    
N7    H53   1.024877 S    
C5    H11   1.111405 S    
C51   C52   1.398899 A    
C50   C51   1.430282 A    
C13   H28   1.109043 S    
C54   N8    1.432073 S    
C6    H12   1.095203 S    
P2    O10   1.751838 S    
C8    H17   1.110020 S    
N1    O26   1.300793 A    
C10   H21   1.110306 S    
C46   C47   1.389449 A    
P2    C44   1.920017 S    
C39   N6    1.427014 S    
C31   C32   1.397852 A    
C7    H14   1.111191 S    
P6    C40   1.883466 S    
C1    C10   1.520912 S    
O10   C8    1.398322 S    
C20   C24   1.421813 A    
C25   C26   1.399192 A    
C17   C29   1.422813 A    
C4    O15   1.388656 S    
C21   H37   1.079273 S    
O3    Ba1   2.837341 S    
C12   H24   1.110846 S    
P2    O20   1.584673 S    
C19   C20   1.415946 A    
P4    Ba2   3.461342 S    
H33   C16   1.109887 S    
P3    O9    1.536773 D    
N2    O27   1.288825 A    
C1    H22   1.111082 S    
C19   H41   1.076639 S    
P4    C27   1.877196 S    
O6    C10   1.406929 S    
C24   C35   1.416802 A    
C48   C49   1.425829 A    
C37   H44   1.075713 S    
N7    C58   1.424785 S    
C45   C46   1.395786 A    
C22   C25   1.422154 A    
