data_mof_unit_23089.cif
_audit_creation_date              2012-12-10T19:12:18-0500
_audit_creation_method            fapswitch 2.2
_symmetry_space_group_name_H-M    P1
_symmetry_Int_Tables_number       1
_space_group_crystal_system       triclinic
_cell_length_a                    7.763945
_cell_length_b                    9.09899
_cell_length_c                    17.201644
_cell_angle_alpha                 89.578266
_cell_angle_beta                  92.584728
_cell_angle_gamma                 89.992576
_cell_volume                      1213.92461287

loop_
_atom_site_label
_atom_site_type_symbol
_atom_type_description
_atom_site_fract_x
_atom_site_fract_y
_atom_site_fract_z
_atom_type_partial_charge
C1    C     C_R   0.499987 0.219938 0.500008 0.855531
C2    C     C_R   0.500012 0.780062 0.499992 0.855500
C3    C     C_R   0.518441 0.497240 0.651399 0.806021
C4    C     C_R   0.481560 0.502759 0.348601 0.805992
C5    C     C_R   0.524396 0.495430 0.737326 -0.147157
C6    C     C_R   0.475608 0.504508 0.262673 -0.147167
C7    C     C_R   0.377131 0.464320 0.781047 -0.039847
C8    C     C_R   0.622859 0.535618 0.218940 -0.039864
C9    C     C_R   0.394381 0.462191 0.862063 -0.188378
C10   C     C_R   0.605599 0.537625 0.137923 -0.188246
C11   C     C_R   0.552847 0.494082 0.901126 0.336256
C12   C     C_R   0.447144 0.505639 0.098872 0.336158
C13   C     C_R   0.698753 0.521668 0.858267 0.165099
C14   C     C_R   0.301251 0.478065 0.141742 0.165135
C15   C     C_R   0.683685 0.522171 0.776874 -0.211165
C16   C     C_R   0.316328 0.477665 0.223135 -0.211122
C17   C     C_1   0.500003 0.065343 0.500003 -0.161688
C18   C     C_1   0.499997 0.934656 0.499997 -0.161696
Cu1   Cu    Cu3+1 0.669080 0.500010 0.500000 1.010550
Cu2   Cu    Cu3+1 0.330920 0.499990 0.500000 1.010573
H1    H     H_    0.718530 0.561187 0.105169 0.194677
H2    H     H_    0.281432 0.438630 0.894805 0.194590
H3    H     H_    0.797050 0.545045 0.744352 0.172925
H4    H     H_    0.202976 0.454788 0.255666 0.172891
N1    N     N_1   0.076820 0.499970 0.500010 -0.054544
N2    N     N_1   0.923180 0.500030 0.499990 -0.054554
N3    N     N_2   0.569838 0.500746 0.983457 -0.231143
N4    N     N_2   0.430144 0.498931 0.016542 -0.231181
O1    O     O_R   0.642760 0.288400 0.500000 -0.574454
O2    O     O_R   0.357240 0.711600 0.500000 -0.574469
O3    O     O_R   0.357190 0.288380 0.500000 -0.574635
O4    O     O_R   0.642810 0.711620 0.500000 -0.574658
O5    O     O_R   0.658410 0.498660 0.613920 -0.576309
O6    O     O_R   0.341590 0.501340 0.386080 -0.576323
O7    O     O_R   0.372840 0.498650 0.613930 -0.609022
O8    O     O_R   0.627160 0.501350 0.386070 -0.609090
C19   C     C_2   0.797772 0.564847 0.253941 0.357066
H5    H     H_    0.851672 0.498146 0.301390 0.105422
O9    O     O_2   0.887444 0.661660 0.227415 -0.543193
C20   C     C_2   0.202211 0.435243 0.746028 0.357224
H6    H     H_    0.148317 0.502171 0.698665 0.105262
O10   O     O_2   0.112556 0.338293 0.772436 -0.543152
N5    N     N_3   0.861173 0.552487 0.898249 -0.561491
H7    H     H_    0.954268 0.580178 0.858598 0.224634
H8    H     H_    0.903259 0.455558 0.926069 0.244893
N6    N     N_3   0.138834 0.447159 0.101773 -0.561429
H9    H     H_    0.045713 0.419620 0.141441 0.224679
H10   H     H_    0.096778 0.544017 0.073864 0.244900

loop_
_geom_bond_atom_site_label_1
_geom_bond_atom_site_label_2
_ccdc_geom_bond_type
C1    O3    A    
C7    C20   S    
C4    O8    A    
C19   H5    S    
C3    O7    A    
C2    C18   S    
N5    H8    S    
C16   H4    S    
C1    C17   S    
Cu1   Cu2   S    
C13   C15   A    
C11   N3    S    
N5    H7    S    
Cu2   O6    S    
C15   H3    S    
C1    O1    A    
C17   C18   T    
C5    C7    A    
C19   O9    D    
Cu2   O2    S    
C11   C13   A    
C10   C12   A    
C12   N4    S    
Cu1   O4    S    
C20   O10   D    
C20   H6    S    
C12   C14   A    
C4    O6    A    
Cu1   O8    S    
C9    C11   A    
C10   H1    S    
Cu1   O5    S    
C14   C16   A    
C9    H2    S    
C5    C15   A    
C4    C6    S    
C8    C19   S    
C3    O5    A    
C6    C16   A    
Cu1   O1    S    
N6    H10   S    
C13   N5    S    
C2    O2    A    
C2    O4    A    
Cu2   N1    S    
N3    N4    D    
C7    C9    A    
Cu1   N2    S    
N6    H9    S    
C6    C8    A    
C3    C5    S    
N1    N2    T    
Cu2   O7    S    
C8    C10   A    
C14   N6    S    
Cu2   O3    S    
