data_mof_unit_49132.cif
_audit_creation_date              2012-12-10T17:10:29-0500
_audit_creation_method            fapswitch 2.2
_symmetry_space_group_name_H-M    P1
_symmetry_Int_Tables_number       1
_space_group_crystal_system       triclinic
_cell_length_a                    10.891964
_cell_length_b                    13.025626
_cell_length_c                    11.6367
_cell_angle_alpha                 99.811479
_cell_angle_beta                  96.149079
_cell_angle_gamma                 91.416308
_cell_volume                      1615.88929549

loop_
_atom_site_label
_atom_site_type_symbol
_atom_type_description
_atom_site_fract_x
_atom_site_fract_y
_atom_site_fract_z
_atom_type_partial_charge
C1    C     C_R   0.498692 0.298911 0.478641 0.824821
C2    C     C_R   0.508903 0.861132 0.436586 -0.259349
C3    C     C_R   0.503416 0.031633 0.558042 0.094205
C4    C     C_R   0.508699 0.969285 0.446245 0.054224
C5    C     C_R   0.421798 0.375147 0.017414 0.167338
C6    C     C_R   0.578850 0.625215 0.981942 0.173831
C7    C     C_R   0.421609 0.393307 0.141200 0.019394
C8    C     C_R   0.578569 0.606688 0.858256 0.021772
C9    C     C_R   0.530767 0.555433 0.159881 -0.000761
C10   C     C_R   0.469057 0.444994 0.840133 -0.004114
C11   C     C_R   0.527467 0.546226 0.035883 -0.061425
C12   C     C_R   0.502100 0.701078 0.521691 0.825819
C13   C     C_R   0.472758 0.454372 0.964019 -0.060893
C14   C     C_R   0.261503 0.504438 0.497249 0.813278
C15   C     C_R   0.738308 0.494595 0.502682 0.812275
C16   C     C_R   0.148367 0.632676 0.680806 -0.157767
C17   C     C_R   0.850111 0.364100 0.320069 -0.159085
C18   C     C_R   0.109627 0.663166 0.790832 -0.200820
C19   C     C_R   0.888812 0.332090 0.210412 -0.200947
C20   C     C_R   0.995982 0.625683 0.815811 0.050824
C21   C     C_R   0.003229 0.367724 0.185365 0.052844
C22   C     C_R   0.917346 0.565699 0.723537 -0.201578
C23   C     C_R   0.503916 0.814425 0.535231 -0.097008
C24   C     C_R   0.082639 0.427491 0.277274 -0.202778
C25   C     C_R   0.953443 0.537266 0.608447 0.061216
C26   C     C_R   0.046239 0.458331 0.392000 0.061913
C27   C     C_R   0.076555 0.560707 0.592814 0.066674
C28   C     C_R   0.922711 0.435889 0.407550 0.067299
C29   C     C_R   0.873333 0.484414 0.509655 -0.209763
C30   C     C_R   0.126170 0.512647 0.490434 -0.208557
C31   C     C_R   0.037064 0.346004 0.062546 0.083559
C32   C     C_R   0.995198 0.252823 0.986024 -0.175574
C33   C     C_R   0.019950 0.235941 0.868956 -0.138252
C34   C     C_R   0.500734 0.185694 0.466710 -0.122611
C35   C     C_R   0.086923 0.311301 0.826449 -0.074879
C36   C     C_R   0.130433 0.403242 0.901235 -0.081358
C37   C     C_R   0.106595 0.420438 0.018525 -0.150426
C38   C     C_R   0.961685 0.646295 0.938569 0.084293
C39   C     C_R   0.892002 0.571298 0.981623 -0.149895
C40   C     C_R   0.866683 0.588009 0.098474 -0.082388
C41   C     C_R   0.909000 0.679925 0.173884 -0.077858
C42   C     C_R   0.976197 0.755776 0.132403 -0.132681
C43   C     C_R   0.002342 0.739434 0.015739 -0.170514
C44   C     C_3   0.327477 0.196268 0.001710 -0.705401
C45   C     C_R   0.511649 0.015627 0.345506 0.271487
C46   C     C_3   0.677270 0.802871 0.995936 -0.706035
C47   C     C_3   0.463410 0.979986 0.129351 -0.740055
C48   C     C_3   0.621081 0.081940 0.830865 -0.748864
C49   C     C_R   0.502002 0.984454 0.658691 0.272626
C50   C     C_R   0.508324 0.124079 0.356910 -0.240910
C51   C     C_R   0.500956 0.875926 0.645948 -0.272923
C52   C     C_R   0.498071 0.139450 0.566443 -0.254837
Cu1   Cu    Cu3+1 0.509250 0.507730 0.615930 0.922184
Cu2   Cu    Cu3+1 0.490750 0.492270 0.384070 0.922887
H1    H     H_    0.236557 0.665111 0.666004 0.153387
H2    H     H_    0.513992 0.160562 0.280587 0.162998
H3    H     H_    0.420578 0.379582 0.782245 0.142119
H4    H     H_    0.578756 0.621169 0.217662 0.138989
H5    H     H_    0.618822 0.663479 0.814384 0.143753
H6    H     H_    0.380958 0.336255 0.184522 0.142472
H7    H     H_    0.944267 0.192322 0.016514 0.121943
H8    H     H_    0.987116 0.164200 0.811135 0.126890
H9    H     H_    0.105696 0.298271 0.735744 0.123327
H10   H     H_    0.182634 0.461500 0.868260 0.143183
H11   H     H_    0.138661 0.494016 0.072910 0.133142
H12   H     H_    0.761280 0.332999 0.335018 0.152961
H13   H     H_    0.860767 0.497697 0.926867 0.131166
H14   H     H_    0.814195 0.529411 0.130607 0.143012
H15   H     H_    0.889038 0.692591 0.264240 0.121625
H16   H     H_    0.007922 0.827574 0.190660 0.127372
H17   H     H_    0.053080 0.800465 0.985995 0.120634
H18   H     H_    0.425526 0.250188 0.879453 0.262212
H19   H     H_    0.292918 0.128363 0.933609 0.233565
H20   H     H_    0.249522 0.223282 0.051221 0.245060
H21   H     H_    0.402523 0.171605 0.061544 0.209516
H22   H     H_    0.576858 0.750919 0.118862 0.250613
H23   H     H_    0.172418 0.711720 0.857736 0.131676
H24   H     H_    0.718306 0.868537 0.063785 0.229780
H25   H     H_    0.602804 0.832567 0.939042 0.211727
H26   H     H_    0.751995 0.772976 0.943508 0.242789
H27   H     H_    0.612689 0.925097 0.228715 0.245490
H28   H     H_    0.444008 0.908539 0.062100 0.239860
H29   H     H_    0.524107 0.034503 0.094942 0.221483
H30   H     H_    0.373532 0.014936 0.145887 0.239584
H31   H     H_    0.449167 0.009962 0.826136 0.249270
H32   H     H_    0.611156 0.132395 0.916178 0.229838
H33   H     H_    0.669734 0.128579 0.776648 0.242108
H34   H     H_    0.825448 0.283849 0.143734 0.130730
H35   H     H_    0.677374 0.014900 0.847733 0.230268
H36   H     H_    0.832111 0.537414 0.746959 0.169149
H37   H     H_    0.168798 0.453288 0.253462 0.169471
H38   H     H_    0.511697 0.812414 0.351699 0.175597
H39   H     H_    0.491354 0.187895 0.650774 0.187472
H40   H     H_    0.498259 0.839900 0.723045 0.148761
N1    N     N_R   0.523180 0.519350 0.790130 -0.204785
N2    N     N_R   0.476820 0.480650 0.209870 -0.202937
N3    N     N_2   0.374195 0.278304 0.946468 -0.427673
N4    N     N_2   0.627753 0.722039 0.051866 -0.431448
N5    N     N_2   0.525363 0.952445 0.235295 -0.445070
N6    N     N_2   0.500091 0.045092 0.772538 -0.449843
O1    O     O_R   0.506570 0.354460 0.582000 -0.592587
O2    O     O_R   0.493430 0.645540 0.418000 -0.592023
O3    O     O_R   0.490940 0.341410 0.386200 -0.604367
O4    O     O_R   0.509060 0.658590 0.613800 -0.603477
O5    O     O_R   0.327470 0.506520 0.597900 -0.578215
O6    O     O_R   0.672530 0.493480 0.402100 -0.578882
O7    O     O_R   0.311840 0.493460 0.402100 -0.593553
O8    O     O_R   0.688160 0.506540 0.597900 -0.594589

loop_
_geom_bond_atom_site_label_1
_geom_bond_atom_site_label_2
_ccdc_geom_bond_type
C5    C13   A    
Cu1   N1    S    
C41   C42   A    
C35   C36   A    
C3    C49   A    
Cu1   Cu2   S    
C7    N2    A    
C21   C31   S    
C12   C23   S    
C17   H12   S    
Cu2   O7    S    
C6    N4    S    
C15   O6    A    
C41   H15   S    
C28   C29   A    
C19   C21   A    
C24   C26   A    
C32   H7    S    
C12   O4    A    
C8    H5    S    
C46   H25   S    
Cu1   O4    S    
H22   N4    S    
C42   H16   S    
C47   N5    S    
C9    H4    S    
C47   H28   S    
C34   C52   A    
C17   C19   A    
C14   O5    A    
Cu1   O1    S    
C33   H8    S    
C49   C51   A    
C22   C25   A    
C37   H11   S    
C47   H29   S    
C1    O3    A    
Cu2   N2    S    
H18   N3    S    
C16   C27   A    
C46   N4    S    
C27   C30   A    
C8    N1    A    
C14   C30   S    
C1    C34   S    
C15   C29   S    
C4    C45   A    
C25   C29   A    
C48   N6    S    
C34   C50   A    
Cu2   O6    S    
Cu2   O3    S    
C10   H3    S    
C19   H34   S    
C45   N5    S    
C6    C11   A    
C46   H24   S    
C6    C8    A    
H27   N5    S    
C50   H2    S    
C31   C37   A    
C15   O8    A    
C44   H21   S    
C2    C4    A    
C12   O2    A    
C20   C38   S    
C44   N3    S    
C23   C51   A    
C31   C32   A    
C22   H36   S    
C48   H33   S    
C52   H39   S    
C47   H30   S    
C44   H20   S    
C9    C11   A    
C9    N2    A    
C16   C18   A    
C14   O7    A    
C5    N3    S    
C26   C30   A    
C48   H35   S    
C48   H32   S    
C42   C43   A    
C3    C4    A    
C24   H37   S    
C1    O1    A    
C7    H6    S    
C39   C40   A    
C5    C7    A    
C40   C41   A    
C43   H17   S    
C17   C28   A    
C39   H13   S    
Cu2   O2    S    
C20   C22   A    
C10   C13   A    
C3    C52   A    
C25   C27   A    
C26   C28   A    
C32   C33   A    
C16   H1    S    
C38   C43   A    
H31   N6    S    
C49   N6    S    
C46   H26   S    
C11   C13   A    
Cu1   O8    S    
C38   C39   A    
C10   N1    A    
C18   H23   S    
C2    H38   S    
C33   C35   A    
C18   C20   A    
C44   H19   S    
C51   H40   S    
Cu1   O5    S    
C36   C37   A    
C40   H14   S    
C21   C24   A    
C2    C23   A    
C35   H9    S    
C45   C50   A    
C36   H10   S    
