data_mof_unit_23982.cif
_audit_creation_date              2012-12-11T13:59:57-0500
_audit_creation_method            fapswitch 2.2
_symmetry_space_group_name_H-M    P1
_symmetry_Int_Tables_number       1
_space_group_crystal_system       triclinic
_cell_length_a                    11.248141
_cell_length_b                    11.255397
_cell_length_c                    18.868185
_cell_angle_alpha                 89.620075
_cell_angle_beta                  90.536117
_cell_angle_gamma                 120.588471
_cell_volume                      2056.25199702

loop_
_atom_site_label
_atom_site_type_symbol
_atom_type_description
_atom_site_fract_x
_atom_site_fract_y
_atom_site_fract_z
_atom_type_partial_charge
C1    C     C_R   0.542370 0.478344 0.852815 0.599847
C2    C     C_R   0.457384 0.574616 0.360833 0.513117
C3    C     C_R   0.139050 0.552621 0.357761 0.520266
C4    C     C_R   0.458648 0.937560 0.351372 0.499220
C5    C     C_2   0.003866 0.506490 0.579942 0.281866
C6    C     C_2   0.559600 0.450107 0.564913 0.291984
C7    C     C_2   0.556536 0.133466 0.565093 0.294669
C8    C     C_2   0.505725 0.001912 0.420650 0.277768
C9    C     C_2   0.478902 0.539695 0.432408 0.291487
C10   C     C_2   0.134871 0.557212 0.435124 0.283483
C11   C     C_2   0.069747 0.438663 0.471720 -0.030136
C12   C     C_R   0.521642 0.064337 0.852919 0.666448
C13   C     C_2   0.608864 0.583347 0.455459 -0.022877
C14   C     C_2   0.433635 0.051572 0.452107 -0.014317
C15   C     C_2   0.437770 0.067499 0.528489 -0.000476
C16   C     C_2   0.641044 0.564547 0.527871 -0.021072
C17   C     C_2   0.052685 0.433873 0.548142 -0.014146
C18   C     C_2   0.005938 0.507161 0.921313 0.279727
C19   C     C_2   0.492226 0.500717 0.919773 0.301780
C20   C     C_2   0.496402 0.986449 0.918184 0.306923
C21   C     C_2   0.506784 0.005791 0.078791 0.279297
C22   C     C_2   0.500409 0.491750 0.080305 0.301602
C23   C     C_R   0.935721 0.457535 0.853076 0.588290
C24   C     C_2   0.986108 0.496141 0.081732 0.306342
C25   C     C_2   0.017285 0.604186 0.037607 0.219589
C26   C     C_2   0.391848 0.418473 0.036137 0.276203
C27   C     C_2   0.578538 0.968549 0.036081 0.234782
C28   C     C_2   0.604481 0.017944 0.962616 0.219169
C29   C     C_2   0.418193 0.392166 0.963551 0.275812
C30   C     C_2   0.967917 0.578201 0.964086 0.234306
C31   C     C_R   0.478262 0.542161 0.147239 0.596687
C32   C     C_R   0.064220 0.521510 0.147071 0.664851
C33   C     C_R   0.457383 0.935562 0.146915 0.587550
C34   C     C_R   0.582726 0.449073 0.641006 0.519652
C35   C     C_R   0.552422 0.138720 0.642300 0.513744
C36   C     C_R   0.937915 0.458707 0.648794 0.496096
Cr1   Cr    Cr6+3 0.464030 0.233680 0.750360 1.075346
Cr2   Cr    Cr6+3 0.766320 0.230350 0.750360 1.069967
Cr3   Cr    Cr6+3 0.769650 0.535970 0.750360 1.068479
Cr4   Cr    Cr6+3 0.233680 0.464030 0.249640 1.077006
Cr5   Cr    Cr6+3 0.230350 0.766320 0.249640 1.067616
Cr6   Cr    Cr6+3 0.535970 0.769650 0.249640 1.070402
H1    H     H_    0.024804 0.339271 0.445453 0.110341
H2    H     H_    0.756055 0.243943 0.564445 0.324809
H3    H     H_    0.392129 0.268809 0.565519 0.329282
H4    H     H_    0.955968 0.651255 0.573115 0.330180
H5    H     H_    0.116451 0.801842 0.019035 0.356941
H6    H     H_    0.194698 0.322205 0.016849 0.350081
H7    H     H_    0.672396 0.866334 0.019849 0.353807
H8    H     H_    0.802267 0.117169 0.981572 0.357473
H9    H     H_    0.321291 0.195093 0.982329 0.349888
H10   H     H_    0.864600 0.670908 0.980402 0.354172
H11   H     H_    0.826020 0.355833 0.029105 0.341983
H12   H     H_    0.697834 0.643323 0.421798 0.115034
H13   H     H_    0.697752 0.578689 0.098258 0.328598
H14   H     H_    0.421517 0.116516 0.093452 0.331902
H15   H     H_    0.356126 0.826449 0.970385 0.341803
H16   H     H_    0.580334 0.698081 0.902470 0.329648
H17   H     H_    0.117821 0.423186 0.906588 0.331936
H18   H     H_    0.350752 0.055552 0.424223 0.109559
H19   H     H_    0.338296 0.021733 0.554571 0.109157
H20   H     H_    0.732206 0.651021 0.551555 0.095146
H21   H     H_    0.054931 0.349906 0.575655 0.108548
H22   H     H_    0.243339 0.756644 0.435824 0.326354
H23   H     H_    0.284738 0.422193 0.448901 0.316617
H24   H     H_    0.643554 0.944342 0.429400 0.337711
O1    O     O_R   0.434100 0.092480 0.829780 -0.442953
O2    O     O_R   0.362730 0.477510 0.175360 -0.458840
O3    O     O_R   0.114780 0.637270 0.175360 -0.469871
O4    O     O_R   0.522490 0.885220 0.175360 -0.446141
O5    O     O_R   0.432250 0.092620 0.670380 -0.546814
O6    O     O_R   0.907380 0.339630 0.670380 -0.559073
O7    O     O_R   0.660370 0.567750 0.670380 -0.525045
O8    O     O_R   0.092620 0.432250 0.329620 -0.543579
O9    O     O_R   0.339630 0.907380 0.329620 -0.561254
O10   O     O_R   0.567750 0.660370 0.329620 -0.542989
O11   O     O_R   0.475790 0.362860 0.676880 -0.524767
O12   O     O_R   0.907520 0.341620 0.829780 -0.491461
O13   O     O_R   0.637140 0.112930 0.676880 -0.487706
O14   O     O_R   0.887070 0.524210 0.676880 -0.538607
O15   O     O_R   0.362860 0.475790 0.323120 -0.526944
O16   O     O_R   0.112930 0.637140 0.323120 -0.493026
O17   O     O_R   0.524210 0.887070 0.323120 -0.527878
O18   O     O_3   0.666667 0.333333 0.749450 -0.327235
O19   O     O_3   0.333333 0.666667 0.250550 -0.316384
O20   O     O_3   0.207618 0.681122 0.470888 -0.643158
O21   O     O_3   0.368565 0.477344 0.478057 -0.659888
O22   O     O_3   0.600852 0.983899 0.459553 -0.645641
O23   O     O_R   0.658380 0.565900 0.829780 -0.480685
O24   O     O_3   0.680211 0.206269 0.529340 -0.651405
O25   O     O_3   0.458244 0.333928 0.530371 -0.678373
O26   O     O_3   0.988294 0.603550 0.541721 -0.657127
O27   O     O_3   0.103371 0.739263 0.059287 -0.686343
O28   O     O_3   0.257672 0.373081 0.056894 -0.669319
O29   O     O_3   0.623157 0.880618 0.059186 -0.668295
O30   O     O_3   0.739574 0.104084 0.941233 -0.686706
O31   O     O_3   0.372189 0.257982 0.942450 -0.669510
O32   O     O_3   0.879177 0.621922 0.940996 -0.668767
O33   O     O_3   0.894026 0.359757 0.064177 -0.689424
O34   O     O_R   0.092480 0.434100 0.170220 -0.443227
O35   O     O_3   0.632387 0.529179 0.058833 -0.711516
O36   O     O_3   0.469913 0.099243 0.054812 -0.701536
O37   O     O_3   0.359954 0.894251 0.935355 -0.688524
O38   O     O_3   0.530403 0.632732 0.941637 -0.710835
O39   O     O_3   0.100120 0.471164 0.945322 -0.701256
O40   O     O_R   0.341620 0.907520 0.170220 -0.492354
O41   O     O_R   0.565900 0.658380 0.170220 -0.481928
O42   O     O_R   0.477510 0.362730 0.824640 -0.458417
O43   O     O_R   0.637270 0.114780 0.824640 -0.468554
O44   O     O_R   0.885220 0.522490 0.824640 -0.445964

loop_
_geom_bond_atom_site_label_1
_geom_bond_atom_site_label_2
_ccdc_geom_bond_type
H9    O31   S    
C26   O28   S    
C24   O33   S    
C27   O29   S    
C4    C8    S    
C2    O10   A    
C20   O37   S    
H11   O33   S    
C25   O27   S    
H17   O39   S    
C22   O35   S    
H6    O28   S    
Cr3   O18   S    
C34   O11   A    
H24   O22   S    
C14   H18   S    
H4    O26   S    
Cr2   O13   S    
C6    O25   S    
C5    C36   S    
Cr6   O4    S    
C1    O42   A    
C35   O13   A    
C3    O8    A    
C9    C13   D    
C4    O9    A    
Cr3   O44   S    
C11   C17   S    
C1    O23   A    
Cr1   O18   S    
C11   H1    S    
C18   C30   D    
Cr6   O41   S    
C20   C28   D    
C7    C15   D    
C21   C27   D    
C35   O5    A    
C16   H20   S    
H22   O20   S    
C12   O43   A    
H23   O21   S    
H5    O27   S    
C31   O2    A    
H15   O37   S    
C12   O1    A    
Cr2   O6    S    
C1    C19   S    
C22   C31   S    
C33   O40   A    
C18   C23   S    
C7    C35   S    
C24   C25   D    
Cr1   O42   S    
C36   O14   A    
Cr2   O12   S    
C7    O24   S    
Cr1   O11   S    
C32   O34   A    
C8    O22   S    
Cr4   O19   S    
C24   C32   S    
Cr5   O9    S    
C19   O38   S    
C12   C20   S    
C3    O16   A    
C15   H19   S    
Cr6   O19   S    
H7    O29   S    
Cr2   O43   S    
C33   O4    A    
C21   O36   S    
C5    C17   D    
Cr1   O5    S    
C22   C26   D    
Cr5   O40   S    
H16   O38   S    
C19   C29   D    
H2    O24   S    
Cr5   O3    S    
C13   H12   S    
C25   C30   S    
C23   O44   A    
C30   O32   S    
C10   O20   S    
C8    C14   D    
Cr2   O18   S    
C31   O41   A    
Cr4   O15   S    
Cr6   O17   S    
Cr4   O34   S    
C32   O3    A    
Cr5   O19   S    
H13   O35   S    
Cr6   O10   S    
C29   O31   S    
C28   O30   S    
Cr3   O14   S    
C18   O39   S    
H14   O36   S    
C3    C10   S    
C17   H21   S    
H8    O30   S    
C4    O17   A    
Cr5   O16   S    
Cr1   O1    S    
H10   O32   S    
Cr4   O8    S    
Cr3   O7    S    
C23   O12   A    
H3    O25   S    
C5    O26   S    
C10   C11   D    
C34   O7    A    
C6    C16   D    
C6    C34   S    
C21   C33   S    
C26   C29   S    
Cr4   O2    S    
C13   C16   S    
C27   C28   S    
C14   C15   S    
C2    O15   A    
C2    C9    S    
Cr3   O23   S    
C9    O21   S    
C36   O6    A    
