data_mof_unit_20442.cif
_audit_creation_date              2013-03-05T15:41:44-0500
_audit_creation_method            fapswitch 2.2
_symmetry_space_group_name_H-M    P1
_symmetry_Int_Tables_number       1
_space_group_crystal_system       triclinic
_cell_length_a                    11.106883
_cell_length_b                    12.77668
_cell_length_c                    23.813936
_cell_angle_alpha                 90.119022
_cell_angle_beta                  95.94142
_cell_angle_gamma                 68.863596
_cell_volume                      3132.86680237

loop_
_atom_site_label
_atom_site_type_symbol
_atom_site_description
_atom_site_fract_x
_atom_site_fract_y
_atom_site_fract_z
_atom_type_partial_charge
O1    O     O_R   0.196340 0.303200 0.448500 -0.489801
O2    O     O_R   0.199310 0.519670 0.454880 -0.493523
C1    C     C_R   0.149448 0.615995 0.428802 0.545745
O3    O     O_R   0.045660 0.691380 0.441680 -0.451057
O4    O     O_R   0.811930 0.659460 0.430950 -0.454348
C2    C     C_R   0.750855 0.603005 0.404063 0.555375
O5    O     O_R   0.757900 0.507620 0.421760 -0.452960
O6    O     O_R   0.988630 0.322990 0.439840 -0.470283
C3    C     C_R   0.101221 0.282839 0.423539 0.544785
O7    O     O_R   0.196380 0.301720 0.573850 -0.476933
O8    O     O_R   0.199350 0.518300 0.571080 -0.463738
C4    C     C_R   0.149885 0.615825 0.591001 0.564276
O9    O     O_R   0.045700 0.689900 0.567030 -0.446013
O10   O     O_R   0.811960 0.658090 0.547150 -0.494621
C5    C     C_R   0.751475 0.600683 0.566590 0.544488
O11   O     O_R   0.757930 0.506140 0.547110 -0.450632
O12   O     O_R   0.988670 0.321620 0.556040 -0.466448
C6    C     C_R   0.098697 0.275712 0.584232 0.545466
Cr1   Cr    Cr6+3 0.189770 0.415650 0.511620 1.136542
Cr2   Cr    Cr6+3 0.930400 0.667320 0.496770 1.171122
Cr3   Cr    Cr6+3 0.879870 0.417010 0.491650 1.178580
O13   O     O_3   0.000020 0.499990 0.500010 -0.323265
C7    C     C_R   0.640223 0.761722 0.141850 -0.020438
C8    C     C_R   0.700454 0.631860 0.344729 -0.047336
C9    C     C_R   0.656042 0.561741 0.253589 0.126937
C10   C     C_R   0.669970 0.549942 0.311522 0.173796
C11   C     C_R   0.712567 0.726728 0.318449 0.158983
C12   C     C_R   0.700048 0.736838 0.259091 -0.064742
C13   C     C_R   0.657023 0.659993 0.228364 -0.047765
C14   C     C_R   0.604077 0.686797 0.173256 0.154535
C15   C     C_R   0.706995 0.825728 0.169256 0.088314
C16   C     C_R   0.727008 0.820294 0.228593 0.207626
C17   C     C_1   0.246282 0.145058 0.126201 -0.006104
C18   C     C_2   0.243635 0.173117 0.236515 0.185838
C19   C     C_2   0.134501 0.187577 0.260856 -0.139149
C20   C     C_1   0.122989 0.210972 0.319863 0.035886
C21   C     C_1   0.240412 0.162084 0.175882 -0.043511
C22   C     C_1   0.113546 0.237732 0.368293 0.081668
H1    H     H_    0.047126 0.190602 0.234678 0.074483
C23   C     C_1   0.173618 0.763680 0.126691 0.009225
C24   C     C_2   0.158545 0.746119 0.236823 0.173065
C25   C     C_2   0.215862 0.646062 0.265553 0.156373
C26   C     C_1   0.205678 0.636772 0.325600 0.008783
C27   C     C_1   0.165851 0.752237 0.176296 0.019929
C28   C     C_1   0.187883 0.628207 0.374234 0.027515
C29   C     C_1   0.625039 0.760779 0.864587 0.046927
C30   C     C_2   0.685245 0.727562 0.759392 -0.095366
C31   C     C_2   0.649770 0.654209 0.726938 0.201947
C32   C     C_1   0.675807 0.645114 0.668331 0.018284
C33   C     C_1   0.656501 0.746236 0.817288 0.030472
C34   C     C_1   0.703425 0.629406 0.620500 0.051986
H2    H     H_    0.731587 0.779261 0.741167 0.163018
C35   C     C_R   0.220612 0.161460 0.847753 -0.024488
C36   C     C_R   0.100471 0.212853 0.636764 -0.014007
C37   C     C_R   0.981049 0.226528 0.718481 0.227550
C38   C     C_R   0.982070 0.232067 0.659879 0.185926
C39   C     C_R   0.218036 0.157391 0.670078 0.147601
C40   C     C_R   0.219506 0.157025 0.729508 -0.024463
C41   C     C_R   0.099634 0.189886 0.754268 -0.059396
C42   C     C_R   0.102300 0.182569 0.813974 0.127586
C43   C     C_R   0.331301 0.159097 0.821872 0.198432
C44   C     C_R   0.336307 0.138217 0.764674 0.230406
C45   C     C_R   0.123040 0.757470 0.849934 -0.019917
C46   C     C_R   0.193822 0.633521 0.649774 -0.055325
C47   C     C_R   0.267722 0.546411 0.743962 0.231392
C48   C     C_R   0.269761 0.540203 0.685555 0.167985
C49   C     C_R   0.128735 0.737275 0.673245 0.166310
C50   C     C_R   0.118512 0.742212 0.732060 -0.094641
C51   C     C_R   0.195132 0.647444 0.768100 -0.089180
C52   C     C_R   0.199009 0.657025 0.827510 0.171463
C53   C     C_R   0.025430 0.840334 0.814132 0.083372
C54   C     C_R   0.028233 0.835769 0.755799 0.198376
O14   O     O_R   0.113660 0.883270 0.047820 -0.525978
O15   O     O_R   0.186930 0.068530 0.043990 -0.498400
C55   C     C_R   0.266135 0.108676 0.069703 0.558839
O16   O     O_R   0.377770 0.089040 0.054220 -0.505629
O17   O     O_R   0.562800 0.872960 0.056970 -0.514421
C56   C     C_R   0.592168 0.777463 0.082360 0.546728
O18   O     O_R   0.555390 0.700940 0.062700 -0.481220
O19   O     O_R   0.295020 0.731920 0.049950 -0.467622
C57   C     C_R   0.189493 0.789287 0.069935 0.542271
O20   O     O_R   0.094290 0.884230 0.921550 -0.487694
O21   O     O_R   0.168980 0.069410 0.926940 -0.474775
C58   C     C_R   0.244492 0.112265 0.906001 0.571468
O22   O     O_R   0.358400 0.089990 0.927950 -0.464289
O23   O     O_R   0.544850 0.873850 0.939920 -0.510034
C59   C     C_R   0.573651 0.777219 0.918190 0.537827
O24   O     O_R   0.536020 0.701900 0.936430 -0.447289
O25   O     O_R   0.277070 0.732810 0.932890 -0.450286
C60   C     C_R   0.163524 0.788413 0.906621 0.567966
Cr4   Cr    Cr6+3 0.149500 0.973980 0.985330 1.066375
Cr5   Cr    Cr6+3 0.457000 0.976510 0.994660 1.063053
Cr6   Cr    Cr6+3 0.411170 0.724270 0.995270 1.144243
O26   O     O_3   0.339220 0.891590 0.991750 -0.289700
N1    N     N_R   0.485427 0.667296 0.156213 -0.215833
O27   O     O_R   0.487394 0.575310 0.131989 -0.002910
O28   O     O_R   0.485646 0.575614 0.132120 -0.002906
N2    N     N_2   0.094458 0.846234 0.265790 -0.505456
H3    H     H_    0.042339 0.837990 0.297798 0.295973
C61   C     C_3   0.039576 0.952078 0.233731 -0.262311
H4    H     H_    0.993726 0.020814 0.262230 0.174186
H5    H     H_    0.964216 0.949065 0.199883 0.174678
H6    H     H_    0.117348 0.970560 0.214668 0.152972
N3    N     N_R   0.593504 0.578901 0.748879 0.113799
O29   O     O_R   0.554075 0.516235 0.714260 -0.219209
O30   O     O_R   0.600894 0.558008 0.802826 -0.230278
N4    N     N_R   0.986180 0.194565 0.839466 -0.131197
O31   O     O_R   0.957092 0.254362 0.883542 -0.002397
O32   O     O_R   0.956197 0.254957 0.884104 -0.002399
N5    N     N_R   0.438714 0.178380 0.853690 0.152455
O33   O     O_R   0.557392 0.109526 0.851726 -0.303127
O34   O     O_R   0.416865 0.261358 0.887811 -0.200256
N6    N     N_R   0.858268 0.268088 0.740960 0.135736
O35   O     O_R   0.777712 0.215158 0.733385 -0.136888
O36   O     O_R   0.821511 0.365624 0.763870 -0.233119
N7    N     N_R   0.459887 0.104196 0.742782 0.137795
O37   O     O_R   0.512633 0.177536 0.733352 -0.123687
O38   O     O_R   0.526359 0.997719 0.738557 -0.330793
N8    N     N_R   0.861970 0.257510 0.623942 0.129401
O39   O     O_R   0.853034 0.190480 0.583842 -0.231029
O40   O     O_R   0.760489 0.345005 0.632073 -0.219396
N9    N     N_2   0.334952 0.107455 0.644240 -0.448874
H7    H     H_    0.370588 0.161120 0.625427 0.336243
C62   C     C_3   0.344835 0.007855 0.613224 -0.214370
H8    H     H_    0.440497 0.974537 0.596352 0.175270
H9    H     H_    0.266674 0.027738 0.577262 0.172634
H10   H     H_    0.338785 0.942057 0.642076 0.210433
N10   N     N_R   0.284961 0.568427 0.865603 0.124453
O41   O     O_R   0.236866 0.518770 0.900341 -0.273531
O42   O     O_R   0.409356 0.547780 0.870973 -0.208031
N11   N     N_2   0.754808 0.894684 0.138015 -0.519593
H11   H     H_    0.789829 0.863109 0.100588 0.253958
C63   C     C_3   0.680232 0.014627 0.135519 -0.218963
H12   H     H_    0.643487 0.044170 0.090885 0.160995
H13   H     H_    0.744265 0.059782 0.152644 0.148281
H14   H     H_    0.595098 0.036376 0.160286 0.209619
N12   N     N_2   0.931245 0.934474 0.836977 -0.454830
H15   H     H_    0.899012 0.009982 0.814354 0.330363
C64   C     C_3   0.830160 0.910865 0.861881 -0.207077
H16   H     H_    0.791335 0.974077 0.893830 0.198486
H17   H     H_    0.867907 0.826400 0.883491 0.126647
H18   H     H_    0.750573 0.916074 0.828531 0.206392
N13   N     N_R   0.321458 0.443837 0.777137 0.152339
O43   O     O_R   0.243116 0.398505 0.794290 -0.309698
O44   O     O_R   0.446520 0.388500 0.783243 -0.109583
N14   N     N_R   0.936247 0.926815 0.721556 0.119024
O45   O     O_R   0.814385 0.938222 0.714884 -0.255388
O46   O     O_R   0.969491 0.009573 0.706990 -0.287153
N15   N     N_R   0.335242 0.432972 0.663030 0.133355
O47   O     O_R   0.441089 0.414393 0.638549 -0.194862
O48   O     O_R   0.299513 0.349508 0.673914 -0.311837
N16   N     N_R   0.077858 0.836717 0.636715 0.135013
O49   O     O_R   0.158696 0.868862 0.612270 -0.354436
O50   O     O_R   0.955948 0.875126 0.616116 -0.201819
N17   N     N_2   0.656836 0.468546 0.220171 -0.474814
H19   H     H_    0.611535 0.417965 0.235061 0.299758
C65   C     C_3   0.781215 0.405593 0.200762 -0.270381
H20   H     H_    0.770127 0.340958 0.171477 0.152440
H21   H     H_    0.853502 0.362982 0.237346 0.162729
H22   H     H_    0.817465 0.462122 0.177669 0.151470
N18   N     N_R   0.788695 0.890184 0.256041 -0.160189
O51   O     O_R   0.720381 0.991396 0.270227 -0.002932
O52   O     O_R   0.718529 0.990740 0.270156 -0.002942
N19   N     N_R   0.663372 0.448940 0.335427 0.103015
O53   O     O_R   0.766358 0.356470 0.339456 -0.316500
O54   O     O_R   0.550724 0.444523 0.343793 -0.326817
N20   N     N_R   0.726059 0.815929 0.352067 0.120239
O55   O     O_R   0.627432 0.881276 0.376083 -0.255733
O56   O     O_R   0.840208 0.821169 0.365677 -0.290553
N21   N     N_R   0.365427 0.163669 0.268412 0.088699
O57   O     O_R   0.461465 0.164987 0.241766 -0.345031
O58   O     O_R   0.386614 0.142126 0.322714 -0.262342
N22   N     N_2   0.285426 0.549080 0.236286 -0.526971
H23   H     H_    0.374298 0.548224 0.226481 0.285328
C66   C     C_3   0.285401 0.441340 0.255234 -0.243702
H24   H     H_    0.336139 0.376415 0.225976 0.198101
H25   H     H_    0.183837 0.444007 0.254522 0.137903
H26   H     H_    0.336988 0.417828 0.298476 0.221611

loop_
_geom_bond_atom_site_label_1
_geom_bond_atom_site_label_2
_geom_bond_distance
_ccdc_geom_bond_type
C40   C44   1.411771 A    
C59   O24   1.272334 A    
O17   Cr5   1.964440 S    
Cr6   O26   1.992646 S    
C37   C41   1.415927 A    
N17   C65   1.448559 S    
C18   C21   1.448490 S    
C24   C25   1.354333 D    
C2    O5    1.263135 A    
N1    O27   1.302231 A    
C8    C11   1.420266 A    
C37   C38   1.398906 A    
N10   O41   1.307783 A    
N3    O30   1.300869 A    
N18   O51   1.306033 A    
C29   C59   1.436172 S    
C53   N12   1.429922 S    
O4    Cr2   1.966220 S    
N22   H23   1.033883 S    
N12   C64   1.444335 S    
O8    Cr1   1.948885 S    
C65   H20   1.112056 S    
C35   C58   1.482142 S    
C12   C13   1.410939 A    
C8    C10   1.425537 A    
O18   Cr6   2.087673 S    
N15   O48   1.299807 A    
O4    C2    1.285077 A    
C47   N13   1.428455 S    
C64   H18   1.108616 S    
C54   N14   1.427015 S    
C9    N17   1.428691 S    
N21   O57   1.301494 A    
C5    O11   1.273411 A    
C31   N3    1.446610 S    
N7    O37   1.302185 A    
C18   C19   1.350147 D    
C10   N19   1.440370 S    
N5    O33   1.299966 A    
C3    C22   1.434908 S    
C15   N11   1.426059 S    
N5    O34   1.301861 A    
C39   N9    1.427670 S    
N6    O35   1.301104 A    
C35   C43   1.422048 A    
C17   C55   1.435220 S    
C30   C31   1.353224 D    
O6    C3    1.270713 A    
C32   C34   1.207791 T    
C63   H14   1.115560 S    
N4    O31   1.295645 A    
C5    C34   1.437465 S    
C66   H26   1.110836 S    
C13   C14   1.371930 A    
C18   N21   1.446152 S    
N22   C66   1.449609 S    
C49   N16   1.440626 S    
C41   C42   1.421640 A    
C65   H21   1.114433 S    
Cr3   O13   1.977124 S    
C63   H13   1.113499 S    
N4    O32   1.311813 A    
C51   C52   1.417355 A    
C43   N5    1.442976 S    
O14   C57   1.268884 A    
N3    O29   1.299182 A    
N18   O52   1.304348 A    
C35   C42   1.404668 A    
O6    Cr3   1.918436 S    
C30   C33   1.447268 S    
N14   O46   1.297801 A    
N8    O40   1.301226 A    
C9    C13   1.396850 A    
C36   C38   1.417438 A    
O1    Cr1   2.065691 S    
O15   C55   1.274575 A    
C49   C50   1.416339 A    
C7    C14   1.406857 A    
O10   Cr2   1.903427 S    
C12   C16   1.425709 A    
Cr1   O13   1.980429 S    
O1    C3    1.266773 A    
C58   O22   1.248549 A    
O14   Cr4   2.044198 S    
C48   N15   1.432781 S    
C66   H25   1.114582 S    
N20   O55   1.300871 A    
C56   O18   1.260360 A    
C50   C51   1.427201 A    
C37   N6    1.433853 S    
C40   C41   1.433503 A    
O17   C56   1.279033 A    
C1    C28   1.434910 S    
C61   H6    1.112083 S    
O12   Cr3   1.964424 S    
O20   Cr4   2.074835 S    
N20   O56   1.301164 A    
C19   C20   1.445034 S    
C7    C15   1.407013 A    
O15   Cr4   1.954107 S    
C19   H1    1.086152 S    
C55   O16   1.267361 A    
C46   C49   1.407749 A    
C44   N7    1.435846 S    
C14   N1    1.445382 S    
C66   H24   1.110357 S    
C45   C52   1.397715 A    
O7    Cr1   2.056651 S    
C50   C54   1.415642 A    
C2    C8    1.461289 S    
C16   N18   1.428339 S    
C61   H5    1.111415 S    
O12   C6    1.266117 A    
C1    O3    1.273512 A    
C39   C40   1.413673 A    
C4    O9    1.279179 A    
N8    O39   1.301348 A    
C26   C28   1.206602 T    
C45   C53   1.416959 A    
C42   N4    1.440332 S    
O16   Cr5   2.047133 S    
C62   H10   1.111776 S    
C31   C32   1.450401 S    
Cr2   O13   1.992660 S    
C47   C48   1.395049 A    
C65   H22   1.115085 S    
N2    C61   1.447993 S    
C63   H12   1.113363 S    
C24   C27   1.455858 S    
O21   C58   1.292584 A    
C25   C26   1.454485 S    
N9    C62   1.445397 S    
N11   H11   1.032251 S    
N17   H19   1.033887 S    
C62   H9    1.113336 S    
N14   O45   1.300685 A    
C52   N10   1.435723 S    
N13   O44   1.304158 A    
C4    C46   1.478195 S    
O24   Cr6   2.020586 S    
N19   O53   1.310185 A    
O19   Cr6   1.904130 S    
O9    Cr2   2.084121 S    
O2    Cr1   1.934413 S    
O23   C59   1.281099 A    
C23   C57   1.434453 S    
C15   C16   1.405432 A    
N16   O50   1.303520 A    
O19   C57   1.277489 A    
N11   C63   1.453566 S    
C25   N22   1.426736 S    
N10   O42   1.302145 A    
C64   H16   1.109634 S    
N1    O28   1.302614 A    
O11   Cr3   2.031557 S    
C30   H2    1.087314 S    
O21   Cr4   1.930415 S    
N12   H15   1.030673 S    
C29   C33   1.207933 T    
O20   C60   1.261864 A    
C20   C22   1.206480 T    
O2    C1    1.283527 A    
C9    C10   1.374704 A    
C53   C54   1.393325 A    
O23   Cr5   1.924849 S    
N15   O47   1.310865 A    
Cr4   O26   1.976370 S    
O5    Cr3   2.087042 S    
C64   H17   1.112020 S    
Cr5   O26   1.974296 S    
N21   O58   1.301974 A    
O7    C6    1.290170 A    
C47   C51   1.410350 A    
C45   C60   1.476893 S    
N19   O54   1.308011 A    
C61   H4    1.112539 S    
C38   N8    1.438586 S    
N7    O38   1.302468 A    
C7    C56   1.448997 S    
O25   Cr6   1.965321 S    
C43   C44   1.390366 A    
C17   C21   1.206631 T    
C6    C36   1.482586 S    
O3    Cr2   2.021792 S    
C23   C27   1.206316 T    
N16   O49   1.299549 A    
O22   Cr5   2.080757 S    
N2    H3    1.030959 S    
C11   N20   1.434153 S    
C11   C12   1.407554 A    
N9    H7    1.030143 S    
O10   C5    1.274669 A    
O25   C60   1.295716 A    
C24   N2    1.435289 S    
N13   O43   1.302883 A    
O8    C4    1.279580 A    
C46   C48   1.410404 A    
C62   H8    1.110431 S    
N6    O36   1.301426 A    
C36   C39   1.398984 A    
