data_mof_unit_29004.cif
_audit_creation_date              2012-12-10T17:57:25-0500
_audit_creation_method            fapswitch 2.2
_symmetry_space_group_name_H-M    P1
_symmetry_Int_Tables_number       1
_space_group_crystal_system       triclinic
_cell_length_a                    9.528058
_cell_length_b                    10.833462
_cell_length_c                    13.50923
_cell_angle_alpha                 90.216589
_cell_angle_beta                  73.053291
_cell_angle_gamma                 90.007281
_cell_volume                      1333.88543525

loop_
_atom_site_label
_atom_site_type_symbol
_atom_type_description
_atom_site_fract_x
_atom_site_fract_y
_atom_site_fract_z
_atom_type_partial_charge
C1    C     C_R   0.500002 0.737901 0.500091 0.774830
C2    C     C_R   0.443751 0.553731 0.976122 0.091081
C3    C     C_R   0.489345 0.555639 0.866331 0.086691
C4    C     C_R   0.551494 0.535025 0.029032 0.077546
C5    C     C_R   0.700986 0.523101 0.971172 0.092192
C6    C     C_R   0.744612 0.547853 0.866065 -0.228825
C7    C     C_R   0.640398 0.571108 0.815949 -0.184769
C8    C     C_R   0.515833 0.524224 0.136893 -0.310234
C9    C     C_R   0.771435 0.485037 0.126312 0.384842
C10   C     C_R   0.382409 0.544411 0.811413 -0.110369
C11   C     C_R   0.627245 0.936163 0.500767 -0.185778
C12   C     C_R   0.423304 0.514002 0.699162 0.797218
C13   C     C_R   0.627277 0.063876 0.500642 -0.176365
C14   C     C_R   0.499978 0.128226 0.500024 -0.019482
C15   C     C_R   0.372651 0.063814 0.499533 -0.182018
C16   C     C_R   0.372624 0.936104 0.499648 -0.182776
C17   C     C_R   0.499946 0.871759 0.500203 -0.013985
C18   C     C_R   0.906536 0.592955 0.546899 -0.039739
C19   C     C_R   0.054663 0.592170 0.547963 -0.030437
C20   C     C_R   0.094491 0.408440 0.451058 -0.022179
C21   C     C_R   0.945665 0.408282 0.451344 -0.008121
C22   C     C_R   0.499976 0.262101 0.499975 0.805255
C23   C     C_R   0.578444 0.499429 0.300081 0.828051
C24   C     C_R   0.806959 0.491594 0.019236 -0.220785
C25   C     C_R   0.624251 0.503224 0.186402 -0.138571
C26   C     C_R   0.233963 0.561008 0.865831 -0.202895
C27   C     C_R   0.191699 0.581198 0.972206 -0.128029
C28   C     C_R   0.293292 0.572097 0.027658 -0.161013
Cu1   Cu    Cu3+1 0.359340 0.499980 0.500000 0.944029
Cu2   Cu    Cu3+1 0.640660 0.500020 0.500000 0.949411
H1    H     H_    0.726828 0.111919 0.501045 0.146314
H2    H     H_    0.273126 0.111808 0.499033 0.145912
H3    H     H_    0.273074 0.888060 0.499244 0.145217
H4    H     H_    0.836292 0.668633 0.583226 0.105788
H5    H     H_    0.094395 0.665923 0.586798 0.115119
H6    H     H_    0.166558 0.335221 0.411474 0.122211
H7    H     H_    0.906100 0.334935 0.412003 0.133814
H8    H     H_    0.859911 0.551991 0.822749 0.137937
H9    H     H_    0.918576 0.473991 0.973054 0.152945
H10   H     H_    0.403876 0.532145 0.184234 0.174156
H11   H     H_    0.150461 0.560361 0.825958 0.146075
H12   H     H_    0.250826 0.583428 0.110274 0.131893
H13   H     H_    0.078804 0.601759 0.013048 0.152485
H14   H     H_    0.681480 0.605921 0.738753 0.168950
H15   H     H_    0.726761 0.888163 0.501281 0.144492
N1    N     N_R   0.147940 0.499970 0.499970 -0.158044
N2    N     N_R   0.852060 0.500060 0.499990 -0.159489
O1    O     O_R   0.381250 0.680340 0.500010 -0.594722
O2    O     O_R   0.618820 0.680370 0.500010 -0.600933
O3    O     O_R   0.323240 0.499950 0.650980 -0.576728
O4    O     O_R   0.560810 0.499980 0.650980 -0.584991
O5    O     O_R   0.381180 0.319630 0.499990 -0.590454
O6    O     O_R   0.618750 0.319660 0.499990 -0.586388
O7    O     O_R   0.439190 0.500020 0.349020 -0.585800
O8    O     O_R   0.676760 0.500050 0.349020 -0.565464
O9    O     O_3   0.881999 0.458864 0.169387 -0.730075
H16   H     H_    0.893228 0.533442 0.209124 0.325001

loop_
_geom_bond_atom_site_label_1
_geom_bond_atom_site_label_2
_ccdc_geom_bond_type
C12   O3    A    
Cu2   O4    S    
C6    H8    S    
C9    C24   A    
C23   O8    A    
C6    C7    A    
C16   H3    S    
C11   C13   A    
Cu2   O8    S    
C1    C17   S    
Cu1   N1    S    
C4    C8    A    
C18   N2    A    
C14   C22   S    
C2    C3    A    
C19   N1    A    
C9    C25   A    
C15   H2    S    
C1    O1    A    
C3    C10   A    
C19   H5    S    
C13   C14   A    
C20   C21   A    
C8    C25   A    
C18   H4    S    
C10   C26   A    
C26   C27   A    
Cu1   Cu2   S    
C5    C24   A    
C10   C12   S    
C2    C4    A    
C28   H12   S    
Cu2   O2    S    
C22   O6    A    
C3    C7    A    
Cu1   O3    S    
C23   C25   S    
C5    C6    A    
Cu2   O6    S    
C11   H15   S    
Cu1   O7    S    
Cu1   O1    S    
C15   C16   A    
C20   H6    S    
C27   H13   S    
Cu2   N2    S    
C4    C5    A    
C12   O4    A    
C21   H7    S    
O9    H16   S    
C23   O7    A    
C22   O5    A    
C18   C19   A    
C27   C28   A    
C9    O9    S    
C14   C15   A    
C11   C17   A    
C2    C28   A    
C8    H10   S    
C7    H14   S    
C1    O2    A    
C24   H9    S    
C13   H1    S    
C20   N1    A    
C26   H11   S    
C16   C17   A    
C21   N2    A    
Cu1   O5    S    
