data_mof_unit_62392.cif
_audit_creation_date              2012-10-26T17:40:32-0400
_audit_creation_method            fapswitch 2.2
_symmetry_space_group_name_H-M    P1
_symmetry_Int_Tables_number       1
_space_group_crystal_system       triclinic
_cell_length_a                    39.032984
_cell_length_b                    39.032984
_cell_length_c                    21.804368
_cell_angle_alpha                 90.029675
_cell_angle_beta                  89.970318
_cell_angle_gamma                 89.999914
_cell_volume                      33220.5557678

loop_
_atom_site_label
_atom_site_type_symbol
_atom_type_description
_atom_site_fract_x
_atom_site_fract_y
_atom_site_fract_z
_atom_type_partial_charge
Br1   Br    Br    0.935584 0.791020 0.567805 -0.484448
Br2   Br    Br    0.290973 0.564410 0.068012 -0.483536
Br3   Br    Br    0.564389 0.709027 0.067959 -0.483932
Br4   Br    Br    0.708982 0.435599 0.067742 -0.484589
Br5   Br    Br    0.564409 0.290973 0.931986 -0.483538
Br6   Br    Br    0.709028 0.564385 0.932031 -0.483932
Br7   Br    Br    0.435596 0.708982 0.932268 -0.484587
Br8   Br    Br    0.291019 0.435574 0.932215 -0.484043
Br9   Br    Br    0.790972 0.064408 0.568031 -0.477669
Br10  Br    Br    0.933081 0.209022 0.559627 -0.476346
Br11  Br    Br    0.209022 0.933081 0.440376 -0.476346
Br12  Br    Br    0.064409 0.790972 0.431974 -0.477668
Br13  Br    Br    0.208982 0.066931 0.559392 -0.480829
Br14  Br    Br    0.066930 0.208982 0.440606 -0.480830
Br15  Br    Br    0.791020 0.935586 0.432191 -0.484448
Br16  Br    Br    0.435574 0.291019 0.067787 -0.484044
C1    C     C_R   1.000000 0.566218 0.499996 0.535073
C2    C     C_R   0.895987 0.000005 0.500044 0.017729
C3    C     C_R   0.396033 0.000001 0.499972 0.012856
C4    C     C_R   0.499999 0.103992 0.999974 0.008556
C5    C     C_R   0.103992 0.499999 0.000026 0.008556
C6    C     C_R   0.499999 0.896008 0.000026 0.008541
C7    C     C_R   0.896009 0.499999 0.999973 0.008541
C8    C     C_R   0.066241 0.999999 0.499986 0.552268
C9    C     C_R   0.000001 0.933770 0.499986 0.552021
C10   C     C_R   0.933770 0.000001 0.500014 0.552021
C11   C     C_R   0.999999 0.066241 0.500014 0.552268
C12   C     C_R   0.566230 0.500001 0.999986 0.551825
C13   C     C_R   0.999997 0.104046 0.500044 0.017668
C14   C     C_R   0.500001 0.433770 0.999986 0.551843
C15   C     C_R   0.433770 0.500001 0.000014 0.551843
C16   C     C_R   0.500001 0.566230 0.000014 0.551825
C17   C     C_R   0.999998 0.676201 0.499919 0.034014
C18   C     C_R   0.676201 0.999998 0.500081 0.034015
C19   C     C_R   0.000003 0.323838 0.500084 0.034451
C20   C     C_R   0.323838 0.000003 0.499915 0.034451
C21   C     C_R   0.499995 0.176201 0.999919 0.034000
C22   C     C_R   0.176201 0.499995 0.000081 0.034000
C23   C     C_R   0.499996 0.823799 0.000081 0.033988
C24   C     C_R   0.104046 0.999997 0.499956 0.017668
C25   C     C_R   0.823799 0.499996 0.999919 0.033988
C26   C     C_R   0.999991 0.500000 0.618744 0.532715
C27   C     C_R   0.500003 0.000008 0.618744 0.532715
C28   C     C_R   0.000008 0.500003 0.381256 0.532715
C29   C     C_R   0.500000 0.999991 0.381256 0.532715
C30   C     C_R   0.499991 0.000005 0.118751 0.532653
C31   C     C_R   0.999993 0.500006 0.118751 0.532655
C32   C     C_R   0.500006 0.999993 0.881249 0.532655
C33   C     C_R   0.000005 0.499991 0.881249 0.532653
C34   C     C_R   0.040482 0.450959 0.687004 -0.088279
C35   C     C_R   0.500003 0.395987 0.999955 0.017166
C36   C     C_R   0.450983 0.959505 0.687115 -0.088301
C37   C     C_R   0.959403 0.548949 0.687229 -0.088429
C38   C     C_R   0.548973 0.040583 0.687118 -0.088395
C39   C     C_R   0.959505 0.450983 0.312885 -0.088300
C40   C     C_R   0.548949 0.959402 0.312771 -0.088429
C41   C     C_R   0.040583 0.548973 0.312882 -0.088395
C42   C     C_R   0.450959 0.040482 0.312996 -0.088279
C43   C     C_R   0.540621 0.951075 0.187052 -0.088275
C44   C     C_R   0.951121 0.459317 0.187192 -0.088381
C45   C     C_R   0.459257 0.048846 0.187275 -0.088461
C46   C     C_R   0.395987 0.500003 0.000044 0.017167
C47   C     C_R   0.048891 0.540682 0.187134 -0.088343
C48   C     C_R   0.459317 0.951121 0.812808 -0.088381
C49   C     C_R   0.048846 0.459257 0.812725 -0.088461
C50   C     C_R   0.540682 0.048891 0.812865 -0.088343
C51   C     C_R   0.951075 0.540621 0.812948 -0.088274
C52   C     C_R   0.064034 0.430807 0.718576 -0.112931
C53   C     C_R   0.430845 0.935942 0.718728 -0.113117
C54   C     C_R   0.935828 0.569064 0.718910 -0.111967
C55   C     C_R   0.569103 0.064147 0.718757 -0.111802
C56   C     C_R   0.935942 0.430845 0.281272 -0.113117
C57   C     C_R   0.500003 0.604013 0.000044 0.017151
C58   C     C_R   0.569064 0.935828 0.281090 -0.111967
C59   C     C_R   0.064147 0.569103 0.281243 -0.111802
C60   C     C_R   0.430807 0.064034 0.281424 -0.112931
C61   C     C_R   0.564234 0.930998 0.218635 -0.112012
C62   C     C_R   0.931081 0.435678 0.218832 -0.112047
C63   C     C_R   0.435621 0.068885 0.218969 -0.111899
C64   C     C_R   0.068968 0.564291 0.218772 -0.111884
C65   C     C_R   0.435678 0.931081 0.781168 -0.112047
C66   C     C_R   0.068885 0.435622 0.781031 -0.111898
C67   C     C_R   0.564291 0.068968 0.781228 -0.111884
C68   C     C_R   0.604013 0.500003 0.999955 0.017151
C69   C     C_R   0.930998 0.564234 0.781365 -0.112013
C70   C     C_R   0.023306 0.478683 0.782167 0.009895
C71   C     C_R   0.478728 0.976671 0.782210 0.009932
C72   C     C_R   0.976631 0.521231 0.782275 0.010050
C73   C     C_R   0.521277 0.023345 0.782232 0.010020
C74   C     C_R   0.976671 0.478729 0.217790 0.009932
C75   C     C_R   0.521231 0.976631 0.217725 0.010049
C76   C     C_R   0.023345 0.521277 0.217768 0.010020
C77   C     C_R   0.478682 0.023306 0.217833 0.009895
C78   C     C_R   0.523361 0.978755 0.282194 0.009914
C79   C     C_R   0.973361 0.768136 0.528958 0.146194
C80   C     C_R   0.978820 0.476594 0.282252 0.010812
C81   C     C_R   0.476565 0.021166 0.282303 0.010815
C82   C     C_R   0.021230 0.523390 0.282245 0.009922
C83   C     C_R   0.476594 0.978820 0.717748 0.010812
C84   C     C_R   0.021166 0.476565 0.717697 0.010815
C85   C     C_R   0.523390 0.021230 0.717755 0.009922
C86   C     C_R   0.978755 0.523361 0.717806 0.009914
C87   C     C_R   0.999983 0.499968 0.814329 -0.018174
C88   C     C_R   0.500013 0.999996 0.814328 -0.018172
C89   C     C_R   0.999996 0.500013 0.185671 -0.018172
C90   C     C_R   0.768116 0.026631 0.529178 0.145362
C91   C     C_R   0.499968 0.999983 0.185671 -0.018174
C92   C     C_R   0.499977 0.999971 0.314346 -0.017707
C93   C     C_R   0.000024 0.499994 0.314346 -0.017705
C94   C     C_R   0.499994 0.000024 0.685654 -0.017705
C95   C     C_R   0.999971 0.499977 0.685654 -0.017707
C96   C     C_R   0.005531 0.877768 0.554668 -0.105878
C97   C     C_R   0.877759 0.994480 0.554781 -0.102368
C98   C     C_R   0.996014 0.122280 0.444905 -0.106036
C99   C     C_R   0.122280 0.996015 0.555095 -0.106036
C100  C     C_R   0.994481 0.877759 0.445219 -0.102368
C101  C     C_R   0.972262 0.231924 0.525632 0.145155
C102  C     C_R   0.122288 0.003978 0.444790 -0.102287
C103  C     C_R   0.003979 0.122288 0.555210 -0.102287
C104  C     C_R   0.877768 0.005532 0.445332 -0.105878
C105  C     C_R   0.505522 0.377768 0.054669 -0.104137
C106  C     C_R   0.377760 0.494484 0.054783 -0.104111
C107  C     C_R   0.494472 0.622240 0.054790 -0.104130
C108  C     C_R   0.622232 0.505536 0.054674 -0.104152
C109  C     C_R   0.494484 0.377760 0.945216 -0.104111
C110  C     C_R   0.622240 0.494470 0.945211 -0.104130
C111  C     C_R   0.505534 0.622232 0.945325 -0.104153
C112  C     C_R   0.566218 1.000000 0.500004 0.535073
C113  C     C_R   0.231924 0.972261 0.474369 0.145155
C114  C     C_R   0.377768 0.505522 0.945331 -0.104137
C115  C     C_R   0.005668 0.842025 0.554551 -0.058347
C116  C     C_R   0.842016 0.994343 0.554710 -0.056324
C117  C     C_R   0.995915 0.158028 0.445003 -0.058536
C118  C     C_R   0.158028 0.995916 0.554997 -0.058536
C119  C     C_R   0.994344 0.842016 0.445289 -0.056323
C120  C     C_R   0.158036 0.004079 0.444840 -0.056226
C121  C     C_R   0.004080 0.158036 0.555160 -0.056225
C122  C     C_R   0.842025 0.005669 0.445449 -0.058347
C123  C     C_R   0.505658 0.342025 0.054551 -0.057217
C124  C     C_R   0.026631 0.768116 0.470824 0.145362
C125  C     C_R   0.342016 0.494345 0.054714 -0.057047
C126  C     C_R   0.494333 0.657983 0.054720 -0.057038
C127  C     C_R   0.657975 0.505672 0.054557 -0.057196
C128  C     C_R   0.494345 0.342016 0.945286 -0.057047
C129  C     C_R   0.657984 0.494331 0.945280 -0.057038
C130  C     C_R   0.505670 0.657975 0.945442 -0.057196
C131  C     C_R   0.342025 0.505658 0.945449 -0.057217
C132  C     C_R   0.000004 0.824012 0.499909 0.085747
C133  C     C_R   0.824012 0.000004 0.500091 0.085747
C134  C     C_R   0.999999 0.176037 0.500093 0.086117
C135  C     C_R   0.231907 0.027751 0.525401 0.146032
C136  C     C_R   0.176037 0.999999 0.499906 0.086117
C137  C     C_R   0.500000 0.324012 0.999907 0.085739
C138  C     C_R   0.324012 0.499999 0.000092 0.085739
C139  C     C_R   0.500000 0.675988 0.000092 0.085768
C140  C     C_R   0.675987 0.500000 0.999907 0.085768
C141  C     C_R   0.027750 0.231907 0.474597 0.146032
C142  C     C_R   0.768136 0.973362 0.471040 0.146194
C143  C     C_R   0.473354 0.268136 0.028949 0.146242
C144  C     C_R   0.268116 0.526629 0.029171 0.146171
C145  C     C_R   0.526620 0.731884 0.029150 0.146214
C146  C     C_R   0.731864 0.473365 0.028931 0.146279
C147  C     C_R   0.526629 0.268116 0.970828 0.146171
C148  C     C_R   0.000000 0.433791 0.500004 0.535836
C149  C     C_R   0.731884 0.526618 0.970846 0.146214
C150  C     C_R   0.473364 0.731865 0.971073 0.146280
C151  C     C_R   0.268136 0.473354 0.971051 0.146242
C152  C     C_R   0.973576 0.732373 0.528985 -0.086837
C153  C     C_R   0.732352 0.026414 0.529194 -0.087044
C154  C     C_R   0.972456 0.267692 0.525619 -0.087422
C155  C     C_R   0.267692 0.972456 0.474382 -0.087422
C156  C     C_R   0.026415 0.732352 0.470807 -0.087044
C157  C     C_R   0.267675 0.027557 0.525398 -0.087277
C158  C     C_R   0.027557 0.267675 0.474600 -0.087277
C159  C     C_R   0.433791 0.000000 0.499995 0.535836
C160  C     C_R   0.732373 0.973577 0.471013 -0.086837
C161  C     C_R   0.473570 0.232373 0.028977 -0.086675
C162  C     C_R   0.232353 0.526413 0.029187 -0.086576
C163  C     C_R   0.526403 0.767647 0.029166 -0.086533
C164  C     C_R   0.767627 0.473581 0.028960 -0.086638
C165  C     C_R   0.526413 0.232353 0.970812 -0.086575
C166  C     C_R   0.767647 0.526402 0.970829 -0.086533
C167  C     C_R   0.473580 0.767627 0.971044 -0.086639
C168  C     C_R   0.232373 0.473570 0.971024 -0.086675
C169  C     C_R   0.999996 0.714150 0.499901 -0.035044
C170  C     C_R   0.500000 0.066217 0.999996 0.535506
C171  C     C_R   0.714150 0.999996 0.500099 -0.035043
C172  C     C_R   0.000006 0.285892 0.500104 -0.036230
C173  C     C_R   0.285893 0.000006 0.499896 -0.036230
C174  C     C_R   0.499992 0.214150 0.999900 -0.034937
C175  C     C_R   0.214150 0.499992 0.000100 -0.034937
C176  C     C_R   0.499993 0.785850 0.000100 -0.034880
C177  C     C_R   0.785850 0.499993 0.999900 -0.034881
C178  C     C_R   0.999998 0.786307 0.499891 0.031741
C179  C     C_R   0.786307 0.999997 0.500108 0.031741
C180  C     C_R   0.000005 0.213739 0.500113 0.031170
C181  C     C_R   0.066218 0.500000 0.000004 0.535506
C182  C     C_R   0.213739 0.000005 0.499886 0.031169
C183  C     C_R   0.499993 0.286307 0.999889 0.032231
C184  C     C_R   0.286307 0.499993 0.000111 0.032231
C185  C     C_R   0.499993 0.713693 0.000111 0.032314
C186  C     C_R   0.713693 0.499993 0.999889 0.032314
C187  C     C_R   0.030718 0.657950 0.507684 -0.109275
C188  C     C_R   0.657940 0.969279 0.507818 -0.109121
C189  C     C_R   0.969757 0.342082 0.487693 -0.108087
C190  C     C_R   0.342096 0.030247 0.487548 -0.107926
C191  C     C_R   0.969279 0.657940 0.492180 -0.109121
C192  C     C_R   0.500000 0.933782 0.000004 0.535497
C193  C     C_R   0.342082 0.969757 0.512309 -0.108087
C194  C     C_R   0.030247 0.342096 0.512450 -0.107926
C195  C     C_R   0.657950 0.030718 0.492317 -0.109275
C196  C     C_R   0.530715 0.157950 0.007691 -0.109186
C197  C     C_R   0.157940 0.469278 0.007829 -0.109030
C198  C     C_R   0.469275 0.842061 0.007846 -0.109041
C199  C     C_R   0.842050 0.530719 0.007705 -0.109178
C200  C     C_R   0.469278 0.157940 0.992172 -0.109030
C201  C     C_R   0.842061 0.469274 0.992158 -0.109041
C202  C     C_R   0.530718 0.842050 0.992290 -0.109178
C203  C     C_R   0.933782 0.500000 0.999996 0.535497
C204  C     C_R   0.157951 0.530715 0.992307 -0.109187
C205  C     C_R   0.030736 0.622209 0.507504 -0.125674
C206  C     C_R   0.622200 0.969263 0.507583 -0.125637
C207  C     C_R   0.969733 0.377827 0.487844 -0.124469
C208  C     C_R   0.377842 0.030270 0.487756 -0.124536
C209  C     C_R   0.969263 0.622200 0.492415 -0.125637
C210  C     C_R   0.377827 0.969733 0.512158 -0.124469
C211  C     C_R   0.030270 0.377842 0.512242 -0.124537
C212  C     C_R   0.622209 0.030736 0.492498 -0.125674
C213  C     C_R   0.530734 0.122210 0.007510 -0.125661
C214  C     C_R   0.000005 0.895987 0.499956 0.017729
C215  C     C_R   0.122199 0.469262 0.007594 -0.125502
C216  C     C_R   0.469259 0.877801 0.007610 -0.125510
C217  C     C_R   0.877790 0.530737 0.007524 -0.125654
C218  C     C_R   0.469262 0.122199 0.992407 -0.125502
C219  C     C_R   0.877801 0.469259 0.992393 -0.125511
C220  C     C_R   0.530737 0.877790 0.992472 -0.125653
C221  C     C_R   0.122210 0.530734 0.992488 -0.125661
C222  C     C_R   0.999999 0.603992 0.499974 0.008538
C223  C     C_R   0.603992 0.999999 0.500026 0.008538
C224  C     C_R   0.000001 0.396033 0.500027 0.012855
Cu1   Cu    Cu3+1 0.965800 0.500000 0.500000 0.939499
Cu2   Cu    Cu3+1 0.000000 0.000000 0.438200 0.976489
Cu3   Cu    Cu3+1 0.500000 0.500000 0.061800 0.977293
Cu4   Cu    Cu3+1 0.500000 0.500000 0.938200 0.977293
Cu5   Cu    Cu3+1 0.500000 0.034200 0.500000 0.939432
Cu6   Cu    Cu3+1 0.034200 0.500000 0.500000 0.939431
Cu7   Cu    Cu3+1 0.500000 0.965800 0.500000 0.939498
Cu8   Cu    Cu3+1 0.465800 0.000000 0.000000 0.938080
Cu9   Cu    Cu3+1 0.000000 0.534200 0.000000 0.937651
Cu10  Cu    Cu3+1 0.534200 0.000000 0.000000 0.937651
Cu11  Cu    Cu3+1 1.000000 0.465800 0.000000 0.938080
Cu12  Cu    Cu3+1 0.000000 0.000000 0.561800 0.976489
H1    H     H_    0.920915 0.588128 0.694697 0.123762
H2    H     H_    0.087999 0.579242 0.194516 0.123954
H3    H     H_    0.391216 0.053926 0.477738 0.130965
H4    H     H_    0.945191 0.608855 0.486179 0.136701
H5    H     H_    0.391190 0.946076 0.522194 0.130913
H6    H     H_    0.053926 0.391216 0.522258 0.130966
H7    H     H_    0.608872 0.054808 0.486246 0.136628
H8    H     H_    0.554806 0.108873 0.013769 0.136600
H9    H     H_    0.108854 0.445191 0.013838 0.136798
H10   H     H_    0.445186 0.891146 0.013867 0.136816
H11   H     H_    0.891127 0.554812 0.013794 0.136645
H12   H     H_    0.445191 0.108854 0.986166 0.136798
H13   H     H_    0.579173 0.911959 0.194348 0.123742
H14   H     H_    0.891146 0.445185 0.986141 0.136816
H15   H     H_    0.554812 0.891128 0.986198 0.136645
H16   H     H_    0.108873 0.554806 0.986227 0.136601
H17   H     H_    0.912049 0.420721 0.194599 0.122807
H18   H     H_    0.579242 0.087999 0.805484 0.123954
H19   H     H_    0.911959 0.579173 0.805652 0.123741
H20   H     H_    0.420721 0.912049 0.805401 0.122807
H21   H     H_    0.087910 0.420653 0.805233 0.123075
H22   H     H_    0.037532 0.445874 0.638591 0.138392
H23   H     H_    0.445884 0.962462 0.638718 0.138310
H24   H     H_    0.962334 0.554046 0.638823 0.140760
H25   H     H_    0.588163 0.079060 0.694500 0.124006
H26   H     H_    0.554056 0.037659 0.638697 0.140847
H27   H     H_    0.962462 0.445884 0.361282 0.138311
H28   H     H_    0.554046 0.962334 0.361177 0.140760
H29   H     H_    0.037659 0.554056 0.361303 0.140847
H30   H     H_    0.445874 0.037532 0.361409 0.138391
H31   H     H_    0.537682 0.945967 0.138648 0.141060
H32   H     H_    0.945993 0.462255 0.138804 0.140834
H33   H     H_    0.462179 0.053968 0.138877 0.140859
H34   H     H_    0.053993 0.537759 0.138721 0.141081
H35   H     H_    0.462255 0.945992 0.861196 0.140834
H36   H     H_    0.078915 0.411726 0.694276 0.120703
H37   H     H_    0.053968 0.462179 0.861123 0.140860
H38   H     H_    0.537759 0.053993 0.861279 0.141081
H39   H     H_    0.945967 0.537682 0.861352 0.141059
H40   H     H_    0.009978 0.891101 0.597493 0.139323
H41   H     H_    0.891086 0.990033 0.597587 0.142224
H42   H     H_    0.992804 0.108962 0.401714 0.139433
H43   H     H_    0.108962 0.992805 0.598287 0.139433
H44   H     H_    0.990034 0.891086 0.402413 0.142224
H45   H     H_    0.108975 0.007187 0.401618 0.142282
H46   H     H_    0.007188 0.108975 0.598382 0.142282
H47   H     H_    0.411761 0.921062 0.694473 0.120376
H48   H     H_    0.891101 0.009979 0.402508 0.139323
H49   H     H_    0.509965 0.391100 0.097495 0.141513
H50   H     H_    0.391086 0.490042 0.097591 0.141569
H51   H     H_    0.490021 0.608913 0.097603 0.141566
H52   H     H_    0.608900 0.509989 0.097506 0.141513
H53   H     H_    0.490042 0.391087 0.902409 0.141569
H54   H     H_    0.608913 0.490017 0.902399 0.141566
H55   H     H_    0.509986 0.608900 0.902493 0.141514
H56   H     H_    0.391100 0.509965 0.902504 0.141513
H57   H     H_    0.010177 0.828358 0.597015 0.143348
H58   H     H_    0.079060 0.588163 0.305500 0.124006
H59   H     H_    0.828341 0.989831 0.597191 0.144883
H60   H     H_    0.992655 0.171702 0.402180 0.142347
H61   H     H_    0.171702 0.992656 0.597820 0.142347
H62   H     H_    0.989833 0.828341 0.402808 0.144882
H63   H     H_    0.171717 0.007341 0.401998 0.143998
H64   H     H_    0.007342 0.171717 0.598001 0.143998
H65   H     H_    0.828358 0.010179 0.402985 0.143348
H66   H     H_    0.510163 0.328357 0.097017 0.144537
H67   H     H_    0.328341 0.489838 0.097197 0.144773
H68   H     H_    0.489817 0.671658 0.097208 0.144800
H69   H     H_    0.411726 0.078915 0.305724 0.120703
H70   H     H_    0.671643 0.510188 0.097027 0.144579
H71   H     H_    0.489838 0.328341 0.902803 0.144774
H72   H     H_    0.671658 0.489813 0.902793 0.144801
H73   H     H_    0.510184 0.671643 0.902971 0.144578
H74   H     H_    0.328357 0.510162 0.902983 0.144536
H75   H     H_    0.953154 0.718843 0.552293 0.150395
H76   H     H_    0.718806 0.046836 0.552497 0.150575
H77   H     H_    0.951126 0.281251 0.546126 0.152364
H78   H     H_    0.281251 0.951125 0.453876 0.152364
H79   H     H_    0.046837 0.718806 0.447506 0.150575
H80   H     H_    0.921062 0.411761 0.305527 0.120376
H81   H     H_    0.281219 0.048887 0.545911 0.152190
H82   H     H_    0.048886 0.281219 0.454086 0.152190
H83   H     H_    0.718843 0.953155 0.447703 0.150395
H84   H     H_    0.453146 0.218842 0.052281 0.150317
H85   H     H_    0.218806 0.546838 0.052483 0.150561
H86   H     H_    0.546820 0.781194 0.052447 0.150488
H87   H     H_    0.781157 0.453166 0.052250 0.150224
H88   H     H_    0.546837 0.218806 0.947515 0.150561
H89   H     H_    0.781193 0.546818 0.947546 0.150488
H90   H     H_    0.453164 0.781157 0.947757 0.150223
H91   H     H_    0.588128 0.920915 0.305303 0.123762
H92   H     H_    0.218842 0.453146 0.947721 0.150318
H93   H     H_    0.054716 0.671297 0.514711 0.121654
H94   H     H_    0.671279 0.945280 0.514862 0.121969
H95   H     H_    0.946185 0.328717 0.477065 0.120477
H96   H     H_    0.328744 0.053820 0.476899 0.120927
H97   H     H_    0.945281 0.671279 0.485135 0.121969
H98   H     H_    0.328717 0.946186 0.522938 0.120477
H99   H     H_    0.053820 0.328744 0.523097 0.120927
H100  H     H_    0.671297 0.054716 0.485293 0.121654
H101  H     H_    0.554712 0.171298 0.014723 0.121826
H102  H     H_    0.420653 0.087910 0.194767 0.123075
H103  H     H_    0.171278 0.445280 0.014882 0.122089
H104  H     H_    0.445274 0.828723 0.014912 0.122112
H105  H     H_    0.828702 0.554719 0.014749 0.121890
H106  H     H_    0.445279 0.171278 0.985121 0.122089
H107  H     H_    0.828723 0.445273 0.985095 0.122112
H108  H     H_    0.554718 0.828702 0.985244 0.121889
H109  H     H_    0.171298 0.554712 0.985274 0.121827
H110  H     H_    0.054808 0.608872 0.513757 0.136628
H111  H     H_    0.608855 0.945191 0.513817 0.136701
H112  H     H_    0.946076 0.391190 0.477810 0.130914
O1    O     O_R   0.971120 0.549890 0.500000 -0.515572
O2    O     O_R   0.049890 0.528880 0.000000 -0.515417
O3    O     O_R   0.528880 0.950110 0.000000 -0.515411
O4    O     O_R   0.950110 0.471120 0.000000 -0.515339
O5    O     O_R   0.528880 0.049890 0.000000 -0.515417
O6    O     O_R   0.950110 0.528880 0.000000 -0.515411
O7    O     O_R   0.471120 0.950110 0.000000 -0.515338
O8    O     O_R   0.049890 0.471120 0.000000 -0.515334
O9    O     O_R   0.971120 0.499990 0.590150 -0.508875
O10   O     O_R   0.499990 0.028880 0.590150 -0.508918
O11   O     O_R   0.028880 0.500010 0.590150 -0.510850
O12   O     O_R   0.549890 0.028880 0.500000 -0.515609
O13   O     O_R   0.500010 0.971120 0.590150 -0.510803
O14   O     O_R   0.028880 0.499990 0.409850 -0.508919
O15   O     O_R   0.500010 0.028880 0.409850 -0.510850
O16   O     O_R   0.971120 0.500010 0.409850 -0.510803
O17   O     O_R   0.499990 0.971120 0.409850 -0.508875
O18   O     O_R   0.471120 0.999990 0.090150 -0.509808
O19   O     O_R   0.999990 0.528880 0.090150 -0.510033
O20   O     O_R   0.528880 0.000010 0.090150 -0.510100
O21   O     O_R   0.000010 0.471120 0.090150 -0.509872
O22   O     O_R   0.528880 0.999990 0.909850 -0.510034
O23   O     O_R   0.028880 0.450110 0.500000 -0.514365
O24   O     O_R   0.000010 0.528880 0.909850 -0.510100
O25   O     O_R   0.471120 0.000010 0.909850 -0.509872
O26   O     O_R   0.999990 0.471120 0.909850 -0.509808
O27   O     O_R   0.049980 0.000000 0.552120 -0.510995
O28   O     O_R   0.000000 0.950020 0.552120 -0.510765
O29   O     O_R   0.950020 0.000000 0.552120 -0.506589
O30   O     O_R   0.000000 0.049980 0.552120 -0.506838
O31   O     O_R   0.950020 0.000000 0.447880 -0.510764
O32   O     O_R   0.000000 0.950020 0.447880 -0.506589
O33   O     O_R   0.049980 0.000000 0.447880 -0.506838
O34   O     O_R   0.450110 0.971120 0.500000 -0.514323
O35   O     O_R   0.000000 0.049980 0.447880 -0.510995
O36   O     O_R   0.549980 0.500000 0.052120 -0.508726
O37   O     O_R   0.500000 0.450020 0.052120 -0.508715
O38   O     O_R   0.450020 0.500000 0.052120 -0.508686
O39   O     O_R   0.500000 0.549980 0.052120 -0.508697
O40   O     O_R   0.450020 0.500000 0.947880 -0.508715
O41   O     O_R   0.500000 0.450020 0.947880 -0.508686
O42   O     O_R   0.549980 0.500000 0.947880 -0.508696
O43   O     O_R   0.500000 0.549980 0.947880 -0.508727
O44   O     O_R   0.028880 0.549890 0.500000 -0.515609
O45   O     O_R   0.450110 0.028880 0.500000 -0.514364
O46   O     O_R   0.971120 0.450110 0.500000 -0.514323
O47   O     O_R   0.549890 0.971120 0.500000 -0.515572
O48   O     O_R   0.471120 0.049890 0.000000 -0.515334

loop_
_geom_bond_atom_site_label_1
_geom_bond_atom_site_label_2
_ccdc_geom_bond_type
C200  H106  S    
C14   C35   S    
C39   H27   S    
C40   H28   S    
C23   C202  A    
C199  C217  A    
C60   C63   A    
C79   C152  A    
C167  H90   S    
Cu5   O15   S    
C212  H7    S    
C13   C103  A    
Cu1   O16   S    
C64   H2    S    
Cu4   O41   S    
C3    C210  A    
C125  C138  A    
C1    O44   A    
C207  H112  S    
C109  C128  A    
C112  O12   A    
C51   H39   S    
C14   O37   A    
Cu7   O34   S    
C104  H48   S    
C25   C177  S    
C59   H58   S    
C41   H29   S    
C101  C154  A    
C31   C89   S    
C151  C184  A    
C31   O19   A    
C27   C94   S    
Cu2   Cu12  S    
C29   C92   S    
C190  H96   S    
C219  H14   S    
Br6   C149  S    
C38   H26   S    
C82   C93   A    
Cu2   O31   S    
C15   C46   S    
C86   C95   A    
C165  H88   S    
Br11  C113  S    
C210  H5    S    
C120  C136  A    
Cu8   Cu10  S    
C36   H23   S    
C68   C110  A    
C7    C203  S    
C9    C214  S    
C51   C69   A    
C75   C91   A    
C153  C171  A    
C29   O17   A    
Cu3   O36   S    
C42   H30   S    
C85   C94   A    
C199  H105  S    
C83   C94   A    
C17   C187  A    
C122  C133  A    
C35   C109  A    
C170  O5    A    
C149  C186  A    
C12   O42   A    
C138  C184  S    
C165  C174  A    
C100  C214  A    
C37   C86   A    
C34   H22   S    
C168  C175  A    
C6    C192  S    
C20   C190  A    
C201  H107  S    
C144  C162  A    
Br7   C150  S    
Cu7   O13   S    
C35   C105  A    
C206  H111  S    
C104  C122  A    
C193  C210  A    
C149  C166  A    
C103  H46   S    
C102  C120  A    
C80   C93   A    
C9    O28   A    
C4    C213  A    
C112  O47   A    
C73   C85   A    
C106  H50   S    
C127  H70   S    
Cu10  O22   S    
Cu4   O43   S    
C3    C208  A    
C74   C89   A    
C37   C54   A    
C72   C86   A    
C197  H103  S    
C99   C118  A    
C44   C74   A    
C181  O2    A    
C205  C222  A    
C34   C84   A    
C126  H68   S    
C75   C78   A    
C32   O22   A    
C49   C66   A    
Cu1   O9    S    
C211  C224  A    
Cu12  O30   S    
C10   O31   A    
C96   C115  A    
C33   O24   A    
C4    C170  S    
Cu3   O39   S    
C84   C95   A    
C187  H93   S    
C154  H77   S    
Cu9   O2    S    
C5    C221  A    
C11   C13   S    
C46   C114  A    
C38   C85   A    
C161  H84   S    
C202  H108  S    
C201  C219  A    
C42   C60   A    
C100  C119  A    
C112  C223  S    
C193  H98   S    
C115  H57   S    
C44   C62   A    
C216  H10   S    
C146  C186  A    
C15   O40   A    
Br5   C147  S    
C8    O27   A    
C25   C199  A    
Cu12  O28   S    
C206  C223  A    
C62   H17   S    
Cu4   O40   S    
C157  H81   S    
C162  H85   S    
C18   C188  A    
C19   C172  S    
C57   C107  A    
C58   C61   A    
C220  H15   S    
C145  C163  A    
C117  H60   S    
C146  C164  A    
C197  C215  A    
Br1   C79   S    
C141  C158  A    
C217  H11   S    
C7    C219  A    
C218  H12   S    
C21   C174  S    
C147  C183  A    
C2    C97   A    
C110  C129  A    
Cu9   O19   S    
Cu10  O5    S    
C55   C67   A    
C47   C64   A    
C120  H63   S    
C97   H41   S    
Cu8   O18   S    
C168  H92   S    
C130  C139  A    
C99   H43   S    
Br15  C142  S    
Cu6   O14   S    
Cu7   O47   S    
C65   H20   S    
C67   H18   S    
C33   O26   A    
C198  H104  S    
Cu3   O37   S    
C63   H102  S    
C151  C168  A    
C156  C169  A    
C56   H80   S    
Cu2   O35   S    
C130  H73   S    
C26   O9    A    
C30   O20   A    
C152  H75   S    
C79   C178  A    
C195  C212  A    
C26   O11   A    
C77   C81   A    
C46   C106  A    
C158  H82   S    
C43   H31   S    
C17   C191  A    
C161  C174  A    
C114  C131  A    
C15   O38   A    
C117  C134  A    
C39   C80   A    
C129  H72   S    
C203  O4    A    
C164  H87   S    
C11   O35   A    
C74   C80   A    
C12   O36   A    
C205  H110  S    
C192  O7    A    
C52   C66   A    
C41   C59   A    
C187  C205  A    
Cu4   O42   S    
Br10  C101  S    
C28   C93   S    
C196  C213  A    
C159  O34   A    
C124  C178  A    
C45   C63   A    
Cu7   O17   S    
C116  H59   S    
C109  H53   S    
Cu9   O24   S    
C121  C134  A    
C3    C159  S    
C48   C65   A    
C11   O30   A    
C7    C217  A    
C213  H8    S    
C32   O25   A    
C9    O32   A    
Br2   C144  S    
C22   C175  S    
C154  C172  A    
C194  H99   S    
C106  C125  A    
C139  C185  S    
C54   C69   A    
C164  C177  A    
C24   C102  A    
C116  C133  A    
C97   C116  A    
Cu2   O32   S    
C12   C68   S    
C200  C218  A    
C2    C10   S    
C203  O6    A    
C8    O33   A    
C198  C216  A    
C167  C176  A    
C49   C70   A    
C23   C198  A    
Cu5   O10   S    
Cu11  O21   S    
C40   C78   A    
C51   C72   A    
C55   H25   S    
C195  H100  S    
C192  O3    A    
C19   C194  A    
Cu10  O20   S    
C45   C77   A    
C24   C99   A    
C147  C165  A    
C60   H69   S    
C123  C137  A    
Cu3   Cu4   S    
Cu2   O33   S    
C96   C214  A    
C36   C53   A    
C211  H6    S    
C50   C67   A    
C129  C140  A    
C30   O18   A    
C37   H24   S    
C38   C55   A    
C1    O1    A    
Br12  C124  S    
C108  C127  A    
C50   C73   A    
C70   C84   A    
C61   H13   S    
C20   C193  A    
C1    C222  S    
C143  C183  A    
C215  H9    S    
C209  C222  A    
C135  C182  A    
C16   O43   A    
C196  H101  S    
C160  H83   S    
C191  H97   S    
Cu5   O45   S    
C40   C58   A    
Br14  C141  S    
Cu1   Cu6   S    
C66   H21   S    
C27   O10   A    
C57   C111  A    
C150  C185  A    
C21   C196  A    
Br8   C151  S    
C25   C201  A    
C10   O29   A    
C111  H55   S    
C166  C177  A    
C29   O15   A    
C118  H61   S    
Br13  C135  S    
C137  C183  S    
C48   H35   S    
C132  C178  S    
C98   H42   S    
Cu5   Cu7   S    
Br4   C146  S    
C204  C221  A    
C22   C197  A    
C160  C171  A    
Cu5   O12   S    
C49   H37   S    
C100  H44   S    
C188  C206  A    
C150  C167  A    
C33   C87   S    
C156  H79   S    
C90   C179  A    
Cu1   O46   S    
C69   H19   S    
C202  C220  A    
C23   C176  S    
C105  C123  A    
C41   C82   A    
C107  C126  A    
C5    C181  S    
Cu11  O8    S    
C189  C207  A    
C53   C65   A    
C18   C195  A    
Br3   C145  S    
C111  C130  A    
C71   C88   A    
C76   C89   A    
C53   H47   S    
C128  H71   S    
C14   O41   A    
C17   C169  S    
C34   C52   A    
C48   C71   A    
C133  C179  S    
C208  H3    S    
C32   C88   S    
C166  H89   S    
C13   C98   A    
C135  C157  A    
C141  C180  A    
C194  C211  A    
Cu12  O29   S    
Cu3   O38   S    
C121  H64   S    
C140  C186  S    
C43   C61   A    
C76   C82   A    
C144  C184  A    
C78   C92   A    
C221  H16   S    
C145  C185  A    
C110  H54   S    
C207  C224  A    
C153  H76   S    
C148  O23   A    
Cu11  O26   S    
C5    C215  A    
C204  H109  S    
C155  C173  A    
Cu11  O4    S    
C128  C137  A    
C131  C138  A    
C131  H74   S    
C159  O45   A    
C47   H34   S    
C158  C172  A    
C52   H36   S    
C81   C92   A    
C191  C209  A    
C163  C176  A    
C188  H94   S    
C47   C76   A    
C148  C224  S    
C56   C62   A    
C44   H32   S    
C181  O8    A    
C45   H33   S    
C126  C139  A    
C59   C64   A    
C113  C182  A    
C123  H66   S    
Cu1   O1    S    
C118  C136  A    
C124  C156  A    
Br16  C143  S    
Cu6   O44   S    
C18   C171  S    
C42   C81   A    
C170  O48   A    
C143  C161  A    
C70   C87   A    
C54   H1    S    
C28   O14   A    
C19   C189  A    
C71   C83   A    
Cu9   O6    S    
Cu9   Cu11  S    
C20   C173  S    
C103  C121  A    
C22   C204  A    
C212  C223  A    
C190  C208  A    
C16   C57   S    
Cu6   O11   S    
C43   C75   A    
Cu12  O27   S    
Br9   C90   S    
C105  H49   S    
C107  H51   S    
C26   C95   S    
C108  H52   S    
C119  H62   S    
Cu10  O3    S    
C30   C91   S    
C155  H78   S    
C136  C182  S    
C115  C132  A    
C16   O39   A    
C134  C180  S    
C31   O21   A    
C6    C220  A    
C142  C160  A    
Cu8   O25   S    
C4    C218  A    
C73   C88   A    
C96   H40   S    
C90   C153  A    
C2    C104  A    
C72   C87   A    
C152  C169  A    
C21   C200  A    
C102  H45   S    
C113  C155  A    
C39   C56   A    
Cu6   O23   S    
C58   H91   S    
C68   C108  A    
C27   O13   A    
C36   C83   A    
C142  C179  A    
C125  H67   S    
C148  O46   A    
C101  C180  A    
C77   C91   A    
C162  C175  A    
C163  H86   S    
C127  C140  A    
C114  H56   S    
C209  H4    S    
C157  C173  A    
C8    C24   S    
C98   C117  A    
C122  H65   S    
Cu8   O48   S    
C6    C216  A    
C50   H38   S    
C119  C132  A    
C189  H95   S    
C28   O16   A    
Cu8   O7    S    
