data_mof_unit_7739.cif
_audit_creation_date              2012-12-10T17:15:16-0500
_audit_creation_method            fapswitch 2.2
_symmetry_space_group_name_H-M    P1
_symmetry_Int_Tables_number       1
_space_group_crystal_system       triclinic
_cell_length_a                    15.846942
_cell_length_b                    12.978054
_cell_length_c                    11.845265
_cell_angle_alpha                 101.198543
_cell_angle_beta                  93.395871
_cell_angle_gamma                 94.913225
_cell_volume                      2373.77747629

loop_
_atom_site_label
_atom_site_type_symbol
_atom_type_description
_atom_site_fract_x
_atom_site_fract_y
_atom_site_fract_z
_atom_type_partial_charge
C1    C     C_R   0.503411 0.299062 0.476369 0.810777
C2    C     C_R   0.502567 0.701379 0.523315 0.820454
C3    C     C_R   0.458067 0.006769 0.354425 0.190842
C4    C     C_R   0.547172 0.993037 0.651207 0.203017
C5    C     C_R   0.484146 0.113719 0.353292 0.123621
C6    C     C_R   0.552936 0.884173 0.634244 0.118906
C7    C     C_R   0.543080 0.143285 0.551998 0.096349
C8    C     C_R   0.452964 0.861334 0.465104 0.100594
C9    C     C_R   0.521024 0.036108 0.555193 0.003098
C10   C     C_R   0.473830 0.968470 0.458250 -0.000316
C11   C     C_R   0.391166 0.438894 0.030812 0.009505
C12   C     C_R   0.569666 0.618146 0.979015 0.023088
C13   C     C_R   0.413390 0.424824 0.145076 0.313193
C14   C     C_R   0.579185 0.583757 0.860421 0.296120
C15   C     C_R   0.534451 0.549723 0.157904 0.300115
C16   C     C_R   0.452071 0.469587 0.844160 0.292546
C17   C     C_R   0.521201 0.549666 0.036104 -0.090251
C18   C     C_R   0.454580 0.483682 0.969077 -0.090263
C19   C     C_R   0.340173 0.500150 0.500327 0.817242
C20   C     C_R   0.659935 0.500799 0.499832 0.804712
C21   C     C_3   0.970274 0.435960 0.562957 0.157092
C22   C     C_3   0.030829 0.574247 0.438848 0.152239
C23   C     C_3   0.020418 0.408275 0.455030 0.152704
C24   C     C_3   0.980493 0.601782 0.546585 0.145500
C25   C     C_1   0.250911 0.502622 0.501491 -0.193141
C26   C     C_1   0.749555 0.501943 0.499282 -0.189827
C27   C     C_3   0.034284 0.533835 0.610783 0.053479
C28   C     C_3   0.966807 0.476394 0.390829 0.051332
C29   C     C_3   0.084113 0.506075 0.502595 0.032074
C30   C     C_3   0.916909 0.504077 0.499112 0.029943
C31   C     C_1   0.175663 0.504752 0.502336 -0.037642
C32   C     C_1   0.825107 0.503025 0.499016 -0.034300
C33   C     C_R   0.503631 0.817030 0.541041 -0.123012
C34   C     C_R   0.510352 0.183950 0.459132 -0.135030
Cu1   Cu    Cu3+1 0.506200 0.507730 0.615930 0.917938
Cu2   Cu    Cu3+1 0.493800 0.492270 0.384070 0.918299
N1    N     N_R   0.515540 0.519350 0.790140 -0.185186
N2    N     N_R   0.484460 0.480650 0.209860 -0.188775
O1    O     O_R   0.504400 0.354460 0.582000 -0.581665
O2    O     O_R   0.495600 0.645540 0.418000 -0.579363
O3    O     O_R   0.493920 0.341410 0.386200 -0.590625
O4    O     O_R   0.506080 0.658590 0.613800 -0.572019
O5    O     O_R   0.384320 0.506520 0.597880 -0.580703
O6    O     O_R   0.615680 0.493480 0.402120 -0.584290
O7    O     O_R   0.373840 0.493460 0.402080 -0.574658
O8    O     O_R   0.626160 0.506540 0.597920 -0.578789
C35   C     C_3   0.045540 0.298539 0.407223 -0.875497
H1    H     H_    0.988128 0.245330 0.369102 0.234701
H2    H     H_    0.091189 0.302601 0.340421 0.224691
H3    H     H_    0.076384 0.266758 0.477971 0.239290
C36   C     C_3   0.955632 0.711449 0.595398 -0.866828
H4    H     H_    0.013496 0.765440 0.629481 0.233339
H5    H     H_    0.921718 0.742118 0.526141 0.236873
H6    H     H_    0.913006 0.707795 0.665733 0.227321
C37   C     C_3   0.933226 0.355552 0.629240 -0.878656
H7    H     H_    0.985435 0.323265 0.673760 0.235324
H8    H     H_    0.891509 0.393531 0.693588 0.228442
H9    H     H_    0.894872 0.290182 0.568348 0.240329
C38   C     C_3   0.067969 0.654982 0.372978 -0.873471
H10   H     H_    0.015939 0.685122 0.325765 0.233272
H11   H     H_    0.104183 0.721720 0.434563 0.238936
H12   H     H_    0.111857 0.618321 0.311063 0.226806
C39   C     C_3   0.921376 0.445623 0.269367 -0.376058
C40   C     C_3   0.982484 0.420284 0.174396 -0.333928
C41   C     C_3   0.934548 0.394056 0.055168 -0.871941
H13   H     H_    0.886478 0.325263 0.048898 0.256939
H14   H     H_    0.902359 0.462910 0.038257 0.253286
H15   H     H_    0.979844 0.374043 0.988175 0.243355
H16   H     H_    0.030051 0.488679 0.177260 0.225852
H17   H     H_    0.016467 0.351592 0.186582 0.225174
H18   H     H_    0.875136 0.375586 0.266476 0.197983
H19   H     H_    0.885428 0.512090 0.253887 0.197120
C42   C     C_3   0.079170 0.570143 0.732104 -0.376176
C43   C     C_3   0.017544 0.574945 0.827606 -0.334892
C44   C     C_3   0.060894 0.632486 0.944002 -0.875305
H20   H     H_    0.117810 0.594069 0.966496 0.253423
H21   H     H_    0.080430 0.716185 0.941301 0.255629
H22   H     H_    0.016005 0.630507 0.012259 0.246147
H23   H     H_    0.961906 0.616252 0.806925 0.226323
H24   H     H_    0.994512 0.493680 0.835379 0.222997
H25   H     H_    0.126906 0.514965 0.745158 0.191455
H26   H     H_    0.113578 0.649338 0.736734 0.202672
C45   C     C_3   0.370457 0.799254 0.409885 -0.813186
H27   H     H_    0.346096 0.744241 0.464262 0.214830
H28   H     H_    0.319959 0.852714 0.404949 0.222210
H29   H     H_    0.379328 0.751598 0.323745 0.245873
C46   C     C_3   0.616538 0.208437 0.629571 -0.788803
H30   H     H_    0.648344 0.268410 0.586660 0.218548
H31   H     H_    0.594265 0.250510 0.711386 0.245470
H32   H     H_    0.666991 0.158082 0.646941 0.222613
C47   C     C_3   0.613202 0.841988 0.713373 -0.863788
H33   H     H_    0.657037 0.905244 0.769159 0.235127
H34   H     H_    0.576899 0.799311 0.770038 0.250493
H35   H     H_    0.653827 0.789476 0.660291 0.213362
C48   C     C_3   0.496258 0.147523 0.239090 -0.825208
H36   H     H_    0.527773 0.087507 0.181079 0.218710
H37   H     H_    0.434231 0.158422 0.197112 0.228840
H38   H     H_    0.541644 0.218589 0.246746 0.254845
C49   C     C_3   0.420931 0.932680 0.243357 -0.865119
H39   H     H_    0.422563 0.966330 0.164711 0.231194
H40   H     H_    0.456312 0.861949 0.227206 0.229322
H41   H     H_    0.352557 0.910382 0.248512 0.230586
C50   C     C_3   0.557261 0.057382 0.773435 -0.871189
H42   H     H_    0.533965 0.008527 0.834697 0.234454
H43   H     H_    0.624819 0.085972 0.800161 0.230242
H44   H     H_    0.517480 0.124399 0.782250 0.234637
C51   C     C_3   0.385795 0.387335 0.774569 -0.747089
H45   H     H_    0.395936 0.360000 0.684935 0.261537
H46   H     H_    0.384098 0.314717 0.810574 0.190536
H47   H     H_    0.323301 0.418154 0.770766 0.209634
C52   C     C_3   0.606946 0.624714 0.224976 -0.761707
H48   H     H_    0.616594 0.626011 0.316191 0.263091
H49   H     H_    0.667560 0.607568 0.186188 0.193351
H50   H     H_    0.595234 0.707310 0.226541 0.204634
C53   C     C_3   0.665373 0.606320 0.819628 -0.798437
H51   H     H_    0.711896 0.647515 0.890934 0.186198
H52   H     H_    0.691686 0.530589 0.787192 0.237803
H53   H     H_    0.662567 0.654930 0.753334 0.243881
C54   C     C_3   0.352989 0.350889 0.193055 -0.794028
H54   H     H_    0.292459 0.385850 0.210551 0.210720
H55   H     H_    0.340413 0.274927 0.130173 0.178277
H56   H     H_    0.376515 0.329248 0.272251 0.272448
C55   C     C_3   0.296709 0.444186 0.997027 -0.364964
C56   C     C_3   0.243245 0.336238 0.957757 -0.333987
C57   C     C_3   0.165527 0.342963 0.877893 -0.884227
H57   H     H_    0.126548 0.404251 0.920086 0.259960
H58   H     H_    0.184799 0.361639 0.795134 0.250082
H59   H     H_    0.125935 0.265895 0.858638 0.243419
H60   H     H_    0.281372 0.274780 0.914388 0.219459
H61   H     H_    0.218895 0.308820 0.033815 0.212689
H62   H     H_    0.267936 0.488811 0.072586 0.173639
H63   H     H_    0.289431 0.495616 0.933312 0.197777
C58   C     C_3   0.566389 0.736838 0.017110 -0.378949
C59   C     C_3   0.653866 0.800230 0.049585 -0.359757
C60   C     C_3   0.645657 0.910024 0.120155 -0.857254
H64   H     H_    0.604932 0.953528 0.070139 0.252673
H65   H     H_    0.617661 0.904358 0.202777 0.260969
H66   H     H_    0.709424 0.954835 0.140005 0.243552
H67   H     H_    0.696344 0.758741 0.099463 0.222308
H68   H     H_    0.684161 0.810684 0.969901 0.221599
H69   H     H_    0.534155 0.767472 0.946341 0.181625
H70   H     H_    0.523807 0.753321 0.087969 0.194619

loop_
_geom_bond_atom_site_label_1
_geom_bond_atom_site_label_2
_ccdc_geom_bond_type
C25   C31   T    
C60   H66   S    
C46   H30   S    
C11   C18   A    
C26   C32   T    
C22   C29   S    
C55   H63   S    
C27   C29   S    
C8    C45   S    
C42   C43   S    
C48   H36   S    
C59   H67   S    
C24   C27   S    
C37   H7    S    
C48   H38   S    
C55   C56   S    
C35   H2    S    
C58   H70   S    
C23   C29   S    
Cu1   N1    S    
C59   H68   S    
C14   C53   S    
C4    C50   S    
C7    C9    A    
Cu1   O4    S    
C16   C51   S    
C5    C48   S    
C46   H32   S    
C50   H43   S    
C7    C46   S    
C49   H39   S    
C53   H52   S    
C12   C17   A    
C57   H59   S    
C51   H45   S    
C40   H17   S    
C52   H50   S    
Cu1   O5    S    
C9    C10   A    
C45   H28   S    
C16   N1    A    
C41   H15   S    
C24   C36   S    
C60   H64   S    
C21   C27   S    
C38   H10   S    
C43   H24   S    
C51   H46   S    
Cu2   O3    S    
C42   H25   S    
C20   O6    A    
C19   O5    A    
C1    C34   S    
C35   H3    S    
C54   H55   S    
C38   H11   S    
C23   C35   S    
C43   C44   S    
C36   H4    S    
C35   H1    S    
C15   C52   S    
Cu2   O2    S    
C4    C6    A    
C22   C38   S    
C21   C37   S    
C41   H14   S    
C40   H16   S    
C36   H5    S    
Cu1   Cu2   S    
Cu1   O1    S    
C44   H20   S    
C15   N2    A    
C2    O2    A    
C47   H34   S    
C45   H27   S    
C53   H53   S    
C5    C34   A    
C49   H41   S    
C19   O7    A    
C17   C18   A    
C56   H61   S    
Cu2   O7    S    
C52   H49   S    
C16   C18   A    
C23   C28   S    
C44   H21   S    
C13   N2    A    
C2    C33   S    
C1    O3    A    
C49   H40   S    
C12   C14   A    
C43   H23   S    
C37   H8    S    
C57   H57   S    
C51   H47   S    
C22   C24   S    
Cu2   O6    S    
C42   H26   S    
C47   H33   S    
C13   C54   S    
C54   H56   S    
C60   H65   S    
C38   H12   S    
C52   H48   S    
C55   H62   S    
C11   C55   S    
C39   H18   S    
C3    C5    A    
C54   H54   S    
C48   H37   S    
C15   C17   A    
C59   C60   S    
C21   C30   S    
C58   H69   S    
C6    C33   A    
C12   C58   S    
C36   H6    S    
C40   C41   S    
C21   C23   S    
C28   C30   S    
C29   C31   S    
C3    C10   A    
C47   H35   S    
C30   C32   S    
C11   C13   A    
C53   H51   S    
C58   C59   S    
C20   C26   S    
C2    O4    A    
Cu2   N2    S    
C7    C34   A    
C56   H60   S    
C50   H44   S    
C8    C33   A    
C19   C25   S    
C44   H22   S    
C24   C30   S    
C1    O1    A    
C39   C40   S    
C28   C39   S    
C3    C49   S    
C45   H29   S    
C39   H19   S    
C8    C10   A    
C41   H13   S    
C37   H9    S    
C50   H42   S    
C57   H58   S    
C46   H31   S    
C22   C28   S    
C4    C9    A    
C27   C42   S    
Cu1   O8    S    
C20   O8    A    
C6    C47   S    
C56   C57   S    
C14   N1    A    
