data_mof_unit_43268.cif
_audit_creation_date              2012-12-11T14:52:49-0500
_audit_creation_method            fapswitch 2.2
_symmetry_space_group_name_H-M    P1
_symmetry_Int_Tables_number       1
_space_group_crystal_system       triclinic
_cell_length_a                    20.703076
_cell_length_b                    7.258693
_cell_length_c                    20.113684
_cell_angle_alpha                 90.000099
_cell_angle_beta                  101.671516
_cell_angle_gamma                 90.000446
_cell_volume                      2960.13218738

loop_
_atom_site_label
_atom_site_type_symbol
_atom_type_description
_atom_site_fract_x
_atom_site_fract_y
_atom_site_fract_z
_atom_type_partial_charge
O1    O     O_R   0.673670 0.377510 0.185950 -0.535650
O2    O     O_R   0.326330 0.622490 0.814050 -0.535684
O3    O     O_R   0.826330 0.877510 0.314050 -0.535658
O4    O     O_R   0.173670 0.122490 0.685950 -0.535665
O5    O     O_R   0.806260 0.705340 0.185590 -0.534840
O6    O     O_R   0.193740 0.294660 0.814410 -0.534853
O7    O     O_R   0.693740 0.205340 0.314410 -0.534829
O8    O     O_R   0.306260 0.794660 0.685590 -0.534873
C1    C     C_R   0.825724 0.538731 0.170857 0.716083
C2    C     C_R   0.174276 0.461269 0.829144 0.716093
C3    C     C_R   0.674275 0.038729 0.329143 0.716080
C4    C     C_R   0.325724 0.961269 0.670856 0.716105
O9    O     O_R   0.672940 0.707120 0.178050 -0.538024
O10   O     O_R   0.327060 0.292880 0.821950 -0.537996
O11   O     O_R   0.827060 0.207120 0.321950 -0.538021
O12   O     O_R   0.172940 0.792880 0.678050 -0.538013
O13   O     O_R   0.692060 0.879040 0.306460 -0.534456
O14   O     O_R   0.307940 0.120960 0.693540 -0.534406
O15   O     O_R   0.807940 0.379040 0.193540 -0.534446
O16   O     O_R   0.192060 0.620960 0.806460 -0.534427
C5    C     C_R   0.648772 0.539084 0.161307 0.689774
C6    C     C_R   0.351225 0.460918 0.838696 0.689645
C7    C     C_R   0.851228 0.039085 0.338693 0.689735
C8    C     C_R   0.148773 0.960915 0.661306 0.689702
O17   O     O_3   0.756430 0.544390 0.292140 -0.372690
O18   O     O_3   0.243570 0.455610 0.707860 -0.372686
O19   O     O_3   0.743570 0.044390 0.207860 -0.372688
O20   O     O_3   0.256430 0.955610 0.792140 -0.372686
V1    V     V_3+5 0.748810 0.818610 0.242180 1.402025
V2    V     V_3+5 0.251190 0.181390 0.757820 1.402074
V3    V     V_3+5 0.751190 0.318610 0.257820 1.402046
V4    V     V_3+5 0.248810 0.681390 0.742180 1.402023
C9    C     C_R   0.086352 0.967196 0.609687 -0.066502
C10   C     C_R   0.913648 0.032806 0.390313 -0.066530
C11   C     C_R   0.413646 0.467214 0.890313 -0.066440
C12   C     C_R   0.586352 0.532803 0.109687 -0.066550
C13   C     C_R   0.030685 0.104192 0.428086 -0.194190
C14   C     C_R   0.969316 0.895814 0.571913 -0.194195
C15   C     C_R   0.469307 0.604110 0.071927 -0.194179
C16   C     C_R   0.530694 0.395953 0.928071 -0.194195
C17   C     C_R   0.973499 0.102760 0.376274 0.076743
C18   C     C_R   0.026501 0.897249 0.623726 0.076730
C19   C     C_R   0.526497 0.602708 0.123734 0.076745
C20   C     C_R   0.473507 0.397384 0.876258 0.076710
C21   C     C_R   0.913003 0.962015 0.455298 -0.252727
C22   C     C_R   0.086999 0.037985 0.544701 -0.252723
C23   C     C_R   0.587001 0.462073 0.044694 -0.252717
C24   C     C_R   0.412993 0.537924 0.955309 -0.252723
C25   C     C_R   0.970405 0.963810 0.506797 0.128638
C26   C     C_R   0.029596 0.036192 0.493202 0.128630
C27   C     C_R   0.529598 0.463863 0.993197 0.128647
C28   C     C_R   0.470399 0.536159 0.006805 0.128627
H1    H     H_    0.132708 0.091578 0.533972 0.112334
H2    H     H_    0.867294 0.908419 0.466027 0.112327
H3    H     H_    0.367277 0.591444 0.966047 0.112314
H4    H     H_    0.632715 0.408533 0.033958 0.112316
C29   C     C_3   0.553515 0.094505 0.530736 -0.137603
C30   C     C_3   0.446481 0.905470 0.469259 -0.137649
C31   C     C_3   0.946485 0.594517 0.969261 -0.137627
C32   C     C_3   0.053516 0.405477 0.030740 -0.137645
C33   C     C_3   0.528304 0.913339 0.557506 -0.142585
C34   C     C_3   0.471692 0.086637 0.442489 -0.142632
C35   C     C_3   0.971694 0.413348 0.942492 -0.142595
C36   C     C_3   0.028307 0.586646 0.057510 -0.142618
H5    H     H_    0.597845 0.172667 0.555882 0.106925
H6    H     H_    0.402151 0.827309 0.444113 0.106955
H7    H     H_    0.902156 0.672680 0.944115 0.106940
H8    H     H_    0.097846 0.327314 0.055887 0.106943
C37   C     C_1   0.371417 0.969750 0.624975 -0.191419
C38   C     C_1   0.628580 0.030241 0.375022 -0.191348
C39   C     C_1   0.128583 0.469751 0.875025 -0.191381
C40   C     C_1   0.871418 0.530248 0.124976 -0.191384
C41   C     C_3   0.482056 0.170503 0.514787 -0.142453
C42   C     C_3   0.517940 0.829472 0.485208 -0.142516
C43   C     C_3   0.017945 0.670513 0.985212 -0.142472
C44   C     C_3   0.982056 0.329481 0.014790 -0.142491
C45   C     C_3   0.457482 0.989477 0.540939 0.174664
C46   C     C_3   0.542514 0.010498 0.459056 0.174621
C47   C     C_3   0.042517 0.489484 0.959060 0.174655
C48   C     C_3   0.957484 0.510510 0.040942 0.174642
C49   C     C_1   0.410055 0.978060 0.586968 -0.071808
C50   C     C_1   0.589941 0.021921 0.413027 -0.071640
C51   C     C_1   0.089944 0.478064 0.913031 -0.071722
C52   C     C_1   0.910057 0.521931 0.086970 -0.071693
C53   C     C_3   0.021860 0.827740 0.693714 -0.377233
C54   C     C_3   0.021081 0.988353 0.743235 -0.303152
C55   C     C_3   0.020091 0.919079 0.814676 -0.766158
H9    H     H_    0.976305 0.830331 0.814305 0.225767
H10   H     H_    0.065588 0.839344 0.834880 0.238850
H11   H     H_    0.017909 0.038196 0.848815 0.213389
H12   H     H_    0.065316 0.076567 0.745701 0.198344
H13   H     H_    0.976602 0.074553 0.725163 0.191492
H14   H     H_    0.975995 0.745788 0.690993 0.168171
H15   H     H_    0.063433 0.732890 0.713243 0.185974
C56   C     C_3   0.978136 0.172282 0.306287 -0.377234
C57   C     C_3   0.978942 0.011675 0.256770 -0.303141
C58   C     C_3   0.979820 0.080971 0.185305 -0.765955
H16   H     H_    0.934247 0.160446 0.165124 0.238817
H17   H     H_    0.023537 0.169992 0.185622 0.225750
H18   H     H_    0.982063 0.961854 0.151176 0.213355
H19   H     H_    0.023477 0.925653 0.274804 0.191451
H20   H     H_    0.934759 0.923270 0.254363 0.198310
H21   H     H_    0.936554 0.267093 0.286755 0.186007
H22   H     H_    0.023991 0.254281 0.309008 0.168125
C59   C     C_3   0.478157 0.327978 0.806258 -0.377281
C60   C     C_3   0.478842 0.488645 0.756739 -0.303000
C61   C     C_3   0.479997 0.419412 0.685324 -0.765901
H23   H     H_    0.523962 0.331257 0.685749 0.225616
H24   H     H_    0.434636 0.339024 0.665109 0.238794
H25   H     H_    0.481993 0.538621 0.651162 0.213396
H26   H     H_    0.434506 0.576518 0.754206 0.198335
H27   H     H_    0.523229 0.575203 0.774854 0.191447
H28   H     H_    0.524057 0.246206 0.808955 0.168243
H29   H     H_    0.436623 0.232999 0.786740 0.185885
C62   C     C_3   0.521864 0.672225 0.193723 -0.377229
C63   C     C_3   0.521042 0.511619 0.243235 -0.303230
C64   C     C_3   0.520272 0.580901 0.314721 -0.766255
H30   H     H_    0.565904 0.660057 0.334879 0.238875
H31   H     H_    0.476650 0.670179 0.314452 0.225862
H32   H     H_    0.517957 0.461838 0.348840 0.213384
H33   H     H_    0.476463 0.425762 0.225239 0.191483
H34   H     H_    0.565172 0.423062 0.245585 0.198354
H35   H     H_    0.563455 0.767005 0.213257 0.186051
H36   H     H_    0.476020 0.754261 0.191005 0.168096
H37   H     H_    0.076459 0.157373 0.417417 0.111549
H38   H     H_    0.923541 0.842637 0.582581 0.111547
H39   H     H_    0.423528 0.657239 0.082603 0.111549
H40   H     H_    0.576476 0.342851 0.917394 0.111541
H41   H     H_    0.551335 0.841680 0.605182 0.106835
H42   H     H_    0.448661 0.158296 0.394814 0.106815
H43   H     H_    0.948662 0.341689 0.894816 0.106820
H44   H     H_    0.051339 0.658305 0.105186 0.106811
H45   H     H_    0.532933 0.688775 0.472816 0.113947
H46   H     H_    0.467063 0.311201 0.527180 0.113922
H47   H     H_    0.967062 0.188784 0.027182 0.113934
H48   H     H_    0.032939 0.811211 0.972820 0.113928

loop_
_geom_bond_atom_site_label_1
_geom_bond_atom_site_label_2
_ccdc_geom_bond_type
O17   V3    S    
C24   H3    S    
C55   H9    S    
C32   C47   S    
O1    C5    A    
C57   H20   S    
O19   V1    S    
O13   V1    S    
C34   H42   S    
O3    C7    A    
C56   C57   S    
C1    C40   S    
C4    C37   S    
O15   V3    S    
C58   H16   S    
C3    C38   S    
C5    C12   S    
C35   C47   S    
C20   C59   S    
O7    C3    A    
C6    C11   S    
C30   H6    S    
C63   H34   S    
C9    C18   A    
C59   H28   S    
C14   C18   A    
C54   H12   S    
C64   H31   S    
O4    C8    A    
C35   C44   S    
C62   C63   S    
C16   H40   S    
C42   H45   S    
O1    V3    S    
C63   C64   S    
C12   C23   A    
O2    V4    S    
C29   C41   S    
O3    V1    S    
C30   C45   S    
C19   C62   S    
C53   H14   S    
C1    O15   A    
C36   H44   S    
C33   C45   S    
O2    C6    A    
C61   H23   S    
C34   C41   S    
O14   V2    S    
C35   H43   S    
C16   C20   A    
C39   C51   T    
C48   C52   S    
C31   H7    S    
C2    C39   S    
O11   C7    A    
C15   C28   A    
O12   C8    A    
C57   H19   S    
C9    C22   A    
C36   C48   S    
C17   C56   S    
C10   C17   A    
O10   V2    S    
C11   C24   A    
C14   H38   S    
C44   H47   S    
C56   H21   S    
O5    V1    S    
C60   H26   S    
C60   H27   S    
O7    V3    S    
C63   H33   S    
C27   C28   A    
O8    V4    S    
C59   H29   S    
C62   H35   S    
C58   H17   S    
C64   H32   S    
C2    O16   A    
C14   C25   A    
C43   H48   S    
C15   C19   A    
C53   C54   S    
C32   C44   S    
C15   H39   S    
O5    C1    A    
C53   H15   S    
C46   C50   S    
C45   C49   S    
O8    C4    A    
C7    C10   S    
C57   C58   S    
C21   C25   A    
O9    C5    A    
C18   C53   S    
O11   V3    S    
C11   C20   A    
C40   C52   T    
C10   C21   A    
C30   C34   S    
O6    V2    S    
C21   H2    S    
C55   H10   S    
C42   C46   S    
C61   H25   S    
C31   C43   S    
C13   H37   S    
C58   H18   S    
C56   H22   S    
C30   C42   S    
O16   V4    S    
O9    V1    S    
C3    O13   A    
C62   H36   S    
C54   C55   S    
C29   C46   S    
C34   C46   S    
C44   C48   S    
C29   H5    S    
C31   C48   S    
O6    C2    A    
C23   C27   A    
C29   C33   S    
O18   V4    S    
C33   H41   S    
C33   C42   S    
O12   V4    S    
C16   C27   A    
C59   C60   S    
C22   C26   A    
C31   C35   S    
C8    C9    S    
C32   C36   S    
O10   C6    A    
O20   V2    S    
C54   H13   S    
C64   H30   S    
C47   C51   S    
C13   C26   A    
C61   H24   S    
C22   H1    S    
C36   C43   S    
C13   C17   A    
C38   C50   T    
C37   C49   T    
C24   C28   A    
C41   H46   S    
C32   H8    S    
C25   C26   A    
C60   C61   S    
C55   H11   S    
C4    O14   A    
C41   C45   S    
C12   C19   A    
C43   C47   S    
O4    V2    S    
C23   H4    S    
