data_mof_unit_53924.cif
_audit_creation_date              2012-12-10T20:26:27-0500
_audit_creation_method            fapswitch 2.2
_symmetry_space_group_name_H-M    P1
_symmetry_Int_Tables_number       1
_space_group_crystal_system       triclinic
_cell_length_a                    10.726511
_cell_length_b                    10.682806
_cell_length_c                    9.908855
_cell_angle_alpha                 90.039686
_cell_angle_beta                  92.430946
_cell_angle_gamma                 90.041375
_cell_volume                      1134.42570441

loop_
_atom_site_label
_atom_site_type_symbol
_atom_type_description
_atom_site_fract_x
_atom_site_fract_y
_atom_site_fract_z
_atom_type_partial_charge
C1    C     C_R   0.501309 0.260203 0.500267 0.865538
C2    C     C_R   0.512246 0.128256 0.502947 -0.066038
C3    C     C_R   0.566027 0.064951 0.395948 -0.210734
C4    C     C_R   0.566565 0.935302 0.395232 -0.225452
C5    C     C_R   0.516015 0.871148 0.503350 -0.099906
C6    C     C_R   0.483697 0.935344 0.618559 0.084524
C7    C     C_3   0.370275 0.923543 0.700323 -0.096416
C8    C     C_3   0.365833 0.066547 0.701663 -0.045212
C9    C     C_R   0.392124 0.486248 0.065803 0.162271
C10   C     C_R   0.606098 0.523785 0.076493 -0.155162
C11   C     C_R   0.606266 0.522435 0.932943 -0.133319
C12   C     C_R   0.262849 0.499693 0.496384 0.933500
C13   C     C_R   0.390699 0.491999 0.923905 0.197903
C14   C     C_3   0.293893 0.391531 0.909879 -0.202187
C15   C     C_3   0.301346 0.379833 0.063884 -0.070807
C16   C     C_R   0.502747 0.739611 0.500269 0.863963
C17   C     C_R   0.737734 0.494795 0.503659 0.889229
C18   C     C_2   0.929655 0.428661 0.410705 -0.318663
C19   C     C_2   0.869090 0.469477 0.517949 0.059497
C20   C     C_2   0.064732 0.416314 0.417833 0.111682
C21   C     C_2   0.131070 0.505210 0.483716 -0.295496
C22   C     C_R   0.479635 0.062829 0.617830 0.009181
H1    H     H_    0.880960 0.410260 0.314300 0.154994
H2    H     H_    0.384302 0.109885 0.802221 0.137944
H3    H     H_    0.692469 0.541299 0.133463 0.151910
H4    H     H_    0.692268 0.538387 0.883174 0.157280
H5    H     H_    0.323533 0.309555 0.851040 0.190002
H6    H     H_    0.214169 0.405921 0.113265 0.133579
H7    H     H_    0.087667 0.588180 0.523362 0.136806
H8    H     H_    0.603161 0.114899 0.311697 0.158325
H9    H     H_    0.601477 0.886013 0.309025 0.164163
H10   H     H_    0.291390 0.875751 0.644754 0.167333
N1    N     N_R   0.499170 0.499140 0.142800 -0.097460
N2    N     N_R   0.499170 0.499180 0.857150 -0.109770
O1    O     O_R   0.500020 0.316790 0.614690 -0.635837
O2    O     O_R   0.500000 0.316760 0.385350 -0.596732
O3    O     O_R   0.319080 0.500020 0.614640 -0.601653
O4    O     O_R   0.319070 0.499980 0.385300 -0.597474
O5    O     O_R   0.500000 0.683240 0.614650 -0.599014
O6    O     O_R   0.499980 0.683210 0.385310 -0.622716
O7    O     O_R   0.680930 0.500020 0.614700 -0.601173
O8    O     O_R   0.680920 0.499980 0.385360 -0.651446
Zn1   Zn    Zn3+2 0.500010 0.500020 0.653130 0.955667
Zn2   Zn    Zn3+2 0.499990 0.499980 0.346870 0.948138
N3    N     N_3   0.173898 0.440954 0.859303 -0.443088
H11   H     H_    0.105915 0.374381 0.880255 0.178532
H12   H     H_    0.151628 0.522104 0.912460 0.182292
N4    N     N_2   0.350908 0.259580 0.111690 -0.250374
H13   H     H_    0.284563 0.189662 0.105449 0.218469
C23   C     C_3   0.473599 0.217511 0.073864 -0.733874
H14   H     H_    0.483110 0.115557 0.093567 0.205951
H15   H     H_    0.547582 0.265968 0.135022 0.262842
H16   H     H_    0.489510 0.233811 0.965710 0.211884
N5    N     N_2   0.925187 0.466474 0.651940 -0.293619
H17   H     H_    0.996504 0.403928 0.672141 0.250642
C24   C     C_3   0.926358 0.580883 0.731122 -0.787418
H18   H     H_    0.902411 0.558583 0.836123 0.226910
H19   H     H_    0.859354 0.651391 0.688932 0.240712
H20   H     H_    0.020848 0.623165 0.734622 0.230766
N6    N     N_3   0.122874 0.310277 0.357635 -0.441608
H21   H     H_    0.092092 0.230266 0.406832 0.189021
H22   H     H_    0.088681 0.303770 0.257613 0.165942
N7    N     N_3   0.399334 0.868631 0.833333 -0.437859
H23   H     H_    0.474283 0.915922 0.881540 0.184614
H24   H     H_    0.321758 0.881840 0.892131 0.180880
N8    N     N_2   0.256315 0.116358 0.629114 -0.284888
H25   H     H_    0.268786 0.206524 0.595305 0.246129
C25   C     C_3   0.141419 0.103759 0.699417 -0.819459
H26   H     H_    0.148665 0.153759 0.797768 0.232001
H27   H     H_    0.120078 0.003566 0.717232 0.247263
H28   H     H_    0.063070 0.144646 0.637326 0.236573

loop_
_geom_bond_atom_site_label_1
_geom_bond_atom_site_label_2
_ccdc_geom_bond_type
O3    Zn1   S    
C3    H8    S    
C8    C22   S    
N7    H24   S    
O4    Zn2   S    
C6    C7    S    
C14   H5    S    
C20   N6    S    
C17   O8    A    
O1    Zn1   S    
N6    H21   S    
C23   H15   S    
C14   C15   S    
C24   H20   S    
C2    C22   A    
N4    C23   S    
C2    C3    A    
C9    C15   S    
C7    C8    S    
C13   C14   S    
C24   H18   S    
C9    N1    A    
O7    Zn1   S    
C7    N7    S    
C15   H6    S    
C8    N8    S    
O8    Zn2   S    
C15   N4    S    
C16   O6    A    
C25   H28   S    
C13   N2    A    
C1    C2    S    
C19   N5    S    
C25   H27   S    
N4    H13   S    
C17   C19   S    
C24   H19   S    
C23   H14   S    
C14   N3    S    
N5    C24   S    
N3    H12   S    
C12   O4    A    
C5    C6    A    
C17   O7    A    
O2    Zn2   S    
C23   H16   S    
N8    C25   S    
C16   O5    A    
N7    H23   S    
C4    H9    S    
O6    Zn2   S    
N8    H25   S    
C20   C21   D    
C10   H3    S    
C18   C20   S    
N6    H22   S    
C18   C19   D    
C10   C11   A    
O5    Zn1   S    
C12   O3    A    
C1    O1    A    
C9    C13   A    
N5    H17   S    
C25   H26   S    
C5    C16   S    
C10   N1    A    
C7    H10   S    
C11   H4    S    
C8    H2    S    
N3    H11   S    
N1    Zn2   S    
C21   H7    S    
C12   C21   S    
C11   N2    A    
N2    Zn1   S    
C18   H1    S    
C1    O2    A    
C4    C5    A    
C3    C4    A    
C6    C22   A    
