data_mof_unit_40414.cif
_audit_creation_date              2012-12-10T18:29:40-0500
_audit_creation_method            fapswitch 2.2
_symmetry_space_group_name_H-M    P1
_symmetry_Int_Tables_number       1
_space_group_crystal_system       triclinic
_cell_length_a                    11.53993
_cell_length_b                    15.021761
_cell_length_c                    15.683075
_cell_angle_alpha                 82.077532
_cell_angle_beta                  90.231707
_cell_angle_gamma                 104.747112
_cell_volume                      2602.64468234

loop_
_atom_site_label
_atom_site_type_symbol
_atom_type_description
_atom_site_fract_x
_atom_site_fract_y
_atom_site_fract_z
_atom_type_partial_charge
C1    C     C_R   0.480045 0.442013 0.661580 0.871939
C2    C     C_R   0.513622 0.558093 0.338434 0.892746
C3    C     C_R   0.484936 0.359025 0.930880 -0.011443
C4    C     C_R   0.545603 0.653277 0.069073 -0.011561
C5    C     C_R   0.496097 0.519454 0.954293 0.017296
C6    C     C_R   0.496242 0.491113 0.043844 0.005821
C7    C     C_R   0.500055 0.399194 0.074659 -0.236787
C8    C     C_R   0.525813 0.616140 0.923779 -0.278066
C9    C     C_R   0.494296 0.333756 0.019330 0.432274
C10   C     C_R   0.551797 0.682343 0.980314 0.443308
C11   C     C_R   0.690406 0.845217 0.630381 0.319425
C12   C     C_R   0.320314 0.152912 0.366112 0.306461
C13   C     C_R   0.662120 0.756759 0.603955 0.522280
C14   C     C_R   0.337392 0.238203 0.398180 0.534537
C15   C     C_R   0.506566 0.794161 0.517653 -0.058800
C16   C     C_R   0.501294 0.210113 0.478957 -0.052449
C17   C     C_R   0.548351 0.888771 0.527437 -0.032106
C18   C     C_R   0.469977 0.116085 0.465581 -0.041328
C19   C     C_R   0.632679 0.911710 0.591398 -0.093050
C20   C     C_R   0.390304 0.092394 0.398875 -0.094672
C21   C     C_R   0.506490 0.960606 0.478249 -0.050162
C22   C     C_R   0.520865 0.047090 0.511109 -0.058562
C23   C     C_R   0.718031 0.501137 0.500556 0.879560
C24   C     C_R   0.281912 0.498649 0.500136 0.882809
C25   C     C_R   0.584485 0.059430 0.588488 0.429985
C26   C     C_R   0.454431 0.950985 0.396508 0.420868
C27   C     C_R   0.654362 0.999367 0.617664 -0.196445
C28   C     C_R   0.388605 0.012421 0.362309 -0.234093
C29   C     C_1   0.839245 0.502781 0.501935 -0.143990
C30   C     C_1   0.160591 0.496558 0.500745 -0.191751
C31   C     C_1   0.941024 0.501174 0.502231 0.012205
C32   C     C_1   0.058777 0.497994 0.501637 -0.006026
C33   C     C_R   0.468151 0.408599 0.753874 -0.187220
C34   C     C_R   0.519129 0.593189 0.246528 -0.189721
C35   C     C_R   0.485329 0.294623 0.874047 -0.170490
C36   C     C_R   0.578983 0.717678 0.127443 -0.152697
C37   C     C_R   0.481884 0.320817 0.785957 -0.234575
C38   C     C_R   0.572308 0.686669 0.215591 -0.196413
C39   C     C_R   0.452131 0.469212 0.810921 0.406893
C40   C     C_R   0.474195 0.531069 0.188245 0.415687
C41   C     C_R   0.477369 0.450498 0.898436 -0.064923
C42   C     C_R   0.505461 0.557592 0.100495 -0.067325
H1    H     H_    0.607715 0.735603 0.259317 0.255997
H2    H     H_    0.491291 0.273102 0.742962 0.265799
H3    H     H_    0.493678 0.225263 0.897137 0.190270
H4    H     H_    0.614803 0.791154 0.105255 0.214045
H5    H     H_    0.516019 0.378093 0.141460 0.218725
H6    H     H_    0.539099 0.643049 0.856464 0.194544
H7    H     H_    0.714282 0.016977 0.669416 0.215070
H8    H     H_    0.343192 0.000978 0.302927 0.200168
H9    H     H_    0.578997 0.238005 0.514062 0.217537
H10   H     H_    0.429300 0.770048 0.480413 0.206662
N1    N     N_R   0.566020 0.731700 0.552730 -0.167900
N2    N     N_R   0.433980 0.268300 0.447270 -0.172867
O1    O     O_R   0.466720 0.383110 0.605620 -0.589112
O2    O     O_R   0.533280 0.616890 0.394380 -0.580513
O3    O     O_R   0.509090 0.531900 0.639510 -0.595287
O4    O     O_R   0.490910 0.468100 0.360490 -0.548721
O5    O     O_R   0.644370 0.425610 0.483050 -0.617998
O6    O     O_R   0.355630 0.574390 0.516950 -0.611739
O7    O     O_R   0.686740 0.574390 0.516930 -0.567046
O8    O     O_R   0.313260 0.425610 0.483070 -0.596701
Zn1   Zn    Zn3+2 0.471710 0.400660 0.477370 1.018970
Zn2   Zn    Zn3+2 0.528290 0.599340 0.522630 1.020123
O9    O     O_3   0.505764 0.246352 0.051972 -0.608904
C43   C     C_3   0.391449 0.190283 0.080909 0.068612
H11   H     H_    0.327433 0.184825 0.027283 0.132965
H12   H     H_    0.355069 0.218372 0.134153 0.195535
C44   C     C_3   0.402697 0.093416 0.114799 -0.722765
H13   H     H_    0.462137 0.096989 0.170704 0.293605
H14   H     H_    0.313178 0.047264 0.135343 0.203337
H15   H     H_    0.441289 0.064127 0.063699 0.247088
O10   O     O_3   0.585736 0.776022 0.948663 -0.645047
C45   C     C_3   0.482378 0.806659 0.925169 0.052807
H16   H     H_    0.400912 0.768377 0.965844 0.141552
H17   H     H_    0.463401 0.798441 0.856716 0.155443
C46   C     C_3   0.505585 0.908886 0.935338 -0.772689
H18   H     H_    0.588424 0.949697 0.898602 0.283371
H19   H     H_    0.428771 0.935951 0.911163 0.226237
H20   H     H_    0.516728 0.917316 0.004398 0.246747
S1    S     S_3+6 0.554978 0.127488 0.665559 -0.049114
O11   O     O_2   0.649647 0.218163 0.657639 -0.357037
O12   O     O_2   0.432609 0.144458 0.653880 -0.338276
O13   O     O_3   0.559225 0.069772 0.764785 -0.592796
H21   H     H_    0.544914 0.111890 0.804602 0.372550
S2    S     S_3+6 0.493658 0.880781 0.324657 -0.027071
O14   O     O_2   0.611521 0.860410 0.348343 -0.294505
O15   O     O_2   0.397969 0.791079 0.327632 -0.367286
O16   O     O_3   0.508152 0.937237 0.223355 -0.569024
H22   H     H_    0.435889 0.906695 0.193812 0.358673
O17   O     O_3   0.394483 0.446057 0.216393 -0.596757
C47   C     C_3   0.275450 0.453086 0.203214 0.173768
H23   H     H_    0.267435 0.514808 0.157072 0.101945
H24   H     H_    0.234842 0.457616 0.266028 0.174919
C48   C     C_3   0.203246 0.366517 0.168691 -0.812241
H25   H     H_    0.209756 0.302933 0.211606 0.310794
H26   H     H_    0.107612 0.367878 0.164793 0.205948
H27   H     H_    0.237875 0.364197 0.103298 0.228125
O18   O     O_3   0.409851 0.545632 0.780474 -0.629749
C49   C     C_3   0.283456 0.519019 0.785516 0.106699
H28   H     H_    0.250393 0.496286 0.853700 0.141624
H29   H     H_    0.247186 0.461860 0.746668 0.133303
C50   C     C_3   0.236592 0.602063 0.749628 -0.809482
H30   H     H_    0.267387 0.625707 0.681307 0.267105
H31   H     H_    0.137039 0.582262 0.753125 0.208880
H32   H     H_    0.270108 0.660073 0.787646 0.242197
O19   O     O_3   0.259247 0.293036 0.377164 -0.567446
C51   C     C_3   0.154026 0.257342 0.430611 0.130215
H33   H     H_    0.168048 0.280984 0.494646 0.171522
H34   H     H_    0.125809 0.180206 0.443884 0.085186
C52   C     C_3   0.051157 0.291232 0.388432 -0.823802
H35   H     H_    0.030751 0.263375 0.326556 0.250717
H36   H     H_    0.969914 0.267070 0.431602 0.221862
H37   H     H_    0.075422 0.368301 0.375694 0.253603
O20   O     O_3   0.744843 0.703766 0.614412 -0.570129
C53   C     C_3   0.735393 0.651486 0.697434 0.202346
H38   H     H_    0.710785 0.576641 0.690598 0.168702
H39   H     H_    0.666280 0.662520 0.740911 0.087985
C54   C     C_3   0.857358 0.670047 0.738822 -0.853021
H40   H     H_    0.849005 0.630297 0.804651 0.206541
H41   H     H_    0.922008 0.647533 0.699817 0.256810
H42   H     H_    0.893100 0.744956 0.743224 0.291746
O21   O     O_3   0.785429 0.870247 0.683903 -0.597696
C55   C     C_3   0.741091 0.863802 0.769263 0.068971
H43   H     H_    0.721041 0.791038 0.801539 0.171402
H44   H     H_    0.658023 0.888181 0.772725 0.165485
C56   C     C_3   0.836439 0.922401 0.820056 -0.747199
H45   H     H_    0.857426 0.996492 0.790575 0.251922
H46   H     H_    0.803514 0.916608 0.887538 0.240196
H47   H     H_    0.919411 0.897775 0.820411 0.247194
O22   O     O_3   0.246147 0.135221 0.297060 -0.618750
C57   C     C_3   0.138587 0.066786 0.323813 0.086087
H48   H     H_    0.067739 0.101642 0.336227 0.170747
H49   H     H_    0.146847 0.018140 0.382719 0.142619
C58   C     C_3   0.095338 0.009885 0.251324 -0.816373
H50   H     H_    0.156439 0.965872 0.240936 0.236613
H51   H     H_    0.004480 0.963669 0.268411 0.236286
H52   H     H_    0.090898 0.056728 0.190742 0.259108

loop_
_geom_bond_atom_site_label_1
_geom_bond_atom_site_label_2
_ccdc_geom_bond_type
C58   H52   S    
C43   H12   S    
C21   C26   A    
C4    C36   A    
C12   O22   S    
O7    Zn2   S    
O10   C45   S    
C52   H35   S    
C16   H9    S    
C8    H6    S    
S1    O11   D    
C48   H27   S    
C1    C33   S    
O21   C55   S    
C39   C41   A    
C46   H18   S    
C51   H33   S    
C23   O5    A    
C11   C19   A    
C33   C39   A    
C45   H17   S    
C34   C40   A    
C16   N2    A    
C15   N1    A    
C35   C37   A    
C5    C6    A    
C10   O10   S    
S2    O15   D    
C54   H42   S    
C43   C44   S    
N2    Zn1   S    
O20   C53   S    
C53   H38   S    
C58   H51   S    
C44   H14   S    
C49   H28   S    
C17   C19   A    
C28   H8    S    
C48   H25   S    
C51   H34   S    
C57   H48   S    
C22   C25   A    
O1    Zn1   S    
O19   C51   S    
O2    Zn2   S    
C36   H4    S    
C52   H37   S    
C19   C27   A    
C26   S2    S    
C2    C34   S    
C40   C42   A    
C43   H11   S    
C34   C38   A    
C21   C22   A    
C25   S1    S    
C49   H29   S    
S1    O12   D    
C13   N1    A    
C54   H41   S    
C45   H16   S    
C58   H50   S    
O13   H21   S    
C52   H36   S    
O17   C47   S    
S2    O14   D    
C20   C28   A    
C45   C46   S    
C49   C50   S    
C33   C37   A    
C7    H5    S    
C44   H15   S    
C56   H46   S    
O8    Zn1   S    
C3    C9    A    
C1    O3    A    
C39   O18   S    
O18   C49   S    
C3    C35   A    
C24   O6    A    
C12   C20   A    
C47   H24   S    
C46   H19   S    
C50   H31   S    
C51   C52   S    
C15   H10   S    
C13   O20   S    
C55   C56   S    
C57   H49   S    
C14   O19   S    
C14   N2    A    
C12   C14   A    
C24   C30   S    
C4    C10   A    
C56   H45   S    
C35   H3    S    
C23   C29   S    
S1    O13   S    
O3    Zn2   S    
C55   H44   S    
C46   H20   S    
O4    Zn1   S    
C15   C17   A    
C5    C41   A    
C48   H26   S    
C3    C41   A    
C24   O8    A    
C18   C22   A    
C26   C28   A    
C31   C32   S    
C11   O21   S    
S2    O16   S    
C5    C8    A    
C54   H40   S    
C2    O4    A    
C6    C7    A    
C25   C27   A    
O5    Zn1   S    
C53   C54   S    
O6    Zn2   S    
C16   C18   A    
C37   H2    S    
C36   C38   A    
C1    O1    A    
C56   H47   S    
C38   H1    S    
C29   C31   T    
C2    O2    A    
O22   C57   S    
C30   C32   T    
C11   C13   A    
C4    C42   A    
C57   C58   S    
C47   H23   S    
N1    Zn2   S    
C53   H39   S    
C50   H32   S    
C18   C20   A    
C47   C48   S    
C40   O17   S    
C44   H13   S    
C9    O9    S    
C7    C9    A    
C23   O7    A    
C8    C10   A    
O9    C43   S    
C6    C42   A    
C50   H30   S    
O16   H22   S    
C27   H7    S    
C55   H43   S    
C17   C21   A    
