data_mof_unit_41045.cif
_audit_creation_date              2012-12-10T16:58:25-0500
_audit_creation_method            fapswitch 2.2
_symmetry_space_group_name_H-M    P1
_symmetry_Int_Tables_number       1
_space_group_crystal_system       triclinic
_cell_length_a                    7.73669
_cell_length_b                    8.59205
_cell_length_c                    23.408323
_cell_angle_alpha                 91.117472
_cell_angle_beta                  85.692289
_cell_angle_gamma                 93.653659
_cell_volume                      1548.32666229

loop_
_atom_site_label
_atom_site_type_symbol
_atom_type_description
_atom_site_fract_x
_atom_site_fract_y
_atom_site_fract_z
_atom_type_partial_charge
C1    C     C_R   0.545381 0.794603 0.498298 0.934243
C2    C     C_R   0.454626 0.205396 0.501740 0.931626
C3    C     C_R   0.655549 0.425410 0.755817 -0.001713
C4    C     C_R   0.648615 0.505802 0.233296 0.015319
C5    C     C_R   0.651586 0.437988 0.696485 -0.244008
C6    C     C_R   0.649113 0.516173 0.292748 -0.220026
C7    C     C_R   0.505539 0.491120 0.672605 -0.065901
C8    C     C_R   0.493731 0.495188 0.327323 -0.048434
C9    C     C_R   0.361674 0.532785 0.708052 -0.130591
C10   C     C_R   0.335987 0.464886 0.302374 -0.171388
C11   C     C_R   0.364118 0.522608 0.766869 -0.107073
C12   C     C_R   0.333666 0.455154 0.243278 -0.075633
C13   C     C_R   0.509118 0.469549 0.790852 0.230941
C14   C     C_R   0.488258 0.476703 0.208561 0.219586
C15   C     C_2   0.562224 0.955282 0.487442 -0.288889
C16   C     C_2   0.437838 0.044733 0.512656 -0.288578
C17   C     C_R   0.501889 0.498980 0.610630 0.905575
C18   C     C_R   0.498021 0.499656 0.389378 0.903848
C19   C     C_R   0.430068 0.342350 0.120145 0.573549
C20   C     C_R   0.575706 0.595150 0.879202 0.581869
C21   C     C_R   0.528899 0.611273 0.119050 0.552660
C22   C     C_R   0.433389 0.339880 0.880060 0.584186
C23   C     C_R   0.555068 0.608382 0.058998 -0.067290
C24   C     C_R   0.438337 0.331507 0.940001 -0.081833
C25   C     C_R   0.496161 0.471349 0.029649 -0.006732
C26   C     C_R   0.502324 0.466903 0.969431 -0.015571
C27   C     C_R   0.430258 0.338784 0.060537 -0.033247
C28   C     C_R   0.571627 0.598864 0.938738 -0.032037
C29   C     C_R   0.635342 0.736264 0.027247 -0.076756
C30   C     C_R   0.378135 0.196641 0.971864 -0.024504
C31   C     C_R   0.639107 0.730517 0.967644 -0.169518
C32   C     C_R   0.372013 0.203717 0.031593 -0.132577
H1    H     H_    0.700365 0.828383 0.943605 0.238690
H2    H     H_    0.326164 0.100536 0.055587 0.220902
H3    H     H_    0.761507 0.404313 0.668607 0.210583
H4    H     H_    0.771346 0.538832 0.312122 0.191087
H5    H     H_    0.247789 0.574140 0.690404 0.191815
H6    H     H_    0.214900 0.447026 0.328468 0.166052
H7    H     H_    0.253220 0.556703 0.794206 0.164448
H8    H     H_    0.211410 0.431311 0.224245 0.171070
H9    H     H_    0.014262 0.382394 0.456977 0.203376
H10   H     H_    0.985741 0.617613 0.543019 0.207557
N1    N     N_R   0.480331 0.476892 0.147848 -0.352172
N2    N     N_R   0.507417 0.467327 0.851594 -0.349897
N3    N     N_2   0.950330 0.457950 0.484560 -0.156573
N4    N     N_2   0.049670 0.542050 0.515440 -0.154482
O1    O     O_R   0.389250 0.738570 0.503790 -0.605554
O2    O     O_R   0.610750 0.261430 0.496210 -0.606168
O3    O     O_R   0.678390 0.711620 0.493890 -0.590269
O4    O     O_R   0.321610 0.288380 0.506110 -0.589788
O5    O     O_R   0.355400 0.513520 0.588790 -0.602449
O6    O     O_R   0.644600 0.486480 0.411210 -0.606319
O7    O     O_R   0.644550 0.486570 0.578900 -0.638039
O8    O     O_R   0.355450 0.513430 0.421100 -0.638171
O9    O     O_2   0.381388 0.212486 0.150323 -0.508516
O10   O     O_2   0.645975 0.718535 0.848782 -0.501657
O11   O     O_2   0.548597 0.746335 0.148881 -0.500496
O12   O     O_2   0.352073 0.225216 0.850147 -0.510329
Zn1   Zn    Zn3+2 0.306930 0.518000 0.506610 1.017753
Zn2   Zn    Zn3+2 0.693070 0.482000 0.493390 1.014830
C33   C     C_2   0.731812 0.871447 0.053144 1.035695
O13   O     O_2   0.832490 0.851051 0.089771 -0.537666
O14   O     O_R   0.715902 0.021424 0.032828 -0.800168
H11   H     H_    0.789779 0.103831 0.053048 0.372283
C34   C     C_2   0.331547 0.042316 0.945813 1.005875
O15   O     O_2   0.427603 0.987316 0.907844 -0.541165
O16   O     O_R   0.182805 0.955386 0.967425 -0.793467
H12   H     H_    0.166838 0.850401 0.947327 0.348078
C35   C     C_2   0.812450 0.365661 0.779315 0.948466
O17   O     O_2   0.817694 0.345516 0.830693 -0.599408
O18   O     O_R   0.955409 0.330617 0.742154 -0.812873
H13   H     H_    0.053078 0.289390 0.762900 0.372743
C36   C     C_2   0.816344 0.526567 0.198293 0.952108
O19   O     O_2   0.839944 0.454256 0.153149 -0.621366
O20   O     O_R   0.948149 0.629448 0.217217 -0.776312
H14   H     H_    0.053345 0.639194 0.188659 0.359801
C37   C     C_2   0.686291 0.003122 0.437729 0.953318
O21   O     O_2   0.638335 0.080494 0.399208 -0.617087
O22   O     O_R   0.856082 0.954969 0.434499 -0.760248
H15   H     H_    0.927193 0.993437 0.398823 0.349479
C38   C     C_2   0.313899 0.996949 0.562416 0.953474
O23   O     O_2   0.361797 0.919168 0.600834 -0.623946
O24   O     O_R   0.144349 0.045722 0.565837 -0.757198
H16   H     H_    0.073382 0.007395 0.601562 0.351196

loop_
_geom_bond_atom_site_label_1
_geom_bond_atom_site_label_2
_ccdc_geom_bond_type
N3    Zn2   S    
N4    Zn1   S    
C36   O19   D    
C20   O10   S    
C17   O5    A    
C2    O4    A    
C38   O23   D    
C18   O6    A    
C37   O21   D    
O3    Zn2   S    
O4    Zn1   S    
C23   C29   A    
C3    C35   S    
C24   C26   A    
C34   O16   S    
C15   C16   D    
C33   O14   S    
H10   N4    S    
C35   O18   S    
O6    Zn2   S    
C20   N2    A    
C21   N1    A    
C22   N2    A    
C7    C17   S    
C31   H1    S    
C1    C15   S    
C19   C27   A    
C3    C13   A    
C36   O20   S    
C33   O13   D    
C38   O24   S    
O7    Zn2   S    
C19   N1    A    
O2    Zn2   S    
O8    Zn1   S    
C37   O22   S    
C29   C33   S    
O16   H12   S    
C4    C6    A    
C5    C7    A    
C1    O1    A    
C6    C8    A    
C20   C28   A    
C2    O2    A    
C25   C26   A    
N3    N4    D    
C8    C18   S    
O22   H15   S    
C32   H2    S    
C12   H8    S    
O20   H14   S    
C21   O11   S    
O24   H16   S    
C9    H5    S    
C11   H7    S    
C9    C11   A    
C4    C36   S    
C10   C12   A    
C12   C14   A    
C21   C23   A    
C22   C24   A    
O5    Zn1   S    
C17   O7    A    
C2    C16   S    
C19   O9    S    
C7    C9    A    
C27   C32   A    
C28   C31   A    
C3    C5    A    
C22   O12   S    
C25   C27   A    
C26   C28   A    
C10   H6    S    
O18   H13   S    
C29   C31   A    
C30   C32   A    
C11   C13   A    
C15   C37   S    
C5    H3    S    
C16   C38   S    
C6    H4    S    
C23   C25   A    
C4    C14   A    
C35   O17   D    
C24   C30   A    
C30   C34   S    
C18   O8    A    
O1    Zn1   S    
O14   H11   S    
C8    C10   A    
C34   O15   D    
H9    N3    S    
C1    O3    A    
C13   N2    S    
C14   N1    S    
