data_mof_unit_35029.cif
_audit_creation_date              2012-12-10T16:56:34-0500
_audit_creation_method            fapswitch 2.2
_symmetry_space_group_name_H-M    P1
_symmetry_Int_Tables_number       1
_space_group_crystal_system       triclinic
_cell_length_a                    7.801964
_cell_length_b                    8.618399
_cell_length_c                    15.600512
_cell_angle_alpha                 88.858634
_cell_angle_beta                  89.789749
_cell_angle_gamma                 93.084557
_cell_volume                      1047.24587531

loop_
_atom_site_label
_atom_site_type_symbol
_atom_type_description
_atom_site_fract_x
_atom_site_fract_y
_atom_site_fract_z
_atom_type_partial_charge
C1    C     C_R   0.545205 0.794287 0.497732 0.956416
C2    C     C_3   0.403393 0.367612 0.035158 -0.274513
C3    C     C_1   0.525245 0.478812 0.750874 -0.212440
C4    C     C_1   0.471329 0.516297 0.249179 -0.194703
C5    C     C_3   0.335292 0.470670 0.961523 0.139988
C6    C     C_3   0.638486 0.517193 0.038649 0.129776
C7    C     C_3   0.512348 0.470518 0.917917 0.104636
C8    C     C_3   0.461799 0.516509 0.082073 0.089869
C9    C     C_1   0.529613 0.467883 0.826693 -0.090387
C10   C     C_1   0.456864 0.522677 0.173643 -0.084465
C11   C     C_3   0.295043 0.766088 0.017801 -0.429640
C12   C     C_R   0.454796 0.205714 0.502278 0.955379
C13   C     C_3   0.307354 0.863484 0.934208 -0.321518
C14   C     C_3   0.182168 0.992465 0.933356 -0.920306
C15   C     C_3   0.683149 0.223675 0.980472 -0.420265
C16   C     C_3   0.659832 0.115547 0.059633 -0.339970
C17   C     C_3   0.801892 0.002276 0.067511 -0.920718
C18   C     C_3   0.801940 0.572309 0.086014 -0.435376
C19   C     C_3   0.879902 0.446320 0.141806 -0.349474
C20   C     C_3   0.017406 0.516175 0.200895 -0.841099
C21   C     C_3   0.154715 0.432827 0.925510 -0.465037
C22   C     C_3   0.138613 0.455390 0.828343 -0.323441
C23   C     C_R   0.507570 0.495436 0.661938 0.903675
C24   C     C_3   0.951564 0.450704 0.800713 -0.856433
C25   C     C_R   0.492228 0.504292 0.338079 0.900460
C26   C     C_2   0.568843 0.957691 0.496534 -0.381833
C27   C     C_2   0.431161 0.042311 0.503489 -0.381972
C28   C     C_3   0.393861 0.618728 0.009836 0.114115
C29   C     C_3   0.581423 0.368841 0.990430 0.128302
C30   C     C_3   0.570995 0.619600 0.965249 -0.282967
H1    H     H_    0.644280 0.719871 0.934543 0.136134
H2    H     H_    0.439499 0.916374 0.926365 0.217393
H3    H     H_    0.279581 0.789079 0.878306 0.227368
H4    H     H_    0.159495 0.733944 0.033340 0.200162
H5    H     H_    0.349006 0.834900 0.071619 0.191963
H6    H     H_    0.797201 0.922013 0.012849 0.259853
H7    H     H_    0.928980 0.066216 0.069794 0.261912
H8    H     H_    0.784140 0.934170 0.128207 0.250162
H9    H     H_    0.657236 0.182843 0.119207 0.221453
H10   H     H_    0.534506 0.049636 0.055769 0.222274
H11   H     H_    0.637756 0.160585 0.922732 0.192337
H12   H     H_    0.331884 0.267399 0.066837 0.135683
H13   H     H_    0.819968 0.260593 0.970505 0.204783
H14   H     H_    0.115940 0.585326 0.163153 0.260632
H15   H     H_    0.959022 0.592674 0.248165 0.268233
H16   H     H_    0.079949 0.421634 0.236281 0.251976
H17   H     H_    0.779447 0.387138 0.182978 0.236510
H18   H     H_    0.938336 0.359966 0.100494 0.224557
H19   H     H_    0.895782 0.621784 0.038925 0.177472
H20   H     H_    0.768718 0.669271 0.127508 0.216743
H21   H     H_    0.886390 0.337048 0.818850 0.259172
H22   H     H_    0.884849 0.546046 0.831260 0.261419
H23   H     H_    0.699221 0.007936 0.489936 0.182268
H24   H     H_    0.944615 0.466553 0.730036 0.264672
H25   H     H_    0.199534 0.569024 0.807400 0.230350
H26   H     H_    0.201922 0.360384 0.795660 0.234330
H27   H     H_    0.114798 0.310986 0.942595 0.196828
H28   H     H_    0.065098 0.506862 0.957540 0.210415
H29   H     H_    0.300783 0.992067 0.510088 0.182332
H30   H     H_    0.011784 0.385750 0.436920 0.194892
H31   H     H_    0.988215 0.614305 0.563045 0.192376
H32   H     H_    0.048835 0.942109 0.928697 0.266248
H33   H     H_    0.196555 0.060948 0.992463 0.255272
H34   H     H_    0.208640 0.070376 0.876767 0.256864
N1    N     N_2   0.950320 0.457950 0.477300 -0.177758
N2    N     N_2   0.049680 0.542050 0.522700 -0.178478
O1    O     O_R   0.389250 0.738570 0.505570 -0.610155
O2    O     O_R   0.610750 0.261430 0.494430 -0.610607
O3    O     O_R   0.678390 0.711630 0.491020 -0.631678
O4    O     O_R   0.321610 0.288370 0.508980 -0.631336
O5    O     O_R   0.355460 0.513480 0.630490 -0.617160
O6    O     O_R   0.644540 0.486520 0.369510 -0.612346
O7    O     O_R   0.644600 0.486540 0.615950 -0.622235
O8    O     O_R   0.355400 0.513460 0.384050 -0.621251
Zn1   Zn    Zn3+2 0.306940 0.517990 0.509710 0.936134
Zn2   Zn    Zn3+2 0.693060 0.482010 0.490290 0.935778

loop_
_geom_bond_atom_site_label_1
_geom_bond_atom_site_label_2
_ccdc_geom_bond_type
C24   H22   S    
C7    C29   S    
C13   H2    S    
C3    C23   S    
C19   C20   S    
O6    Zn2   S    
C4    C25   S    
C21   H27   S    
C12   O2    A    
C26   C27   D    
N1    Zn2   S    
C2    C29   S    
C25   O8    A    
C30   H1    S    
C19   H17   S    
C14   H33   S    
C24   H24   S    
C15   C16   S    
C14   H32   S    
O3    Zn2   S    
C18   C19   S    
H31   N2    S    
C16   C17   S    
C17   H6    S    
C20   H15   S    
C24   H21   S    
C7    C30   S    
C13   C14   S    
C23   O7    A    
C20   H14   S    
C15   C29   S    
C6    C18   S    
O8    Zn1   S    
C12   C27   S    
C23   O5    A    
C15   H11   S    
C5    C7    S    
C19   H18   S    
C6    C8    S    
C1    O3    A    
C13   H3    S    
C3    C9    T    
C5    C28   S    
C14   H34   S    
C25   O6    A    
C17   H7    S    
C16   H10   S    
C6    C30   S    
H30   N1    S    
C1    C26   S    
C8    C28   S    
O7    Zn2   S    
C22   C24   S    
C2    C5    S    
O1    Zn1   S    
C4    C10   T    
C26   H23   S    
C18   H20   S    
C7    C9    S    
C12   O4    A    
C11   H4    S    
C2    C8    S    
C22   H26   S    
C22   H25   S    
O2    Zn2   S    
C11   H5    S    
C15   H13   S    
C21   H28   S    
C27   H29   S    
O5    Zn1   S    
C11   C13   S    
C11   C28   S    
C2    H12   S    
N2    Zn1   S    
C28   C30   S    
C1    O1    A    
C17   H8    S    
C16   H9    S    
C6    C29   S    
C5    C21   S    
C8    C10   S    
N1    N2    D    
O4    Zn1   S    
C21   C22   S    
C20   H16   S    
C18   H19   S    
