data_mof_unit_14928.cif
_audit_creation_date              2012-12-11T15:39:09-0500
_audit_creation_method            fapswitch 2.2
_symmetry_space_group_name_H-M    P1
_symmetry_Int_Tables_number       1
_space_group_crystal_system       triclinic
_cell_length_a                    17.236259
_cell_length_b                    24.182285
_cell_length_c                    14.884129
_cell_angle_alpha                 89.874269
_cell_angle_beta                  125.35315
_cell_angle_gamma                 90.060609
_cell_volume                      5059.88404464

loop_
_atom_site_label
_atom_site_type_symbol
_atom_type_description
_atom_site_fract_x
_atom_site_fract_y
_atom_site_fract_z
_atom_type_partial_charge
C1    C     C_R   0.309288 0.375940 0.908300 -0.122390
C2    C     C_R   0.645012 0.346738 0.091148 -0.021011
C3    C     C_R   0.809288 0.875940 0.908300 -0.122390
C4    C     C_R   0.145012 0.846738 0.091148 -0.021011
C5    C     C_R   0.311316 0.638661 0.998170 0.041337
C6    C     C_R   0.619065 0.684511 0.000869 0.052915
C7    C     C_R   0.811316 0.138661 0.998170 0.041337
C8    C     C_R   0.119064 0.184511 0.000869 0.052915
C9    C     C_R   0.571110 0.500567 0.370906 -0.108806
C10   C     C_R   0.551200 0.501034 0.724539 -0.138121
C11   C     C_R   0.071110 0.000567 0.370906 -0.108806
C12   C     C_R   0.051200 0.001034 0.724539 -0.138120
C13   C     C_R   0.198846 0.501289 0.630554 -0.085330
C14   C     C_R   0.826799 0.501857 0.278549 -0.110908
C15   C     C_R   0.698846 0.001289 0.630554 -0.085330
C16   C     C_R   0.326799 0.001857 0.278548 -0.110909
C17   C     C_R   0.070828 0.554859 0.472381 0.158864
C18   C     C_R   0.976755 0.555173 0.383902 0.161104
C19   C     C_R   0.570828 0.054859 0.472380 0.158865
C20   C     C_R   0.476755 0.055173 0.383901 0.161105
C21   C     C_R   0.119793 0.504779 0.514291 0.062251
C22   C     C_R   0.929498 0.505363 0.334853 0.062426
C23   C     C_R   0.619793 0.004779 0.514291 0.062252
C24   C     C_R   0.429498 0.005363 0.334853 0.062428
C25   C     C_R   0.080591 0.457526 0.447108 -0.194823
C26   C     C_R   0.984986 0.457911 0.356644 -0.208761
C27   C     C_R   0.580591 0.957527 0.447107 -0.194833
C28   C     C_R   0.484986 0.957911 0.356643 -0.208767
C29   C     C_3   0.953431 0.601308 0.431745 -0.511087
C30   C     C_3   0.056405 0.601002 0.528356 -0.517547
C31   C     C_3   0.453431 0.101308 0.431744 -0.511086
C32   C     C_3   0.556405 0.101003 0.528355 -0.517546
C33   C     C_R   0.159843 0.690389 0.895897 -0.169822
C34   C     C_R   0.718361 0.765531 0.103249 -0.166379
C35   C     C_R   0.659843 0.190390 0.895897 -0.169823
C36   C     C_R   0.218362 0.265531 0.103250 -0.166379
C37   C     C_R   0.608141 0.233427 0.896983 -0.157589
C38   C     C_R   0.262500 0.312968 0.103295 -0.169923
C39   C     C_R   0.108141 0.733427 0.896983 -0.157589
C40   C     C_R   0.762499 0.812969 0.103295 -0.169927
C41   C     C_R   0.630854 0.254207 0.997460 0.075223
C42   C     C_R   0.235007 0.337189 0.003229 0.071604
C43   C     C_R   0.130854 0.754208 0.997460 0.075223
C44   C     C_R   0.735007 0.837189 0.003229 0.071604
C45   C     C_R   0.401334 0.625321 0.091248 -0.115480
C46   C     C_R   0.557455 0.652603 0.909100 -0.127800
C47   C     C_R   0.901334 0.125322 0.091248 -0.115480
C48   C     C_R   0.057455 0.152603 0.909100 -0.127800
C49   C     C_R   0.689536 0.222106 0.094345 0.047598
C50   C     C_R   0.145885 0.322688 0.905647 0.036490
C51   C     C_R   0.189536 0.722106 0.094345 0.047598
C52   C     C_R   0.645887 0.822688 0.905646 0.036491
C53   C     C_R   0.244281 0.679866 0.092846 -0.227943
C54   C     C_R   0.602607 0.773702 0.906264 -0.223221
C55   C     C_R   0.744281 0.179866 0.092846 -0.227943
C56   C     C_R   0.102605 0.273703 0.906265 -0.223218
C57   C     C_R   0.235703 0.667927 0.995379 0.131062
C58   C     C_R   0.644520 0.742488 0.003384 0.129982
C59   C     C_R   0.735704 0.167927 0.995379 0.131062
C60   C     C_R   0.144519 0.242488 0.003384 0.129981
C61   C     C_R   0.600255 0.553106 0.621963 -0.165334
C62   C     C_R   0.604775 0.552845 0.532325 -0.175121
C63   C     C_R   0.100255 0.053106 0.621963 -0.165334
C64   C     C_R   0.104774 0.052845 0.532324 -0.175121
C65   C     C_R   0.605954 0.502343 0.486975 0.174783
C66   C     C_R   0.596536 0.502847 0.666403 0.176253
C67   C     C_R   0.105953 0.002343 0.486975 0.174782
C68   C     C_R   0.096536 0.002847 0.666403 0.176253
C69   C     C_R   0.624645 0.453524 0.547456 -0.167333
C70   C     C_R   0.620766 0.453909 0.637912 -0.159055
C71   C     C_R   0.124646 0.953525 0.547456 -0.167331
C72   C     C_R   0.120767 0.953909 0.637913 -0.159055
C73   C     C_R   0.553125 0.454614 0.306059 0.675511
C74   C     C_R   0.518581 0.454632 0.748940 0.725781
C75   C     C_R   0.053125 0.954614 0.306059 0.675512
C76   C     C_R   0.018581 0.954632 0.748940 0.725782
C77   C     C_R   0.247613 0.546330 0.695646 -0.281997
C78   C     C_R   0.767461 0.546988 0.247015 -0.257715
C79   C     C_R   0.747613 0.046330 0.695646 -0.281995
C80   C     C_R   0.267461 0.046988 0.247015 -0.257715
C81   C     C_R   0.551625 0.546043 0.304621 -0.263354
C82   C     C_R   0.520298 0.546690 0.752104 -0.240492
C83   C     C_R   0.051625 0.046043 0.304621 -0.263354
C84   C     C_R   0.020298 0.046690 0.752104 -0.240493
C85   C     C_R   0.245324 0.454966 0.694553 0.700585
C86   C     C_R   0.770712 0.455094 0.254098 0.717922
C87   C     C_R   0.745324 0.954966 0.694552 0.700583
C88   C     C_R   0.270712 0.955094 0.254098 0.717923
C89   C     C_R   0.309927 0.624884 0.906813 -0.123593
C90   C     C_R   0.647935 0.652230 0.091689 -0.136656
C91   C     C_R   0.809927 0.124884 0.906813 -0.123593
C92   C     C_R   0.147935 0.152230 0.091689 -0.136656
C93   C     C_R   0.400274 0.378001 0.092036 -0.122289
C94   C     C_R   0.551279 0.346217 0.909494 -0.003206
C95   C     C_R   0.900273 0.878001 0.092036 -0.122291
C96   C     C_R   0.051279 0.846217 0.909494 -0.003207
C97   C     C_R   0.309466 0.365282 0.000406 -0.000041
C98   C     C_R   0.610330 0.313159 0.000347 -0.067018
C99   C     C_R   0.809466 0.865283 0.000406 -0.000036
C100  C     C_R   0.110330 0.813159 0.000347 -0.067017
H1    H     H_    0.252550 0.369111 0.823171 0.174706
H2    H     H_    0.683829 0.333994 0.175780 0.189637
H3    H     H_    0.752550 0.869112 0.823171 0.174706
H4    H     H_    0.183829 0.833994 0.175780 0.189637
H5    H     H_    0.932605 0.639867 0.382004 0.191339
H6    H     H_    0.066548 0.588160 0.606339 0.199789
H7    H     H_    0.432605 0.139867 0.382003 0.191338
H8    H     H_    0.566548 0.088161 0.606339 0.199790
H9    H     H_    0.905212 0.588571 0.455012 0.204470
H10   H     H_    0.094679 0.639300 0.533846 0.191902
H11   H     H_    0.405212 0.088571 0.455011 0.204470
H12   H     H_    0.594679 0.139301 0.533845 0.191901
H13   H     H_    0.146111 0.679521 0.817579 0.113532
H14   H     H_    0.749233 0.744588 0.181096 0.112248
H15   H     H_    0.646111 0.179521 0.817579 0.113532
H16   H     H_    0.249235 0.244587 0.181096 0.112248
H17   H     H_    0.558504 0.253913 0.819410 0.134813
H18   H     H_    0.325124 0.325885 0.181487 0.125255
H19   H     H_    0.058504 0.753913 0.819410 0.134813
H20   H     H_    0.825122 0.825886 0.181487 0.125256
H21   H     H_    0.295384 0.657784 0.168054 0.115521
H22   H     H_    0.538120 0.759423 0.831036 0.111861
H23   H     H_    0.795384 0.157784 0.168055 0.115521
H24   H     H_    0.038116 0.259425 0.831040 0.111859
H25   H     H_    0.589171 0.592426 0.647140 0.113725
H26   H     H_    0.596581 0.591996 0.492673 0.115060
H27   H     H_    0.089170 0.092426 0.647139 0.113725
H28   H     H_    0.096580 0.091996 0.492672 0.115061
H29   H     H_    0.634282 0.414216 0.521219 0.200767
H30   H     H_    0.628638 0.415086 0.678287 0.193132
H31   H     H_    0.134284 0.914216 0.521220 0.200767
H32   H     H_    0.128639 0.915086 0.678288 0.193132
H33   H     H_    0.427773 0.630910 0.176418 0.099056
H34   H     H_    0.511576 0.666914 0.824900 0.084811
H35   H     H_    0.927773 0.130910 0.176418 0.099056
H36   H     H_    0.011576 0.166914 0.824900 0.084811
H37   H     H_    0.242412 0.588340 0.667806 0.149531
H38   H     H_    0.785581 0.589848 0.250151 0.153874
H39   H     H_    0.742412 0.088340 0.667806 0.149531
H40   H     H_    0.285581 0.089848 0.250150 0.153874
H41   H     H_    0.570257 0.588525 0.330681 0.134505
H42   H     H_    0.531350 0.589733 0.744056 0.137839
H43   H     H_    0.070257 0.088525 0.330681 0.134505
H44   H     H_    0.031350 0.089733 0.744056 0.137839
H45   H     H_    0.252104 0.629120 0.821024 0.097507
H46   H     H_    0.683523 0.666086 0.175723 0.089574
H47   H     H_    0.752104 0.129120 0.821024 0.097507
H48   H     H_    0.183523 0.166086 0.175724 0.089575
H49   H     H_    0.426706 0.375199 0.177407 0.149486
H50   H     H_    0.499912 0.332022 0.826425 0.160494
H51   H     H_    0.926706 0.875199 0.177407 0.149487
H52   H     H_    0.999912 0.832022 0.826424 0.160494
H53   H     H_    0.118643 0.418812 0.470061 0.214410
H54   H     H_    0.953109 0.419607 0.313229 0.201795
H55   H     H_    0.618643 0.918813 0.470060 0.214409
H56   H     H_    0.453109 0.919607 0.313228 0.201794
N1    N     N_R   0.394180 0.396910 0.943210 -0.049545
N2    N     N_R   0.605820 0.396910 0.056790 -0.066220
N3    N     N_R   0.894180 0.896910 0.943210 -0.049545
N4    N     N_R   0.105820 0.896910 0.056790 -0.066220
N5    N     N_R   0.450950 0.603070 0.056740 -0.036243
N6    N     N_R   0.549050 0.603070 0.943260 -0.034337
N7    N     N_R   0.950950 0.103070 0.056740 -0.036243
N8    N     N_R   0.049050 0.103070 0.943260 -0.034337
N9    N     N_R   0.525650 0.471570 0.206150 -0.103536
N10   N     N_R   0.474350 0.471570 0.793850 -0.104540
N11   N     N_R   0.025650 0.971570 0.206150 -0.103536
N12   N     N_R   0.974350 0.971570 0.793850 -0.104541
N13   N     N_R   0.319480 0.528420 0.793810 -0.069874
N14   N     N_R   0.680520 0.528420 0.206190 -0.071936
N15   N     N_R   0.819480 0.028420 0.793810 -0.069874
N16   N     N_R   0.180520 0.028420 0.206190 -0.071936
N17   N     N_R   0.525640 0.528390 0.206120 -0.068349
N18   N     N_R   0.474360 0.528390 0.793880 -0.071491
N19   N     N_R   0.025640 0.028390 0.206120 -0.068349
N20   N     N_R   0.974360 0.028390 0.793880 -0.071492
N21   N     N_R   0.319490 0.471590 0.793840 -0.107211
N22   N     N_R   0.680510 0.471590 0.206160 -0.103190
N23   N     N_R   0.819490 0.971590 0.793840 -0.107210
N24   N     N_R   0.180510 0.971590 0.206160 -0.103190
N25   N     N_R   0.394130 0.603080 0.943110 -0.035758
N26   N     N_R   0.605870 0.603080 0.056890 -0.034027
N27   N     N_R   0.894130 0.103080 0.943110 -0.035758
N28   N     N_R   0.105870 0.103080 0.056890 -0.034027
N29   N     N_R   0.450990 0.396900 0.056840 -0.044502
N30   N     N_R   0.549010 0.396900 0.943160 -0.064645
N31   N     N_R   0.950990 0.896900 0.056840 -0.044502
N32   N     N_R   0.049010 0.896900 0.943160 -0.064645
Ni1   Ni    Ni4+2 0.434860 0.434850 0.869700 0.271778
Ni2   Ni    Ni4+2 0.565140 0.434850 0.130300 0.273248
Ni3   Ni    Ni4+2 0.934860 0.934850 0.869700 0.271778
Ni4   Ni    Ni4+2 0.065140 0.934850 0.130300 0.273248
Ni5   Ni    Ni4+2 0.565130 0.565140 0.130240 0.195637
Ni6   Ni    Ni4+2 0.434870 0.565140 0.869760 0.193640
Ni7   Ni    Ni4+2 0.065130 0.065140 0.130240 0.195637
Ni8   Ni    Ni4+2 0.934870 0.065140 0.869760 0.193640
C101  C     C_R   0.693884 0.230937 0.195799 0.085379
C102  C     C_R   0.781876 0.234684 0.299410 -0.126894
C103  C     C_R   0.785030 0.244354 0.394085 -0.096573
C104  C     C_R   0.700665 0.250041 0.386348 -0.044089
C105  C     C_R   0.612922 0.245962 0.283954 -0.062744
C106  C     C_R   0.609353 0.236284 0.189045 -0.182611
H57   H     H_    0.847940 0.231232 0.306691 0.111922
H58   H     H_    0.852940 0.247713 0.473437 0.100167
H59   H     H_    0.703287 0.257656 0.459694 0.107282
H60   H     H_    0.547625 0.250435 0.278050 0.117274
H61   H     H_    0.540812 0.233407 0.110213 0.125225
C107  C     C_R   0.096502 0.358157 0.805167 0.103834
C108  C     C_R   0.094694 0.415973 0.814983 -0.146452
C109  C     C_R   0.047819 0.449627 0.721182 -0.146442
C110  C     C_R   0.001668 0.426022 0.616673 -0.052888
C111  C     C_R   0.003128 0.368748 0.605719 -0.033998
C112  C     C_R   0.050203 0.334872 0.699300 -0.168890
H62   H     H_    0.129346 0.435001 0.895291 0.120317
H63   H     H_    0.047043 0.494045 0.729500 0.117874
H64   H     H_    0.964860 0.452157 0.544238 0.129848
H65   H     H_    0.967796 0.350583 0.524616 0.138439
H66   H     H_    0.051409 0.290652 0.688976 0.105223
C113  C     C_R   0.193884 0.730937 0.195799 0.085380
C114  C     C_R   0.281876 0.734683 0.299409 -0.126896
C115  C     C_R   0.285030 0.744354 0.394085 -0.096570
C116  C     C_R   0.200666 0.750041 0.386348 -0.044088
C117  C     C_R   0.112923 0.745963 0.283954 -0.062744
C118  C     C_R   0.109353 0.736285 0.189045 -0.182613
H67   H     H_    0.347940 0.731231 0.306691 0.111921
H68   H     H_    0.352940 0.747713 0.473437 0.100169
H69   H     H_    0.203288 0.757657 0.459694 0.107283
H70   H     H_    0.047625 0.750437 0.278051 0.117275
H71   H     H_    0.040812 0.733408 0.110213 0.125225
C119  C     C_R   0.596505 0.858155 0.805166 0.103829
C120  C     C_R   0.594685 0.915971 0.814980 -0.146448
C121  C     C_R   0.547813 0.949624 0.721177 -0.146444
C122  C     C_R   0.501677 0.926017 0.616668 -0.052888
C123  C     C_R   0.503151 0.868743 0.605716 -0.033973
C124  C     C_R   0.550221 0.834869 0.699300 -0.168901
H72   H     H_    0.629325 0.935000 0.895288 0.120315
H73   H     H_    0.547026 0.994041 0.729494 0.117875
H74   H     H_    0.464871 0.952151 0.544231 0.129853
H75   H     H_    0.467831 0.850577 0.524613 0.138426
H76   H     H_    0.551438 0.790649 0.688979 0.105228
F1    F     F_    0.583664 0.402370 0.342495 -0.747899
F2    F     F_    0.523270 0.401326 0.725181 -0.747822
F3    F     F_    0.083663 0.902370 0.342495 -0.747899
F4    F     F_    0.023270 0.901326 0.725181 -0.747822
F5    F     F_    0.236311 0.402701 0.657111 -0.741446
F6    F     F_    0.801370 0.402202 0.280582 -0.755123
F7    F     F_    0.736310 0.902701 0.657111 -0.741448
F8    F     F_    0.301370 0.902202 0.280582 -0.755122

loop_
_geom_bond_atom_site_label_1
_geom_bond_atom_site_label_2
_ccdc_geom_bond_type
C84   H44   S    
C79   H39   S    
C107  C112  A    
C83   N19   A    
C92   H48   S    
C124  H76   S    
C6    C58   S    
C93   H49   S    
C117  C118  A    
C70   H30   S    
C82   H42   S    
C52   C119  S    
C91   H47   S    
C95   N31   A    
N29   Ni2   S    
C75   F3    S    
C49   C101  S    
C89   H45   S    
N11   Ni4   S    
C12   C68   S    
C33   C39   A    
N12   Ni3   S    
N14   N22   A    
N32   Ni3   S    
C34   C40   A    
C56   H24   S    
C29   H9    S    
C35   C37   A    
C77   H37   S    
C38   C42   A    
C55   C59   A    
N2    Ni2   S    
C6    C46   A    
N22   Ni2   S    
C44   C99   S    
C65   C69   A    
C88   F8    S    
C111  H65   S    
C94   C98   A    
C95   C99   A    
N3    N31   A    
C109  H63   S    
C96   H52   S    
C104  H59   S    
C78   H38   S    
C78   N14   A    
C12   C84   A    
C93   N29   A    
C35   C59   A    
C63   H27   S    
C105  C106  A    
C79   N15   A    
C96   N32   A    
C45   N5    A    
C113  C118  A    
C61   C66   A    
C41   C49   A    
N30   Ni1   S    
C15   C79   A    
C82   N18   A    
C11   C67   S    
C104  C105  A    
C64   H28   S    
C16   C24   S    
C105  H60   S    
C88   N24   A    
C102  C103  A    
C8    C92   A    
C23   C27   A    
C80   H40   S    
C50   C56   A    
C122  C123  A    
C61   C62   A    
C2    N2    A    
C34   C58   A    
C53   H21   S    
C47   N7    A    
C33   H13   S    
C44   C52   A    
C15   C23   S    
C110  H64   S    
C54   H22   S    
C103  C104  A    
C86   F6    S    
C30   H6    S    
C3    N3    A    
C17   C30   S    
C102  H57   S    
N15   N23   A    
C69   C70   A    
C9    C73   A    
C7    C59   S    
C86   N22   A    
C19   C32   S    
N2    N30   A    
N13   N21   A    
C114  C115  A    
C52   C54   A    
C72   H32   S    
C32   H8    S    
C9    C65   S    
C10   C66   S    
C27   H55   S    
C13   C77   A    
N10   N18   A    
N27   Ni8   S    
C63   C64   A    
N7    N27   A    
C64   C67   A    
C90   N26   A    
C119  C124  A    
C13   C21   S    
N21   Ni1   S    
C43   C100  S    
C14   C86   A    
C108  C109  A    
N24   Ni4   S    
C42   C97   S    
C1    C97   A    
C113  C114  A    
C62   H26   S    
C53   C57   A    
C117  H70   S    
C107  C108  A    
C39   C43   A    
C90   H46   S    
C51   C113  S    
C25   C26   A    
C6    C90   A    
C5    C45   A    
C115  H68   S    
C10   C82   A    
C119  C120  A    
C17   C21   A    
C56   C60   A    
C51   C53   A    
C7    C47   A    
C19   C23   A    
C122  H74   S    
C8    C48   A    
C29   C30   S    
N8    N28   A    
N19   Ni7   S    
N3    Ni3   S    
C46   H34   S    
C115  C116  A    
C110  C111  A    
C85   N21   A    
N7    Ni7   S    
C68   C72   A    
C7    C91   A    
C81   H41   S    
N6    Ni6   S    
C17   C18   A    
C73   F1    S    
C101  C106  A    
N26   Ni5   S    
N20   Ni8   S    
C35   H15   S    
N25   Ni6   S    
C14   C22   S    
N4    Ni4   S    
N31   Ni4   S    
C120  H72   S    
C42   C50   A    
C73   N9    A    
C40   H20   S    
N6    N26   A    
C30   H10   S    
N18   Ni6   S    
C1    H1    S    
C106  H61   S    
C4    C100  A    
C12   C76   A    
C92   N28   A    
C121  H73   S    
C20   C31   S    
C74   F2    S    
C26   H54   S    
C95   H51   S    
C123  C124  A    
C80   N16   A    
C36   H16   S    
C55   H23   S    
C93   C97   A    
C74   N10   A    
C16   C88   A    
C54   C58   A    
C3    H3    S    
N12   N20   A    
C21   C25   A    
C63   C68   A    
C33   C57   A    
C32   H12   S    
C62   C65   A    
C47   H35   S    
C91   N27   A    
C18   C22   A    
C31   H7    S    
C48   H36   S    
C31   C32   S    
C89   N25   A    
C24   C28   A    
N1    N29   A    
N15   Ni8   S    
C36   C60   A    
C49   C55   A    
C4    N4    A    
N14   Ni5   S    
C75   N11   A    
C112  H66   S    
N8    Ni8   S    
C4    H4    S    
C87   F7    S    
N13   Ni6   S    
C48   N8    A    
C34   H14   S    
N28   Ni7   S    
C66   C70   A    
C45   H33   S    
C108  H62   S    
C94   N30   A    
C5    C57   S    
N10   Ni1   S    
C11   C83   A    
C76   F4    S    
C19   C20   A    
C1    N1    A    
N16   Ni7   S    
C71   C72   A    
C85   F5    S    
C25   H53   S    
C11   C75   A    
C118  H71   S    
C8    C60   S    
C87   N23   A    
N17   Ni5   S    
C10   C74   A    
N16   N24   A    
C103  H58   S    
C116  H69   S    
C43   C51   A    
C69   H29   S    
C39   H19   S    
C96   C100  A    
C36   C38   A    
C121  C122  A    
C37   H17   S    
C81   N17   A    
C114  H67   S    
C76   N12   A    
C31   H11   S    
C67   C71   A    
C123  H75   S    
C14   C78   A    
C37   C41   A    
C101  C102  A    
N1    Ni1   S    
N9    Ni2   S    
N5    Ni5   S    
C18   C29   S    
C29   H5    S    
C38   H18   S    
C3    C99   A    
C94   H50   S    
C40   C44   A    
N11   N19   A    
N23   Ni3   S    
C111  C112  A    
C2    C98   A    
C71   H31   S    
C77   N13   A    
C109  C110  A    
C22   C26   A    
C15   C87   A    
C13   C85   A    
C120  C121  A    
C28   H56   S    
C2    H2    S    
C41   C98   S    
C83   H43   S    
C61   H25   S    
C16   C80   A    
C84   N20   A    
N9    N17   A    
C46   N6    A    
C116  C117  A    
C20   C24   A    
N5    N25   A    
C5    C89   A    
C9    C81   A    
C27   C28   A    
N4    N32   A    
C50   C107  S    
