data_mof_unit_61295.cif
_audit_creation_date              2012-10-26T20:13:28-0400
_audit_creation_method            fapswitch 2.2
_symmetry_space_group_name_H-M    P1
_symmetry_Int_Tables_number       1
_space_group_crystal_system       triclinic
_cell_length_a                    19.321963
_cell_length_b                    18.215684
_cell_length_c                    11.711004
_cell_angle_alpha                 89.991676
_cell_angle_beta                  91.915128
_cell_angle_gamma                 89.996784
_cell_volume                      4119.53503575

loop_
_atom_site_label
_atom_site_type_symbol
_atom_type_description
_atom_site_fract_x
_atom_site_fract_y
_atom_site_fract_z
_atom_type_partial_charge
C1    C     C_R   0.367816 0.500004 0.501090 0.624894
C2    C     C_R   0.544746 0.200293 0.574173 0.243708
C3    C     C_R   0.544770 0.799689 0.574119 0.243704
C4    C     C_R   0.455864 0.200317 0.424850 0.236470
C5    C     C_R   0.500467 0.839197 0.499232 -0.004479
C6    C     C_R   0.500475 0.160801 0.499240 -0.004493
C7    C     C_R   0.456000 0.961190 0.570132 0.272860
C8    C     C_R   0.545053 0.038816 0.428279 0.272711
C9    C     C_R   0.545048 0.961189 0.428273 0.272701
C10   C     C_R   0.456004 0.038801 0.570137 0.272850
C11   C     C_R   0.500513 0.078207 0.499189 0.004831
C12   C     C_R   0.632817 0.500000 0.492642 0.584157
C13   C     C_R   0.500505 0.921790 0.499178 0.004803
C14   C     C_R   0.499813 0.500004 0.283829 0.576152
C15   C     C_R   0.500600 0.499995 0.716184 0.591245
C16   C     C_1   0.499918 0.500010 0.162248 0.099939
C17   C     C_1   0.500645 0.499989 0.837791 0.114384
C18   C     C_1   0.500126 0.500005 0.059858 0.074311
C19   C     C_1   0.500447 0.499994 0.940180 0.080414
C20   C     C_R   0.746721 0.433441 0.464022 0.228279
C21   C     C_R   0.265598 0.500671 0.622904 0.213511
C22   C     C_R   0.248545 0.499453 0.415425 0.235599
C23   C     C_R   0.073794 0.500251 0.550605 -0.011414
C24   C     C_R   0.746611 0.566590 0.463387 0.228226
C25   C     C_R   0.819433 0.434908 0.464357 0.268430
C26   C     C_R   0.193776 0.500716 0.635390 0.285423
C27   C     C_R   0.176597 0.499520 0.427868 0.267356
C28   C     C_R   0.819321 0.565232 0.463654 0.268503
C29   C     C_R   0.854854 0.500164 0.494651 -0.023291
C30   C     C_R   0.149316 0.500155 0.537859 -0.008565
C31   C     C_R   0.709379 0.500013 0.477741 -0.067062
C32   C     C_R   0.292873 0.500028 0.512977 -0.036089
C33   C     C_R   0.965597 0.566136 0.566041 0.269329
C34   C     C_R   0.929109 0.500305 0.541019 -0.023001
C35   C     C_R   0.037970 0.433793 0.562906 0.272640
C36   C     C_R   0.038006 0.566845 0.561619 0.272498
C37   C     C_R   0.965557 0.434620 0.567256 0.269344
C38   C     C_R   0.456200 0.722021 0.426395 0.361629
C39   C     C_R   0.543759 0.277961 0.573680 0.382123
C40   C     C_R   0.543791 0.722022 0.573623 0.382179
C41   C     C_R   0.456225 0.277992 0.426363 0.361517
C42   C     C_R   0.455833 0.799696 0.424883 0.236564
Cl1   Cl    Cl    0.705402 0.348468 0.433832 -0.326871
Cl2   Cl    Cl    0.083571 0.349963 0.575897 -0.282431
Cl3   Cl    Cl    0.083644 0.650725 0.572935 -0.282274
Cl4   Cl    Cl    0.924517 0.360718 0.636215 -0.269245
Cl5   Cl    Cl    0.398485 0.675847 0.331462 -0.342789
Cl6   Cl    Cl    0.600040 0.324057 0.671049 -0.354070
Cl7   Cl    Cl    0.600139 0.675904 0.670891 -0.354273
Cl8   Cl    Cl    0.398517 0.324177 0.331409 -0.342133
Cl9   Cl    Cl    0.399222 0.847770 0.329580 -0.302576
Cl10  Cl    Cl    0.601546 0.152214 0.669166 -0.293783
Cl11  Cl    Cl    0.601603 0.847749 0.669053 -0.293861
Cl12  Cl    Cl    0.321404 0.501402 0.745589 -0.422851
Cl13  Cl    Cl    0.399283 0.152261 0.329504 -0.302632
Cl14  Cl    Cl    0.399905 0.913002 0.659677 -0.301243
Cl15  Cl    Cl    0.601213 0.087034 0.338890 -0.284127
Cl16  Cl    Cl    0.601202 0.912979 0.338875 -0.284017
Cl17  Cl    Cl    0.399911 0.086980 0.659684 -0.301450
Cl18  Cl    Cl    0.283255 0.498746 0.277649 -0.313090
Cl19  Cl    Cl    0.705144 0.651391 0.432419 -0.327329
Cl20  Cl    Cl    0.862752 0.364303 0.390715 -0.272976
Cl21  Cl    Cl    0.159356 0.501465 0.773451 -0.276890
Cl22  Cl    Cl    0.120449 0.498835 0.305563 -0.294651
Cl23  Cl    Cl    0.862453 0.635475 0.388900 -0.273189
Cl24  Cl    Cl    0.924659 0.640513 0.633936 -0.268808
Cu1   Cu    Cu3+1 0.500000 0.573360 0.500000 1.198423
Cu2   Cu    Cu3+1 0.500000 0.426640 0.500000 1.198049
N1    N     N_R   0.500000 0.683620 0.500000 -0.286767
N2    N     N_R   0.500000 0.316380 0.500000 -0.286908
O1    O     O_R   0.400190 0.561980 0.499980 -0.451896
O2    O     O_R   0.599810 0.438020 0.500020 -0.441304
O3    O     O_R   0.599810 0.561980 0.500020 -0.441276
O4    O     O_R   0.400190 0.438020 0.499980 -0.452174
O5    O     O_R   0.500010 0.561950 0.337200 -0.466147
O6    O     O_R   0.499990 0.438050 0.662800 -0.465819
O7    O     O_R   0.499990 0.561950 0.662800 -0.465364
O8    O     O_R   0.500010 0.438050 0.337200 -0.466144

loop_
_geom_bond_atom_site_label_1
_geom_bond_atom_site_label_2
_ccdc_geom_bond_type
C7    C10   A    
C21   C26   A    
C24   Cl19  S    
C34   C37   A    
Cu1   O7    S    
C5    C42   A    
C1    O1    A    
C22   C32   A    
C1    O4    A    
C28   C29   A    
C35   C37   A    
C38   C42   A    
C22   Cl18  S    
C21   Cl12  S    
C4    C41   A    
Cu2   O4    S    
C40   Cl7   S    
C33   C36   A    
C9    Cl16  S    
C9    C13   A    
C2    C39   A    
C8    C9    A    
Cu1   O3    S    
C5    C13   S    
C42   Cl9   S    
C15   O6    A    
C12   O2    A    
C38   N1    A    
C12   O3    A    
C27   C30   A    
Cu2   O8    S    
C2    C6    A    
C7    Cl14  S    
C33   Cl24  S    
C25   C29   A    
C21   C32   A    
C40   N1    A    
Cu1   Cu2   S    
C23   C30   S    
C4    C6    A    
C27   Cl22  S    
C6    C11   S    
C18   C19   S    
C29   C34   S    
C1    C32   S    
Cu1   N1    S    
C26   Cl21  S    
C8    Cl15  S    
Cu2   O2    S    
C33   C34   A    
C36   Cl3   S    
C35   Cl2   S    
C38   Cl5   S    
C2    Cl10  S    
Cu2   N2    S    
C3    C40   A    
C26   C30   A    
C23   C35   A    
C22   C27   A    
C12   C31   S    
C14   C16   S    
Cu1   O5    S    
C41   Cl8   S    
C20   Cl1   S    
C15   C17   S    
C24   C28   A    
C3    C5    A    
Cu2   O6    S    
C14   O5    A    
C10   Cl17  S    
C24   C31   A    
C4    Cl13  S    
C3    Cl11  S    
C15   O7    A    
C8    C11   A    
C17   C19   T    
C39   N2    A    
C28   Cl23  S    
Cu1   O1    S    
C25   Cl20  S    
C14   O8    A    
C10   C11   A    
C7    C13   A    
C16   C18   T    
C23   C36   A    
C20   C25   A    
C41   N2    A    
C37   Cl4   S    
C39   Cl6   S    
C20   C31   A    
