data_mof_unit_14376.cif
_audit_creation_date              2012-12-11T14:19:19-0500
_audit_creation_method            fapswitch 2.2
_symmetry_space_group_name_H-M    P1
_symmetry_Int_Tables_number       1
_space_group_crystal_system       triclinic
_cell_length_a                    19.396155
_cell_length_b                    7.246962
_cell_length_c                    17.724537
_cell_angle_alpha                 89.999849
_cell_angle_beta                  107.692541
_cell_angle_gamma                 89.99912
_cell_volume                      2373.57617928

loop_
_atom_site_label
_atom_site_type_symbol
_atom_type_description
_atom_site_fract_x
_atom_site_fract_y
_atom_site_fract_z
_atom_type_partial_charge
O1    O     O_R   0.414820 0.494320 0.416790 -0.540249
O2    O     O_R   0.585180 0.994320 0.583210 -0.540250
O3    O     O_R   0.560270 0.819500 0.430140 -0.543101
O4    O     O_R   0.439730 0.319500 0.569860 -0.543107
C1    C     C_R   0.581464 0.655550 0.415061 0.708406
C2    C     C_R   0.418537 0.155551 0.584940 0.708408
O5    O     O_R   0.413840 0.823740 0.407440 -0.538052
O6    O     O_R   0.586160 0.323740 0.592560 -0.538051
O7    O     O_R   0.437710 0.998590 0.560350 -0.539210
O8    O     O_R   0.562290 0.498590 0.439650 -0.539207
C3    C     C_R   0.387584 0.654931 0.385273 0.733432
C4    C     C_R   0.612415 0.154929 0.614728 0.733435
O9    O     O_3   0.508000 0.662290 0.550200 -0.380161
O10   O     O_3   0.492000 0.162290 0.449800 -0.380157
V1    V     V_3+5 0.498520 0.935380 0.490690 1.395829
V2    V     V_3+5 0.501480 0.435380 0.509310 1.395824
C5    C     C_2   0.785301 0.271752 0.788495 -0.131637
C6    C     C_2   0.214704 0.771748 0.211494 -0.131628
C7    C     C_2   0.820433 0.113489 0.817066 -0.306321
C8    C     C_2   0.179570 0.613486 0.182929 -0.306317
H1    H     H_    0.807232 0.401927 0.815736 0.141047
H2    H     H_    0.192771 0.901923 0.184251 0.141046
H3    H     H_    0.800246 0.981907 0.790537 0.129705
H4    H     H_    0.199761 0.481899 0.209455 0.129698
C9    C     C_2   0.717436 0.284552 0.720411 -0.136568
C10   C     C_2   0.282573 0.784553 0.279573 -0.136569
C11   C     C_2   0.679336 0.138479 0.682552 -0.303778
C12   C     C_2   0.320661 0.638480 0.317453 -0.303768
H5    H     H_    0.698194 0.422767 0.701441 0.138633
H6    H     H_    0.301828 0.922771 0.298520 0.138630
H7    H     H_    0.697122 0.999424 0.700904 0.131879
H8    H     H_    0.302860 0.499421 0.299126 0.131876
C13   C     C_R   0.321334 0.297102 0.632214 -0.205854
C14   C     C_R   0.678697 0.797060 0.367826 -0.205841
C15   C     C_R   0.368392 0.148522 0.633542 -0.075516
C16   C     C_R   0.631611 0.648517 0.366463 -0.075513
C17   C     C_R   0.366708 0.993931 0.680848 -0.217644
C18   C     C_R   0.633268 0.493963 0.319124 -0.217632
C19   C     C_R   0.319727 0.989009 0.727522 0.095664
C20   C     C_R   0.680258 0.489034 0.272459 0.095676
C21   C     C_R   0.272274 0.138524 0.725390 0.044801
C22   C     C_R   0.727730 0.638523 0.274616 0.044766
C23   C     C_R   0.272643 0.291790 0.676863 0.045651
C24   C     C_R   0.727379 0.791760 0.323167 0.045664
C25   C     C_R   0.319408 0.836993 0.776314 -0.192430
C26   C     C_R   0.680562 0.337043 0.223648 -0.192374
C27   C     C_R   0.272869 0.833041 0.822902 -0.179799
C28   C     C_R   0.727108 0.333087 0.177067 -0.179813
C29   C     C_R   0.225176 0.980035 0.820854 0.108856
C30   C     C_R   0.774815 0.480058 0.179134 0.108855
C31   C     C_R   0.224432 0.134101 0.771619 0.029683
C32   C     C_R   0.775571 0.634103 0.228385 0.029677
C33   C     C_R   0.175607 0.282006 0.768157 0.030595
C34   C     C_R   0.824401 0.781995 0.231854 0.030603
C35   C     C_R   0.173823 0.433386 0.716224 0.124202
C36   C     C_R   0.826190 0.933365 0.283794 0.124192
C37   C     C_R   0.223813 0.436745 0.672505 -0.183439
C38   C     C_R   0.776214 0.936706 0.327531 -0.183413
C39   C     C_R   0.177826 0.973830 0.866763 -0.219355
C40   C     C_R   0.822162 0.473856 0.133221 -0.219352
C41   C     C_R   0.130042 0.120087 0.865315 -0.066198
C42   C     C_R   0.869955 0.620093 0.134683 -0.066194
C43   C     C_R   0.129423 0.273129 0.816408 -0.225704
C44   C     C_R   0.870584 0.773119 0.183602 -0.225697
H9    H     H_    0.321593 0.415778 0.595034 0.122716
H10   H     H_    0.678461 0.915699 0.405036 0.122700
H11   H     H_    0.402844 0.878863 0.682399 0.127582
H12   H     H_    0.597106 0.378929 0.317542 0.127568
H13   H     H_    0.355161 0.720898 0.778432 0.132919
H14   H     H_    0.644787 0.220973 0.221503 0.132899
H15   H     H_    0.273574 0.713658 0.859952 0.128726
H16   H     H_    0.726388 0.213727 0.139997 0.128713
H17   H     H_    0.178772 0.855425 0.904476 0.121096
H18   H     H_    0.821203 0.355472 0.095490 0.121091
H19   H     H_    0.091880 0.383655 0.816001 0.124913
H20   H     H_    0.908134 0.883632 0.184018 0.124905
H21   H     H_    0.224987 0.551259 0.633838 0.140955
H22   H     H_    0.775049 0.051203 0.366211 0.140941
O11   O     O_R   0.937810 0.773680 0.060480 -0.537100
O12   O     O_R   0.062190 0.273680 0.939520 -0.537101
O13   O     O_R   0.086190 0.439740 0.092580 -0.541558
O14   O     O_R   0.913810 0.939740 0.907420 -0.541558
C45   C     C_R   0.112464 0.608314 0.114760 0.732826
C46   C     C_R   0.887536 0.108315 0.885239 0.732826
O15   O     O_R   0.939760 0.444210 0.069890 -0.542897
O16   O     O_R   0.060240 0.944210 0.930110 -0.542901
O17   O     O_R   0.914790 0.269640 0.916760 -0.536342
O18   O     O_R   0.085210 0.769640 0.083240 -0.536341
C47   C     C_R   0.919192 0.612450 0.084972 0.695732
C48   C     C_R   0.080807 0.112448 0.915027 0.695731
O19   O     O_3   0.992050 0.601530 0.949880 -0.379482
O20   O     O_3   0.007950 0.101530 0.050120 -0.379480
V3    V     V_3+5 0.001480 0.328340 0.009300 1.392887
V4    V     V_3+5 0.998520 0.828340 0.990700 1.392883
C49   C     C_3   0.117712 0.586382 0.707363 -0.342427
C50   C     C_3   0.115743 0.735074 0.645392 -0.750870
H23   H     H_    0.167715 0.811285 0.660275 0.235489
H24   H     H_    0.103818 0.672401 0.585611 0.222029
H25   H     H_    0.072316 0.835935 0.644170 0.219976
H26   H     H_    0.063091 0.522239 0.690654 0.175806
H27   H     H_    0.126988 0.655601 0.765451 0.183641
C51   C     C_3   0.882287 0.086378 0.292637 -0.342402
C52   C     C_3   0.884261 0.235061 0.354616 -0.750796
H28   H     H_    0.832289 0.311292 0.339730 0.235473
H29   H     H_    0.896183 0.172361 0.414395 0.222014
H30   H     H_    0.927698 0.335921 0.355849 0.219954
H31   H     H_    0.936912 0.022252 0.309330 0.175786
H32   H     H_    0.872994 0.155600 0.234546 0.183644

loop_
_geom_bond_atom_site_label_1
_geom_bond_atom_site_label_2
_ccdc_geom_bond_type
C1    C16   S    
O14   V4    S    
C49   C50   S    
O1    C3    A    
C46   O17   A    
O2    C4    A    
C50   H25   S    
C14   H10   S    
C2    O7    A    
C13   H9    S    
C27   C29   A    
C20   C26   A    
C43   H19   S    
C15   C17   A    
C42   C47   S    
O17   V3    S    
C2    C15   S    
C40   C42   A    
C25   C27   A    
C41   C43   A    
C42   C44   A    
O16   V4    S    
C5    C7    D    
C6    C10   S    
O15   V3    S    
C8    H4    S    
C24   C38   A    
C29   C31   A    
C50   H24   S    
C30   C32   A    
C51   H32   S    
C39   H17   S    
C14   C16   A    
C19   C25   A    
C28   C30   A    
C45   O18   A    
O6    V2    S    
C21   C23   A    
C38   H22   S    
C22   C24   A    
C28   H16   S    
O13   C45   A    
C32   C34   A    
O5    C3    A    
O18   V4    S    
C33   C35   A    
C9    H5    S    
C34   C36   A    
C39   C41   A    
O11   C47   A    
C4    C11   S    
C25   H13   S    
C13   C23   A    
C37   H21   S    
C12   H8    S    
C14   C24   A    
O11   V4    S    
C35   C49   S    
O16   C48   A    
O15   C47   A    
C49   H26   S    
O5    V1    S    
C11   H7    S    
C5    H1    S    
C31   C33   A    
O4    V2    S    
C7    H3    S    
O13   V3    S    
O6    C4    A    
C50   H23   S    
C44   H20   S    
C51   H31   S    
C52   H29   S    
O1    V2    S    
O2    V1    S    
C27   H15   S    
O4    C2    A    
C18   H12   S    
C10   H6    S    
O14   C46   A    
C35   C37   A    
O9    V2    S    
C7    C46   S    
O3    V1    S    
C41   C48   S    
C6    H2    S    
C20   C22   A    
O3    C1    A    
C9    C11   D    
C10   C12   D    
C29   C39   A    
C5    C9    S    
C16   C18   A    
O7    V1    S    
C30   C40   A    
C1    O8    A    
C17   C19   A    
O8    V2    S    
O19   V4    S    
C18   C20   A    
C33   C43   A    
C34   C44   A    
C3    C12   S    
C17   H11   S    
C40   H18   S    
O20   V3    S    
C13   C15   A    
C36   C38   A    
C52   H30   S    
C6    C8    D    
O12   C48   A    
C51   C52   S    
C26   H14   S    
C23   C37   A    
C36   C51   S    
C26   C28   A    
C19   C21   A    
C8    C45   S    
C52   H28   S    
O10   V1    S    
O12   V3    S    
C21   C31   A    
C49   H27   S    
C22   C32   A    
