data_mof_unit_57484.cif
_audit_creation_date              2013-03-05T15:52:12-0500
_audit_creation_method            fapswitch 2.2
_symmetry_space_group_name_H-M    P1
_symmetry_Int_Tables_number       1
_space_group_crystal_system       triclinic
_cell_length_a                    8.24032
_cell_length_b                    17.395531
_cell_length_c                    26.963996
_cell_angle_alpha                 95.645987
_cell_angle_beta                  92.522392
_cell_angle_gamma                 83.857973
_cell_volume                      3822.12646034

loop_
_atom_site_label
_atom_site_type_symbol
_atom_site_description
_atom_site_fract_x
_atom_site_fract_y
_atom_site_fract_z
_atom_type_partial_charge
P1    P     P_3+3 0.078810 0.562990 0.610370 0.484761
O1    O     O_2   0.910880 0.540430 0.617910 -0.364818
O2    O     O_3   0.142880 0.540370 0.557740 -0.402538
O3    O     O_3   0.675650 0.402220 0.588450 -0.395060
O4    O     O_2   0.841819 0.435194 0.672953 -0.385783
O5    O     O_3   0.054987 0.664197 0.622489 -0.556964
O6    O     O_3   0.653825 0.325215 0.675925 -0.525990
H1    H     H_    0.800768 0.273925 0.618179 0.183194
C1    C     C_3   0.716606 0.188055 0.659345 -0.961618
H2    H     H_    0.826169 0.186809 0.684887 0.280634
H3    H     H_    0.609184 0.178353 0.680475 0.251459
P2    P     P_3+3 0.645380 0.325580 0.462150 0.497812
P3    P     P_3+3 0.119897 0.262311 0.564720 0.457186
O7    O     O_2   0.823810 0.314230 0.476690 -0.327756
O8    O     O_3   0.086630 0.363340 0.564170 -0.371890
O9    O     O_2   0.974239 0.226761 0.536366 -0.359186
O10   O     O_3   0.645655 0.306328 0.397166 -0.550956
O11   O     O_3   0.103277 0.242625 0.626494 -0.524847
C2    C     C_3   0.243139 0.264525 0.653538 0.380509
H4    H     H_    0.269566 0.324063 0.646864 0.089467
H5    H     H_    0.349063 0.221967 0.643193 0.055763
C3    C     C_3   0.216943 0.263956 0.708909 -0.869493
H6    H     H_    0.115405 0.308336 0.720728 0.266880
H7    H     H_    0.186952 0.205812 0.717008 0.246227
C4    C     C_3   0.205760 0.299558 0.415197 0.267219
H8    H     H_    0.329884 0.317860 0.421086 0.056441
H9    H     H_    0.136526 0.314074 0.449926 0.122091
C5    C     C_3   0.220199 0.211698 0.401780 -0.134182
H10   H     H_    0.269594 0.197138 0.363963 0.125953
H11   H     H_    0.307227 0.183082 0.428395 0.080614
Ba1   Ba    Ba6+2 0.856110 0.463800 0.523550 1.571562
C6    C     C_3   0.993287 0.698134 0.579756 0.433200
H12   H     H_    0.875329 0.676598 0.567798 0.090924
H13   H     H_    0.079614 0.685016 0.548966 0.134383
C7    C     C_3   0.968415 0.785699 0.592257 -0.959763
H14   H     H_    0.876145 0.800539 0.621414 0.273022
H15   H     H_    0.925573 0.814918 0.558735 0.225991
H16   H     H_    0.085586 0.807475 0.606114 0.263694
C8    C     C_3   0.676847 0.372835 0.375446 0.405571
H17   H     H_    0.794629 0.391676 0.390362 0.072579
H18   H     H_    0.579456 0.420936 0.383533 0.117015
C9    C     C_3   0.687073 0.354739 0.318796 -0.454606
H19   H     H_    0.792171 0.310648 0.309897 0.249692
H20   H     H_    0.712347 0.408446 0.302938 0.145248
P4    P     P_3+3 0.110900 0.436950 0.389630 0.475389
O12   O     O_2   0.278810 0.459550 0.382060 -0.378953
O13   O     O_3   0.046820 0.459570 0.442260 -0.393324
O14   O     O_3   0.514050 0.597710 0.411540 -0.370684
O15   O     O_3   0.127556 0.336094 0.375511 -0.555650
P5    P     P_3+3 0.074291 0.738052 0.434267 0.438225
O16   O     O_3   0.627090 0.591350 0.524530 -0.387628
O17   O     O_3   0.103080 0.636600 0.435820 -0.379240
O18   O     O_2   0.206970 0.773969 0.468615 -0.389383
O19   O     O_3   0.117480 0.761302 0.375126 -0.526519
Ba2   Ba    Ba6+2 0.333710 0.536130 0.476450 1.545678
P6    P     P_3+3 0.670358 0.415292 0.653575 0.474666
C10   C     C_3   0.688798 0.265900 0.637506 0.490204
H21   H     H_    0.584735 0.264773 0.610043 0.017192
H22   H     H_    0.736311 0.140638 0.628821 0.232156
O20   O     O_3   0.562610 0.408580 0.475460 -0.404896
C11   C     C_3   0.503055 0.658667 0.627558 0.428494
H23   H     H_    0.382138 0.643393 0.612315 0.106863
H24   H     H_    0.593035 0.606266 0.625007 0.097682
C12   C     C_3   0.484315 0.689170 0.682079 -0.966947
H25   H     H_    0.402119 0.744246 0.684971 0.275868
H26   H     H_    0.430318 0.646538 0.702635 0.222949
H27   H     H_    0.605416 0.699969 0.699515 0.264761
P7    P     P_3+3 0.550603 0.688727 0.538064 0.438132
O21   O     O_2   0.365880 0.685750 0.523280 -0.361494
O22   O     O_3   0.558876 0.716625 0.602151 -0.568255
H28   H     H_    0.330170 0.277400 0.730310 0.265620
C13   C     C_3   0.012649 0.725259 0.340011 0.459974
H29   H     H_    0.049334 0.661672 0.335030 0.119072
H30   H     H_    0.884153 0.736394 0.351364 0.005604
C14   C     C_3   0.023396 0.758962 0.290507 -0.967444
H31   H     H_    0.921784 0.741867 0.265119 0.275016
H32   H     H_    0.012556 0.823399 0.296191 0.248764
H33   H     H_    0.141428 0.737409 0.273162 0.277950
P8    P     P_3+3 0.526703 0.595510 0.346882 0.446686
C15   C     C_3   0.489446 0.743887 0.361818 0.492178
H34   H     H_    0.623788 0.734674 0.367925 -0.038251
O23   O     O_2   0.423391 0.532098 0.322086 -0.401514
O24   O     O_3   0.427524 0.683625 0.330033 -0.516723
H35   H     H_    0.433950 0.746760 0.398809 0.121343
H36   H     H_    0.453874 0.868977 0.371653 0.145058
C16   C     C_3   0.446044 0.822397 0.340547 -0.422703
H37   H     H_    0.318288 0.827445 0.325547 0.241532
C17   C     C_R   0.018407 0.442636 0.179263 0.521822
O25   O     O_2   0.042290 0.384525 0.201653 -0.602295
N1    N     N_R   0.950441 0.511953 0.203657 -0.159443
C18   C     C_R   0.923919 0.577572 0.177554 0.525086
C19   C     C_2   0.764841 0.555644 0.272096 -0.208540
C20   C     C_3   0.743293 0.581498 0.326835 0.120250
C21   C     C_1   0.985139 0.490924 0.343524 0.291245
C22   C     C_2   0.026064 0.485242 0.295764 -0.204040
C23   C     C_2   0.908425 0.517158 0.256479 0.128811
C24   C     C_R   0.023370 0.503770 0.101342 -0.076095
C25   C     C_R   0.058567 0.438165 0.128184 -0.054600
C26   C     C_R   0.132811 0.369548 0.103208 -0.089418
C27   C     C_R   0.957243 0.574015 0.126415 -0.043315
C28   C     C_2   0.853674 0.533932 0.360803 -0.470853
H38   H     H_    0.146573 0.459126 0.285125 0.175012
H39   H     H_    0.160831 0.317716 0.122487 0.163204
C29   C     C_2   0.355369 0.483627 0.641272 -0.463804
C30   C     C_R   0.189504 0.432325 0.975196 0.059983
C31   C     C_R   0.023404 0.557847 0.969426 -0.007263
C32   C     C_R   0.128797 0.495161 0.947175 0.051828
C33   C     C_R   0.297733 0.372476 0.951808 -0.208321
C34   C     C_R   0.342129 0.373695 0.902495 -0.087806
C35   C     C_R   0.279503 0.434234 0.874042 -0.047266
C36   C     C_R   0.171395 0.494683 0.896317 -0.070958
C37   C     C_R   0.105112 0.554517 0.867700 -0.072863
C38   C     C_R   0.153279 0.555325 0.817963 0.537989
N2    N     N_R   0.259263 0.495541 0.795950 -0.163988
C39   C     C_R   0.321372 0.435019 0.823619 0.519806
C40   C     C_2   0.460241 0.484401 0.729770 -0.159721
C41   C     C_3   0.503470 0.489825 0.675934 0.152246
C42   C     C_1   0.211651 0.514275 0.656846 0.297526
C43   C     C_2   0.171689 0.511896 0.703859 -0.186162
C44   C     C_2   0.301979 0.496034 0.743696 0.109434
O26   O     O_2   0.411764 0.381205 0.804275 -0.594457
C45   C     C_R   0.140767 0.431845 0.025509 0.041784
C46   C     C_R   0.056688 0.499744 0.049465 0.085472
C47   C     C_R   0.008803 0.564624 0.022246 0.044118
C48   C     C_R   0.175213 0.366678 0.053262 -0.210203
H40   H     H_    0.558459 0.476615 0.757565 0.163438
H41   H     H_    0.426331 0.326493 0.886626 0.166363
H42   H     H_    0.353830 0.324697 0.971287 0.126741
H43   H     H_    0.231457 0.311778 0.036851 0.127527
O27   O     O_2   0.872026 0.639829 0.198940 -0.638830
C49   C     C_R   0.931688 0.640438 0.100252 -0.095356
H44   H     H_    0.673395 0.577523 0.245356 0.166174
H45   H     H_    0.891282 0.696662 0.119132 0.163164
C50   C     C_R   0.933049 0.608856 0.937188 0.177495
C51   C     C_R   0.984178 0.609928 0.888222 -0.176645
O28   O     O_2   0.101874 0.609993 0.794474 -0.595109
C52   C     C_R   0.960240 0.635962 0.049458 -0.205506
H46   H     H_    0.921097 0.651460 0.864709 0.168778
H47   H     H_    0.044828 0.522460 0.713874 0.186825
H48   H     H_    0.954672 0.689847 0.032595 0.125823
H49   H     H_    0.839263 0.547484 0.400610 0.176060
H50   H     H_    0.367595 0.455568 0.603619 0.172026
H51   H     H_    0.478107 0.856279 0.526586 0.158010
H52   H     H_    0.299286 0.103387 0.544222 0.153905
C53   C     C_R   0.408800 0.278728 0.519929 -0.533961
C54   C     C_R   0.550584 0.254362 0.494170 0.296641
C55   C     C_R   0.606269 0.175070 0.487629 -0.246629
C56   C     C_R   0.517970 0.120110 0.506374 0.040909
C57   C     C_R   0.371236 0.145209 0.530870 -0.228360
C58   C     C_R   0.315944 0.224781 0.536858 0.213121
C59   C     C_R   0.584642 0.834910 0.505185 -0.251377
C60   C     C_R   0.637615 0.755409 0.500851 0.303392
C61   C     C_R   0.871779 0.778711 0.455977 0.225132
C62   C     C_R   0.820266 0.858862 0.459953 -0.269701
C63   C     C_R   0.674337 0.887096 0.484169 0.054593
C64   C     C_1   0.621540 0.969581 0.491229 0.008687
C65   C     C_1   0.574412 0.038126 0.498128 0.020266
C66   C     C_R   0.775800 0.727523 0.474332 -0.508780
H53   H     H_    0.895603 0.898778 0.446010 0.165630
H54   H     H_    0.715007 0.156163 0.466748 0.204682
H55   H     H_    0.365402 0.339868 0.524201 0.176090
H56   H     H_    0.817351 0.666170 0.472264 0.162918
N3    N     N_R   0.061835 0.181844 0.403282 0.279988
O29   O     O_R   0.039199 0.132491 0.434918 -0.395430
O30   O     O_R   0.947130 0.199240 0.370347 -0.359210
C67   C     C_3   0.527974 0.328797 0.293602 -0.203176
C68   C     C_3   0.522308 0.240970 0.290951 -0.777341
H57   H     H_    0.625696 0.210392 0.269353 0.254349
H58   H     H_    0.528130 0.220632 0.328716 0.275819
H59   H     H_    0.406238 0.225651 0.271943 0.232460
H60   H     H_    0.419737 0.358749 0.313138 0.222361
H61   H     H_    0.518993 0.345768 0.254805 0.190974
C69   C     C_3   0.561595 0.837588 0.300235 -0.349262
C70   C     C_3   0.552115 0.781221 0.253293 -0.725117
H62   H     H_    0.603824 0.721966 0.261081 0.269267
H63   H     H_    0.423609 0.779956 0.239232 0.249356
H64   H     H_    0.624749 0.800154 0.223842 0.234549
H65   H     H_    0.527773 0.897528 0.289669 0.209714
H66   H     H_    0.689170 0.834807 0.315521 0.201261
C71   C     C_3   0.764256 0.650481 0.948839 -0.370024
C72   C     C_3   0.644617 0.593608 0.960233 -0.835607
H67   H     H_    0.520455 0.624817 0.964436 0.245117
H68   H     H_    0.639507 0.546744 0.929240 0.257298
H69   H     H_    0.680930 0.567316 0.995427 0.261170
H70   H     H_    0.766026 0.697993 0.978986 0.183642
H71   H     H_    0.710980 0.679807 0.916142 0.188412

loop_
_geom_bond_atom_site_label_1
_geom_bond_atom_site_label_2
_geom_bond_distance
_ccdc_geom_bond_type
C11   O22   1.400095 S    
O14   Ba2   2.712501 S    
C26   H39   1.083340 S    
C67   H61   1.111884 S    
P1    C42   1.837540 S    
C39   O26   1.221528 D    
C51   H46   1.083912 S    
P6    C41   1.863681 S    
O4    P6    1.547005 D    
O5    C6    1.397415 S    
C22   C23   1.510023 S    
P1    Ba1   3.365989 S    
O7    Ba1   2.812241 S    
C15   H35   1.109937 S    
N2    C39   1.390172 Am   
N1    C18   1.391851 Am   
C27   C49   1.404391 A    
C46   C47   1.417877 A    
C8    H18   1.107955 S    
C18   O27   1.219831 D    
H36   C16   1.112151 S    
C40   C41   1.524031 S    
C4    C5    1.528734 S    
C30   C32   1.424131 A    
P5    O19   1.743818 S    
P3    O11   1.747244 S    
P7    C60   1.826690 S    
O14   P8    1.747552 S    
C5    H10   1.110509 S    
C7    H15   1.106287 S    
P3    C58   1.839861 S    
P8    C20   1.871612 S    
P1    O2    1.535930 S    
C15   O24   1.411739 S    
C31   C32   1.420491 A    
C55   H54   1.083031 S    
P5    C61   1.838379 S    
C24   C25   1.408414 A    
C19   C23   1.358063 D    
C33   C34   1.397271 A    
P1    O1    1.505627 D    
O10   C8    1.399189 S    
P2    C54   1.835040 S    
C61   C66   1.391121 A    
C11   H24   1.110373 S    
C42   C43   1.329317 D    
C15   C16   1.534149 S    
C55   C56   1.405450 A    
C70   H62   1.108551 S    
C28   H49   1.084993 S    
C34   H41   1.083424 S    
N3    O29   1.300729 A    
C21   C28   1.323917 D    
P7    O21   1.561413 D    
C38   O28   1.222140 D    
O12   Ba2   2.795972 S    
P5    O17   1.759729 S    
C59   C60   1.400113 A    
C59   C63   1.404711 A    
C18   C27   1.411939 A    
C68   H59   1.110406 S    
C1    H2    1.110824 S    
O16   Ba2   2.902411 S    
C53   C58   1.393983 A    
O17   Ba2   2.710955 S    
O16   P7    1.752122 S    
C4    O15   1.396352 S    
H51   C59   1.083697 S    
C67   H60   1.110127 S    
C40   H40   1.085456 S    
Ba2   O20   2.752961 S    
O3    P6    1.750234 S    
C68   H58   1.107861 S    
C11   H23   1.109700 S    
C9    H20   1.107766 S    
O6    P6    1.753785 S    
C13   C14   1.519479 S    
P4    C21   1.846372 S    
C29   H50   1.086350 S    
C37   C38   1.417054 A    
C52   H48   1.077184 S    
C53   C54   1.390919 A    
C8    C9    1.533149 S    
C29   C42   1.314430 D    
P4    O13   1.535958 S    
C30   C33   1.413714 A    
C60   C66   1.388676 A    
P5    O18   1.544882 D    
C54   C55   1.402846 A    
P1    O5    1.750239 S    
C6    C7    1.521226 S    
C47   C52   1.406730 A    
C2    C3    1.519046 S    
C56   C57   1.410480 A    
C13   H29   1.111632 S    
C26   C48   1.400974 A    
C72   H68   1.111291 S    
C20   C28   1.505195 S    
C8    H17   1.104056 S    
C16   H37   1.108747 S    
O11   C2    1.403735 S    
C4    H8    1.103712 S    
C72   H67   1.110691 S    
N1    C23   1.472423 S    
C40   C44   1.361759 D    
O1    Ba1   2.795451 S    
C1    H22   1.110707 S    
C7    H14   1.110644 S    
C6    H13   1.107854 S    
Ba1   O20   2.903352 S    
P2    O10   1.751334 S    
C11   C12   1.521713 S    
C14   H31   1.104961 S    
C12   H27   1.110667 S    
H52   C57   1.083093 S    
C49   C52   1.393112 A    
C48   H43   1.078354 S    
H1    C10   1.107519 S    
C1    H3    1.109930 S    
P4    O15   1.750276 S    
C7    H16   1.110858 S    
C35   C36   1.407996 A    
C33   H42   1.078269 S    
O2    Ba1   2.906607 S    
C14   H32   1.110810 S    
C70   H64   1.110320 S    
C62   C63   1.411811 A    
Ba2   O21   2.812544 S    
C71   H71   1.112095 S    
C13   H30   1.106967 S    
C17   N1    1.390021 Am   
P3    O8    1.750903 S    
P2    Ba1   3.375597 S    
C67   C68   1.528041 S    
C3    H7    1.110628 S    
C9    H19   1.111670 S    
C37   C51   1.402291 A    
C3    H28   1.109488 S    
C68   H57   1.110702 S    
C24   C27   1.405184 A    
C71   C72   1.529805 S    
O13   Ba2   2.907356 S    
C38   N2    1.387951 Am   
C72   H69   1.109226 S    
C64   C65   1.212769 T    
C36   C37   1.405836 A    
C19   H44   1.085069 S    
C32   C36   1.429454 A    
Ba1   O16   2.753563 S    
C15   H34   1.108816 S    
C49   H45   1.083455 S    
P8    O23   1.547355 D    
C43   C44   1.508675 S    
C22   H38   1.085209 S    
O8    Ba1   2.710174 S    
C50   C51   1.405924 A    
C4    H9    1.111686 S    
C29   C41   1.510785 S    
O2    Ba2   2.743974 S    
C16   C69   1.536045 S    
Ba1   Ba2   4.527558 S    
C6    H12   1.102571 S    
C2    H4    1.113940 S    
C5    H11   1.107129 S    
P2    O7    1.502300 D    
C43   H47   1.083269 S    
C62   H53   1.083062 S    
C24   C46   1.430843 A    
C57   C58   1.406124 A    
C12   H25   1.110782 S    
P8    O24   1.749320 S    
C10   H21   1.108571 S    
C53   H55   1.081875 S    
C69   H65   1.111460 S    
C45   C48   1.415987 A    
C19   C20   1.512497 S    
C30   C45   1.432753 A    
C1    C10   1.520396 S    
C56   C65   1.450679 S    
C21   C22   1.337169 D    
C14   H33   1.110321 S    
C70   H63   1.110656 S    
O3    Ba1   2.712927 S    
C71   H70   1.101554 S    
C66   H56   1.082214 S    
C69   C70   1.527472 S    
P2    O20   1.545151 S    
C17   C25   1.423378 A    
P4    O12   1.505892 D    
C31   C50   1.432042 A    
O19   C13   1.401056 S    
C17   O25   1.221523 D    
P4    Ba2   3.366418 S    
P7    O22   1.748722 S    
C25   C26   1.405129 A    
P3    O9    1.546810 D    
C31   C47   1.426828 A    
C63   C64   1.450618 S    
C45   C46   1.416523 A    
C69   H66   1.110073 S    
C3    H6    1.111072 S    
N3    O30   1.300548 A    
Ba1   O13   2.743395 S    
C50   C71   1.528340 S    
C61   C62   1.408416 A    
C34   C35   1.404206 A    
C35   C39   1.419058 A    
O6    C10   1.404703 S    
N2    C44   1.468274 S    
C9    C67   1.540072 S    
C5    N3    1.458805 S    
C12   H26   1.108328 S    
C2    H5    1.109177 S    
