data_mof_unit_57547.cif
_audit_creation_date              2012-12-11T16:35:19-0500
_audit_creation_method            fapswitch 2.2
_symmetry_space_group_name_H-M    P1
_symmetry_Int_Tables_number       1
_space_group_crystal_system       triclinic
_cell_length_a                    6.930382
_cell_length_b                    17.666225
_cell_length_c                    19.495833
_cell_angle_alpha                 109.168393
_cell_angle_beta                  90.572216
_cell_angle_gamma                 90.673485
_cell_volume                      2254.21074953

loop_
_atom_site_label
_atom_site_type_symbol
_atom_type_description
_atom_site_fract_x
_atom_site_fract_y
_atom_site_fract_z
_atom_type_partial_charge
O1    O     O_R   0.505700 0.440210 0.561730 -0.545509
O2    O     O_R   0.169350 0.406300 0.412660 -0.538585
O3    O     O_R   0.005650 0.559790 0.438270 -0.534401
C1    C     C_R   0.337351 0.383344 0.384506 0.812099
O4    O     O_R   0.175560 0.430650 0.559600 -0.547617
O5    O     O_R   0.011900 0.584320 0.586250 -0.538454
C2    C     C_R   0.344680 0.415980 0.581444 0.669075
O6    O     O_R   0.499450 0.415680 0.413750 -0.524695
O7    O     O_3   0.341370 0.550390 0.508570 -0.363345
V1    V     V_3+5 0.063940 0.490650 0.498410 1.437510
O8    O     O_R   0.682570 0.593700 0.587340 -0.541048
C3    C     C_R   0.852871 0.616570 0.614849 0.685833
O9    O     O_R   0.676370 0.569350 0.440400 -0.532977
C4    C     C_R   0.845368 0.585378 0.419705 0.704094
V2    V     V_3+5 0.564750 0.509350 0.501590 1.450548
O10   O     O_3   0.837190 0.449610 0.491430 -0.373408
C5    C     C_R   0.045100 0.693379 0.295671 -0.144493
H1    H     H_    0.182444 0.697692 0.271173 0.098967
C6    C     C_R   0.033646 0.647440 0.341847 -0.157657
H2    H     H_    0.163256 0.619539 0.352671 0.137366
C7    C     C_R   0.857121 0.636526 0.372580 -0.049847
C8    C     C_R   0.693116 0.674819 0.357612 -0.179938
H3    H     H_    0.555252 0.668710 0.381091 0.123997
C9    C     C_R   0.705069 0.721900 0.312298 -0.145818
H4    H     H_    0.576139 0.751374 0.303054 0.105643
C10   C     C_R   0.880815 0.731073 0.279839 0.117871
C11   C     C_R   0.734132 0.778104 0.182429 -0.137149
H5    H     H_    0.604040 0.744075 0.183703 0.124897
C12   C     C_R   0.743386 0.818619 0.131652 0.334736
C13   C     C_R   0.913714 0.862757 0.127171 -0.166232
C14   C     C_R   0.071420 0.861466 0.172696 -0.140646
H6    H     H_    0.203005 0.894141 0.170983 0.172705
C15   C     C_R   0.060584 0.819983 0.222571 -0.121044
H7    H     H_    0.184282 0.822380 0.257592 0.135461
C16   C     C_R   0.891660 0.777679 0.228229 -0.000193
H8    H     H_    0.673443 0.645280 0.932991 0.124795
C17   C     C_R   0.036448 0.898909 0.747912 -0.192601
C18   C     C_R   0.091317 0.908922 0.682813 -0.122456
C19   C     C_R   0.072107 0.845525 0.617517 0.212428
C20   C     C_R   0.997973 0.771724 0.617934 -0.144728
C21   C     C_R   0.943168 0.759799 0.683448 0.032347
C22   C     C_R   0.962323 0.824699 0.749707 0.066737
C23   C     C_R   0.867394 0.684946 0.683498 -0.158580
C24   C     C_R   0.811629 0.674708 0.749689 0.030015
C25   C     C_R   0.832059 0.739467 0.815973 0.068584
C26   C     C_R   0.905403 0.814765 0.815975 -0.159367
C27   C     C_R   0.739132 0.600053 0.751374 -0.161012
C28   C     C_R   0.687989 0.589156 0.816747 0.203721
C29   C     C_R   0.710457 0.652801 0.881734 -0.110780
C30   C     C_R   0.782281 0.726729 0.881468 -0.172790
H9    H     H_    0.052576 0.950047 0.796773 0.109646
H10   H     H_    0.148361 0.966518 0.683512 0.124921
H11   H     H_    0.982854 0.724124 0.566280 0.105375
H12   H     H_    0.722541 0.549151 0.702134 0.115035
H13   H     H_    0.801086 0.773490 0.933241 0.090927
H14   H     H_    0.496348 0.479918 0.176111 0.113528
C31   C     C_R   0.257528 0.220689 0.376256 -0.206913
C32   C     C_R   0.241054 0.143587 0.379019 -0.233584
C33   C     C_R   0.307942 0.078409 0.322272 0.408253
C34   C     C_R   0.387899 0.090916 0.260444 0.088013
C35   C     C_R   0.380811 0.169104 0.252464 0.005279
C36   C     C_R   0.327851 0.235521 0.314126 0.021191
C37   C     C_R   0.428095 0.183463 0.186460 -0.139965
C38   C     C_R   0.444162 0.263460 0.185616 0.014484
C39   C     C_R   0.407027 0.330151 0.249325 0.038272
C40   C     C_R   0.349072 0.315688 0.314122 -0.166921
C41   C     C_R   0.497728 0.278029 0.121144 -0.149548
C42   C     C_R   0.517319 0.355299 0.118827 -0.162317
C43   C     C_R   0.481807 0.420329 0.179946 -0.185481
C44   C     C_R   0.424937 0.409474 0.245182 0.343918
H15   H     H_    0.210892 0.268514 0.423521 0.125518
H16   H     H_    0.181744 0.135036 0.427186 0.121155
H17   H     H_    0.527019 0.229895 0.071483 0.111437
H18   H     H_    0.559542 0.364818 0.068925 0.132679
C45   C     C_R   0.526558 0.276383 0.679861 -0.155219
H19   H     H_    0.651947 0.240002 0.678703 0.115544
C46   C     C_R   0.517838 0.321903 0.633012 -0.164261
H20   H     H_    0.637451 0.319961 0.597176 0.124375
C47   C     C_R   0.354784 0.367998 0.631335 -0.048192
C48   C     C_R   0.203620 0.369583 0.679304 -0.175297
H21   H     H_    0.078430 0.406198 0.680736 0.118974
C49   C     C_R   0.214974 0.325891 0.727576 -0.129961
H22   H     H_    0.100121 0.331331 0.765973 0.109601
C50   C     C_R   0.373955 0.276869 0.727027 0.099512
C51   C     C_R   0.232078 0.172993 0.778575 0.186728
C52   C     C_R   0.248110 0.128593 0.826513 -0.159465
H23   H     H_    0.130950 0.088585 0.829003 0.116496
C53   C     C_R   0.414243 0.133699 0.869898 -0.087680
C54   C     C_R   0.565525 0.185261 0.865302 -0.169789
H24   H     H_    0.695482 0.190638 0.897985 0.130740
C55   C     C_R   0.549130 0.231847 0.819584 -0.184192
H25   H     H_    0.666774 0.272330 0.818500 0.117466
C56   C     C_R   0.382999 0.227073 0.776014 0.072890
O11   O     O_R   0.273230 0.084330 0.086440 -0.534507
O12   O     O_R   0.596660 0.069390 0.940470 -0.543615
O13   O     O_R   0.760270 0.915710 0.913690 -0.536509
C57   C     C_R   0.427228 0.084701 0.919106 0.689947
O14   O     O_R   0.603330 0.093680 0.087390 -0.540878
O15   O     O_R   0.766990 0.940160 0.061660 -0.535456
C58   C     C_R   0.435898 0.115960 0.116058 0.708968
O16   O     O_R   0.266510 0.059870 0.938470 -0.542292
O17   O     O_3   0.431050 0.949630 0.991510 -0.362026
V3    V     V_3+5 0.708490 0.009340 0.001580 1.417385
O18   O     O_R   0.096270 0.930570 0.059390 -0.535903
C59   C     C_R   0.926578 0.913524 0.079342 0.689106
O19   O     O_R   0.089600 0.906290 0.912460 -0.537956
C60   C     C_R   0.919340 0.883402 0.884833 0.694856
V4    V     V_3+5 0.207670 0.990600 0.998190 1.437563
O20   O     O_3   0.935250 0.050360 0.008480 -0.368658
C61   C     C_3   0.129285 0.855730 0.546939 -0.796688
H26   H     H_    0.184740 0.917346 0.554985 0.208191
H27   H     H_    0.244065 0.812596 0.521489 0.210623
H28   H     H_    0.002311 0.843963 0.509498 0.215090
C62   C     C_3   0.611123 0.509124 0.816273 -0.792933
H29   H     H_    0.578746 0.509138 0.871963 0.207152
H30   H     H_    0.476187 0.494064 0.783103 0.220855
H31   H     H_    0.719174 0.462171 0.792324 0.206301
O21   O     O_3   0.299173 0.001831 0.326537 -0.659956
H32   H     H_    0.238820 0.003473 0.372878 0.282306
C63   C     C_3   0.500821 0.022671 0.209673 -0.677725
H33   H     H_    0.535059 0.975426 0.233680 0.235208
H34   H     H_    0.418317 0.993188 0.158772 0.207061
H35   H     H_    0.642680 0.045361 0.198240 0.189940
O22   O     O_3   0.381760 0.475844 0.303937 -0.657115
H36   H     H_    0.409072 0.525373 0.292153 0.267991
C64   C     C_3   0.058054 0.158163 0.728503 -0.821456
H37   H     H_    0.960249 0.209877 0.745558 0.201563
H38   H     H_    0.104151 0.147527 0.671777 0.218095
H39   H     H_    0.973476 0.104647 0.729230 0.208493
O23   O     O_3   0.583558 0.812114 0.087294 -0.648692
H40   H     H_    0.627214 0.812492 0.039355 0.288435

loop_
_geom_bond_atom_site_label_1
_geom_bond_atom_site_label_2
_ccdc_geom_bond_type
O15   V3    S    
C64   H37   S    
C11   C12   A    
C21   C22   A    
C6    H2    S    
O18   V4    S    
C1    O6    A    
C62   H29   S    
C31   C36   A    
C46   H20   S    
C63   H33   S    
O11   V4    S    
C17   C18   A    
C5    C10   A    
C4    C7    S    
C2    C47   S    
C6    C7    A    
C9    C10   A    
C3    C23   S    
C43   C44   A    
O5    C3    A    
C13   C14   A    
C17   H9    S    
C52   C53   A    
C45   C50   A    
C18   H10   S    
O19   C60   A    
C42   H18   S    
C39   C44   A    
V4    O20   S    
C22   C26   A    
C17   C22   A    
C35   C37   A    
C61   H26   S    
C5    C6    A    
O21   H32   S    
O8    V2    S    
C19   C61   S    
C27   C28   A    
O12   V3    S    
C42   C43   A    
O14   V3    S    
C14   C15   A    
O17   V4    S    
C41   H17   S    
C54   C55   A    
O7    V1    S    
C53   C57   S    
C24   C27   A    
O16   V4    S    
C33   C34   A    
O9    C4    A    
C21   C23   A    
C51   C64   S    
O17   V3    S    
C51   C56   A    
O18   C59   A    
C63   H34   S    
C15   H7    S    
C46   C47   A    
O15   C59   A    
C36   C40   A    
C41   C42   A    
C38   C41   A    
C9    H4    S    
C48   C49   A    
C19   C20   A    
O4    C2    A    
C52   H23   S    
C37   C58   S    
C11   C16   A    
C32   C33   A    
C51   C52   A    
C49   H22   S    
C47   C48   A    
C34   C35   A    
O2    C1    A    
C45   H19   S    
C12   C13   A    
C44   O22   S    
C55   C56   A    
C12   O23   S    
O11   C58   A    
C26   C60   S    
O12   C57   A    
C5    H1    S    
C31   H15   S    
C45   C46   A    
C61   H28   S    
O3    C4    A    
C27   H12   S    
O1    V2    S    
C28   C29   A    
O13   C60   A    
C29   C30   A    
O6    V2    S    
C49   C50   A    
O9    V2    S    
C23   C24   A    
C8    C9    A    
O2    V1    S    
C55   H25   S    
C24   C25   A    
C28   C62   S    
C20   C21   A    
C64   H38   S    
O1    C2    A    
C14   H6    S    
C48   H21   S    
O5    V1    S    
C62   H30   S    
O8    C3    A    
C63   H35   S    
C33   O21   S    
O14   C58   A    
C30   H13   S    
C64   H39   S    
V3    O20   S    
C38   C39   A    
O23   H40   S    
O7    V2    S    
O4    V1    S    
C13   C59   S    
O3    V1    S    
V1    O10   S    
C1    C40   S    
C32   H16   S    
C31   C32   A    
C18   C19   A    
O19   V4    S    
C25   C30   A    
C15   C16   A    
C34   C63   S    
C50   C56   S    
C39   C40   A    
C35   C36   A    
C61   H27   S    
C62   H31   S    
C20   H11   S    
C37   C38   A    
C25   C26   A    
C10   C16   S    
C53   C54   A    
H14   C43   S    
O13   V3    S    
C11   H5    S    
C8    H3    S    
C54   H24   S    
C7    C8    A    
C57   O16   A    
H8    C29   S    
V2    O10   S    
O22   H36   S    
