data_mof_unit_19751.cif
_audit_creation_date              2012-12-10T19:35:26-0500
_audit_creation_method            fapswitch 2.2
_symmetry_space_group_name_H-M    P1
_symmetry_Int_Tables_number       1
_space_group_crystal_system       triclinic
_cell_length_a                    30.551853
_cell_length_b                    30.470181
_cell_length_c                    22.434179
_cell_angle_alpha                 89.904697
_cell_angle_beta                  90.050605
_cell_angle_gamma                 89.856824
_cell_volume                      20884.3346058

loop_
_atom_site_label
_atom_site_type_symbol
_atom_type_description
_atom_site_fract_x
_atom_site_fract_y
_atom_site_fract_z
_atom_type_partial_charge
C1    C     C_R   0.618140 0.118101 0.248087 -0.211061
C2    C     C_R   0.616948 0.880301 0.251612 -0.205466
C3    C     C_R   0.370698 0.138555 0.305114 0.365029
C4    C     C_R   0.874492 0.356109 0.696473 0.417819
C5    C     C_R   0.160418 0.605828 0.274659 0.396896
C6    C     C_R   0.338226 0.109031 0.732733 0.394621
C7    C     C_R   0.636457 0.867928 0.306102 0.374989
C8    C     C_R   0.886870 0.657889 0.224641 0.384929
C9    C     C_R   0.153938 0.386616 0.711631 0.378997
C10   C     C_R   0.347204 0.882676 0.293840 0.386217
C11   C     C_R   0.606621 0.162483 0.749754 0.383235
C12   C     C_R   0.108578 0.339717 0.229450 0.364928
C13   C     C_R   0.879275 0.383680 0.746913 -0.240609
C14   C     C_R   0.844765 0.614421 0.717085 0.381356
C15   C     C_R   0.662739 0.106127 0.250240 0.367430
C16   C     C_R   0.350060 0.878511 0.704416 0.396424
C17   C     C_R   0.638616 0.195044 0.242786 -0.121921
C18   C     C_R   0.345556 0.819764 0.800940 -0.136138
C19   C     C_R   0.192275 0.359028 0.273558 -0.111951
C20   C     C_R   0.859478 0.689756 0.785782 -0.080049
C21   C     C_R   0.352346 0.811556 0.215216 -0.119143
C22   C     C_R   0.695135 0.137813 0.748841 -0.111210
C23   C     C_R   0.808752 0.639153 0.285035 -0.108376
C24   C     C_R   0.118590 0.616922 0.252479 -0.220328
C25   C     C_R   0.146578 0.313667 0.787388 -0.068383
C26   C     C_R   0.359199 0.194037 0.770966 -0.116562
C27   C     C_R   0.661425 0.826098 0.200019 -0.155666
C28   C     C_R   0.815681 0.348490 0.791574 -0.150027
C29   C     C_R   0.142072 0.692142 0.238636 -0.118301
C30   C     C_R   0.652223 0.817719 0.799642 -0.118932
C31   C     C_R   0.328107 0.162613 0.199036 -0.120549
C32   C     C_R   0.182019 0.651059 0.705950 -0.099975
C33   C     C_R   0.847872 0.319296 0.200754 -0.183714
C34   C     C_R   0.151543 0.680815 0.797149 -0.101892
C35   C     C_R   0.622825 0.885864 0.759076 -0.243654
C36   C     C_R   0.825857 0.339749 0.300516 -0.128278
C37   C     C_R   0.695739 0.860620 0.731354 -0.174751
C38   C     C_R   0.338992 0.171949 0.305247 -0.122091
C39   C     C_R   0.843418 0.322506 0.697147 -0.112773
C40   C     C_R   0.193432 0.637579 0.275060 -0.108096
C41   C     C_R   0.305804 0.141475 0.736461 -0.120788
C42   C     C_R   0.666764 0.833267 0.307072 -0.122858
C43   C     C_R   0.852642 0.688426 0.224959 -0.107141
C44   C     C_R   0.187358 0.355247 0.713653 -0.166215
C45   C     C_R   0.314573 0.850660 0.293486 -0.117102
C46   C     C_R   0.382323 0.118495 0.250855 -0.205480
C47   C     C_R   0.639291 0.194473 0.751187 -0.121823
C48   C     C_R   0.141341 0.307445 0.229694 -0.110135
C49   C     C_R   0.812501 0.646825 0.721058 -0.160425
C50   C     C_R   0.694724 0.138878 0.245141 -0.135639
C51   C     C_R   0.318872 0.844636 0.705324 -0.150903
C52   C     C_R   0.682840 0.183229 0.243615 0.191020
C53   C     C_R   0.316065 0.815932 0.753729 0.195148
C54   C     C_R   0.183036 0.316869 0.252326 0.178722
C55   C     C_R   0.820111 0.685071 0.754191 0.147080
C56   C     C_R   0.317369 0.814750 0.255065 0.169206
C57   C     C_R   0.117751 0.617810 0.750251 -0.228203
C58   C     C_R   0.683518 0.182300 0.749816 0.172788
C59   C     C_R   0.813832 0.679477 0.255757 0.167872
C60   C     C_R   0.183529 0.318437 0.750905 0.157221
C61   C     C_R   0.316348 0.184104 0.754050 0.189942
C62   C     C_R   0.680299 0.813295 0.254143 0.196756
C63   C     C_R   0.814017 0.318526 0.744557 0.185440
C64   C     C_R   0.184242 0.680976 0.258108 0.175163
C65   C     C_R   0.689728 0.822245 0.764626 0.193529
C66   C     C_R   0.317211 0.183538 0.252528 0.189162
C67   C     C_R   0.183115 0.682137 0.751929 0.158807
C68   C     C_R   0.883287 0.380470 0.250325 -0.199874
C69   C     C_R   0.820171 0.313371 0.250032 0.213006
C70   C     C_R   0.784691 0.279969 0.248381 -0.256635
C71   C     C_R   0.217317 0.716294 0.752784 -0.252129
C72   C     C_R   0.283012 0.217923 0.253111 -0.256703
C73   C     C_R   0.722987 0.786784 0.762366 -0.252996
C74   C     C_R   0.219175 0.714518 0.257692 -0.257223
C75   C     C_R   0.781050 0.283024 0.745214 -0.255099
C76   C     C_R   0.714115 0.778532 0.255639 -0.252606
C77   C     C_R   0.282561 0.218788 0.753087 -0.259888
C78   C     C_R   0.218022 0.284455 0.751310 -0.269281
C79   C     C_R   0.744444 0.220247 0.296068 0.299529
C80   C     C_R   0.778744 0.712846 0.257514 -0.255272
C81   C     C_R   0.717673 0.216408 0.748011 -0.257930
C82   C     C_R   0.283425 0.780359 0.256296 -0.255735
C83   C     C_R   0.786438 0.719867 0.756861 -0.264974
C84   C     C_R   0.217503 0.282782 0.252609 -0.259204
C85   C     C_R   0.282144 0.781462 0.754581 -0.254466
C86   C     C_R   0.717051 0.217312 0.245427 -0.260158
C87   C     C_3   0.551590 0.190826 0.184141 0.135610
C88   C     C_3   0.502330 0.199470 0.181003 -0.328470
C89   C     C_3   0.488825 0.216363 0.119544 -0.933990
C90   C     C_R   0.237388 0.793577 0.756939 0.302353
C91   C     C_3   0.434208 0.815655 0.849146 0.112686
C92   C     C_3   0.476547 0.825898 0.882535 -0.337103
C93   C     C_3   0.504863 0.784926 0.889904 -0.840278
C94   C     C_3   0.197110 0.456083 0.251975 0.099968
C95   C     C_3   0.238763 0.470499 0.284204 -0.329644
C96   C     C_3   0.266952 0.499795 0.244664 -0.804347
C97   C     C_3   0.914871 0.642355 0.880405 0.106018
C98   C     C_3   0.956250 0.628810 0.914082 -0.377291
C99   C     C_3   0.945286 0.609144 0.974875 -0.884055
C100  C     C_3   0.402324 0.857833 0.114279 0.101912
C101  C     C_R   0.213380 0.245846 0.290632 0.297354
C102  C     C_3   0.398471 0.820414 0.069193 -0.358265
C103  C     C_3   0.384019 0.837340 0.008198 -0.827780
C104  C     C_3   0.681306 0.047509 0.808911 0.072232
C105  C     C_3   0.684511 0.997496 0.809501 -0.273990
C106  C     C_3   0.691450 0.979682 0.872331 -0.974670
C107  C     C_3   0.810626 0.539731 0.279771 0.071116
C108  C     C_3   0.810495 0.494758 0.309966 -0.326937
C109  C     C_3   0.783343 0.461844 0.274710 -0.810950
C110  C     C_3   0.086757 0.357684 0.880990 0.110837
C111  C     C_3   0.043787 0.362671 0.915235 -0.347245
C112  C     C_R   0.381146 0.881366 0.751178 -0.218953
C113  C     C_R   0.771171 0.739842 0.703688 0.310094
C114  C     C_3   0.051297 0.381616 0.977344 -0.901374
C115  C     C_3   0.439194 0.178570 0.846464 0.089749
C116  C     C_3   0.487458 0.187651 0.859496 -0.259329
C117  C     C_3   0.496310 0.192057 0.926143 -0.946243
C118  C     C_3   0.587467 0.830875 0.120591 0.127372
C119  C     C_3   0.546834 0.844519 0.085323 -0.323295
C120  C     C_3   0.526568 0.805334 0.053463 -0.941432
C121  C     C_3   0.846576 0.393372 0.897066 0.058241
C122  C     C_3   0.804328 0.408765 0.927227 -0.329591
C123  C     C_3   0.801189 0.391843 0.991038 -0.834597
C124  C     C_R   0.277211 0.754788 0.308425 0.299595
C125  C     C_3   0.075260 0.661361 0.143734 0.065086
C126  C     C_3   0.035633 0.679309 0.110156 -0.329210
C127  C     C_3   0.039885 0.671724 0.043219 -0.926948
C128  C     C_3   0.594184 0.879331 0.888415 0.103298
C129  C     C_3   0.620094 0.859592 0.940274 -0.383039
C130  C     C_3   0.633168 0.894631 0.985449 -0.894297
C131  C     C_3   0.390271 0.138522 0.103125 0.084304
C132  C     C_3   0.364402 0.136606 0.044845 -0.328679
C133  C     C_3   0.385169 0.165516 0.997153 -0.877275
C134  C     C_3   0.176886 0.550399 0.681086 0.076950
C135  C     C_R   0.720335 0.244636 0.697968 0.297113
C136  C     C_3   0.216198 0.545451 0.639528 -0.336493
C137  C     C_3   0.245671 0.507436 0.658600 -0.827734
C138  C     C_3   0.890554 0.352032 0.095530 0.075406
C139  C     C_3   0.910490 0.309755 0.070503 -0.388921
C140  C     C_3   0.892329 0.299426 0.008763 -0.815193
C141  C     C_3   0.052701 0.679590 0.823694 0.073680
C142  C     C_3   0.050120 0.715774 0.870697 -0.343280
C143  C     C_3   0.012584 0.747542 0.857832 -0.820099
C144  C     C_3   0.899744 0.377365 0.388049 0.082410
C145  C     C_3   0.883658 0.340764 0.428932 -0.377805
C146  C     C_R   0.786653 0.753557 0.285871 0.298817
C147  C     C_3   0.918561 0.327521 0.474257 -0.861067
C148  C     C_3   0.694418 0.929563 0.644845 0.102979
C149  C     C_3   0.738925 0.950493 0.658123 -0.386687
C150  C     C_3   0.769960 0.946446 0.605207 -0.840520
C151  C     C_3   0.366603 0.108026 0.398121 0.126533
C152  C     C_3   0.394824 0.089923 0.448856 -0.306418
C153  C     C_3   0.367123 0.067378 0.496327 -0.995100
C154  C     C_3   0.887217 0.397927 0.612906 0.098839
C155  C     C_3   0.845441 0.388713 0.577329 -0.359535
C156  C     C_3   0.836616 0.424303 0.530949 -0.913730
C157  C     C_R   0.226533 0.259798 0.699035 0.308430
C158  C     C_3   0.154522 0.553372 0.347959 0.034849
C159  C     C_3   0.186722 0.568249 0.396143 -0.322036
C160  C     C_3   0.174733 0.549552 0.457060 -0.917834
C161  C     C_3   0.318692 0.067317 0.651712 0.093082
C162  C     C_3   0.271092 0.054319 0.640056 -0.342760
C163  C     C_3   0.261331 0.052182 0.573407 -0.868430
C164  C     C_3   0.657014 0.908087 0.388560 0.083490
C165  C     C_3   0.665007 0.886490 0.449183 -0.304989
C166  C     C_3   0.703752 0.907420 0.481051 -0.897618
C167  C     C_3   0.952192 0.694153 0.231813 0.076971
C168  C     C_R   0.263255 0.231428 0.698159 0.294244
C169  C     C_3   0.955899 0.740093 0.204600 -0.348161
C170  C     C_3   0.990682 0.767276 0.236359 -0.808349
C171  C     C_3   0.140344 0.410632 0.617529 0.077706
C172  C     C_3   0.132702 0.452265 0.580795 -0.345015
C173  C     C_3   0.112456 0.441855 0.520237 -0.911789
C174  C     C_3   0.365119 0.904401 0.387443 0.129090
C175  C     C_3   0.367110 0.944044 0.429043 -0.332886
C176  C     C_3   0.395673 0.934684 0.483511 -0.920259
C177  C     C_3   0.552167 0.182240 0.686349 0.061284
C178  C     C_3   0.502457 0.185006 0.680555 -0.288023
C179  C     C_R   0.756669 0.788360 0.276949 0.307392
C180  C     C_3   0.488372 0.192850 0.616148 -0.911716
C181  C     C_3   0.042464 0.306266 0.239310 0.086400
C182  C     C_3   0.996807 0.303842 0.211837 -0.322683
C183  C     C_3   0.965454 0.277927 0.251071 -0.866479
C184  C     C_3   0.853740 0.586930 0.624135 0.095121
C185  C     C_3   0.853621 0.544621 0.587756 -0.348387
C186  C     C_3   0.872813 0.551780 0.525687 -0.905040
C187  C     C_3   0.697357 0.052073 0.303347 0.146862
C188  C     C_3   0.710880 0.003771 0.302391 -0.360509
C189  C     C_3   0.738160 0.991927 0.357214 -0.916873
C190  C     C_R   0.747775 0.281834 0.701164 0.302035
C191  C     C_3   0.312684 0.927939 0.644041 0.105922
C192  C     C_3   0.295272 0.914283 0.582741 -0.395349
C193  C     C_3   0.246731 0.924920 0.575630 -0.824758
C194  C     C_R   0.240638 0.726401 0.311385 0.302840
C195  C     C_R   0.734388 0.767928 0.706662 0.297040
C196  C     C_R   0.118121 0.382069 0.250483 -0.202136
C197  C     C_R   0.243396 0.210655 0.284445 0.296006
C198  C     C_R   0.205255 0.761048 0.747198 0.301271
C199  C     C_R   0.782255 0.246784 0.292891 0.296663
C200  C     C_R   0.261859 0.704180 0.759783 0.300228
C201  C     C_R   0.752399 0.281685 0.202690 0.306889
C202  C     C_R   0.743451 0.771534 0.815291 0.322048
C203  C     C_R   0.289937 0.257748 0.221772 0.302252
C204  C     C_R   0.782536 0.250621 0.790712 0.304967
C205  C     C_R   0.230338 0.735511 0.203335 0.296966
C206  C     C_R   0.269664 0.239162 0.807011 0.326017
C207  C     C_R   0.883174 0.618467 0.751021 -0.205471
C208  C     C_R   0.703766 0.735514 0.236220 0.298486
C209  C     C_R   0.738084 0.704649 0.229253 0.301125
C210  C     C_R   0.242022 0.276380 0.804294 0.218097
C211  C     C_R   0.257431 0.772964 0.205036 0.299987
C212  C     C_R   0.746995 0.221173 0.796508 0.297700
C213  C     C_R   0.254519 0.287429 0.215072 0.292563
C214  C     C_R   0.769497 0.733225 0.812724 0.228327
C215  C     C_R   0.722791 0.246250 0.196673 0.299772
C216  C     C_R   0.294487 0.736617 0.752072 0.300244
C217  C     C_R   0.999982 0.499971 0.409972 0.840290
C218  C     C_R   0.381856 0.880754 0.251723 -0.260859
C219  C     C_R   0.999963 0.500017 0.590035 0.829711
C220  C     C_R   0.500003 0.000028 0.409930 0.842860
C221  C     C_R   0.499977 0.000036 0.590064 0.837599
C222  C     C_R   0.500043 0.999969 0.909965 0.839141
C223  C     C_R   0.500009 0.000016 0.090032 0.850574
C224  C     C_R   0.000012 0.499960 0.909929 0.833214
C225  C     C_R   0.999988 0.499980 0.090062 0.846829
C226  C     C_R   0.915986 0.584017 0.250053 0.933082
C227  C     C_R   0.083934 0.416079 0.749958 0.913013
C228  C     C_R   0.584101 0.084120 0.249720 0.925171
C229  C     C_R   0.618272 0.117744 0.750358 -0.231739
C230  C     C_R   0.415678 0.915666 0.750152 0.900464
C231  C     C_R   0.084067 0.415962 0.250099 0.936395
C232  C     C_R   0.916037 0.583881 0.749788 0.910109
C233  C     C_R   0.415774 0.915620 0.250188 0.858361
C234  C     C_R   0.584091 0.084011 0.750075 0.870506
C235  C     C_R   0.083994 0.583975 0.749947 0.911503
C236  C     C_R   0.915914 0.415877 0.250481 0.913297
C237  C     C_R   0.415769 0.084288 0.750110 0.875721
C238  C     C_R   0.583921 0.915600 0.250281 0.921181
C239  C     C_R   0.915419 0.416080 0.749578 0.846533
C240  C     C_R   0.881080 0.616859 0.252144 -0.210551
C241  C     C_R   0.083959 0.583981 0.250045 0.870899
C242  C     C_R   0.585266 0.916729 0.752076 0.841223
C243  C     C_R   0.416022 0.084172 0.250114 0.942997
C244  C     C_1   0.999985 0.499915 0.026688 -0.161454
C245  C     C_1   0.000018 0.499905 0.973293 -0.149367
C246  C     C_1   0.500043 0.000002 0.026688 -0.167251
C247  C     C_1   0.500057 0.999940 0.973308 -0.165423
C248  C     C_1   0.499942 0.000096 0.526690 -0.153853
C249  C     C_1   0.499984 0.000101 0.473296 -0.164492
C250  C     C_1   0.999931 0.500008 0.526698 -0.155913
C251  C     C_R   0.117791 0.382413 0.749851 -0.196360
C252  C     C_1   0.999940 0.499947 0.473320 -0.163103
C253  C     C_R   0.606106 0.162710 0.242275 0.368501
C254  C     C_R   0.379063 0.851097 0.799193 0.379420
C255  C     C_R   0.160338 0.392042 0.271317 0.370769
C256  C     C_R   0.890028 0.655603 0.786742 0.373461
C257  C     C_R   0.383652 0.844852 0.211652 0.407922
C258  C     C_R   0.662796 0.105461 0.750368 0.385036
C259  C     C_R   0.841806 0.607284 0.282085 0.362508
C260  C     C_R   0.114194 0.346122 0.788196 0.374167
C261  C     C_R   0.391494 0.161392 0.771666 0.370067
C262  C     C_R   0.381397 0.118601 0.751333 -0.227609
C263  C     C_R   0.628005 0.857822 0.198731 0.378308
C264  C     C_R   0.848819 0.380418 0.794374 0.410815
C265  C     C_R   0.109925 0.659937 0.232868 0.379482
C266  C     C_R   0.620557 0.850765 0.800751 0.415045
C267  C     C_R   0.361576 0.131075 0.197495 0.377654
C268  C     C_R   0.150189 0.618154 0.705827 0.387251
C269  C     C_R   0.878383 0.354178 0.199220 0.388601
C270  C     C_R   0.118179 0.649528 0.795635 0.389319
C271  C     C_R   0.859056 0.371230 0.302376 0.358194
C272  C     C_R   0.661973 0.892199 0.726145 0.400805
H1    H     H_    0.629411 0.229394 0.242870 0.183167
H2    H     H_    0.672176 0.810862 0.158973 0.179505
H3    H     H_    0.653513 0.057340 0.838357 0.118637
H4    H     H_    0.712273 0.061563 0.826751 0.185777
H5    H     H_    0.653722 0.983601 0.791289 0.242244
H6    H     H_    0.712208 0.986852 0.780867 0.249534
H7    H     H_    0.722312 0.992695 0.891530 0.294841
H8    H     H_    0.693638 0.943338 0.870597 0.280621
H9    H     H_    0.663533 0.988981 0.901423 0.255500
H10   H     H_    0.823210 0.535791 0.233395 0.159731
H11   H     H_    0.776439 0.552486 0.278152 0.183594
H12   H     H_    0.844650 0.482360 0.313656 0.242285
H13   H     H_    0.791124 0.346601 0.826169 0.169800
H14   H     H_    0.796751 0.497875 0.355633 0.244409
H15   H     H_    0.749283 0.473995 0.269058 0.276798
H16   H     H_    0.782314 0.430104 0.298985 0.292415
H17   H     H_    0.798265 0.456379 0.230203 0.257173
H18   H     H_    0.102790 0.390540 0.878796 0.161787
H19   H     H_    0.108562 0.334469 0.905409 0.192062
H20   H     H_    0.021471 0.384882 0.890087 0.212528
H21   H     H_    0.027773 0.330093 0.919440 0.243146
H22   H     H_    0.073087 0.359706 0.003691 0.287767
H23   H     H_    0.019477 0.384660 0.000901 0.257106
H24   H     H_    0.134776 0.725467 0.224896 0.188109
H25   H     H_    0.066313 0.414704 0.974117 0.272852
H26   H     H_    0.429168 0.148363 0.870980 0.159633
H27   H     H_    0.419369 0.206950 0.862336 0.173644
H28   H     H_    0.507723 0.160335 0.841664 0.280624
H29   H     H_    0.497346 0.218468 0.836640 0.243145
H30   H     H_    0.474742 0.217511 0.946048 0.281558
H31   H     H_    0.530929 0.201751 0.933274 0.289119
H32   H     H_    0.490830 0.160139 0.948833 0.256520
H33   H     H_    0.576864 0.806501 0.154946 0.166431
H34   H     H_    0.611242 0.814887 0.089968 0.174715
H35   H     H_    0.648101 0.789018 0.827595 0.188124
H36   H     H_    0.522236 0.859059 0.116039 0.260236
H37   H     H_    0.555641 0.869751 0.051831 0.229076
H38   H     H_    0.551319 0.788330 0.025546 0.274851
H39   H     H_    0.499752 0.816929 0.024049 0.257960
H40   H     H_    0.513101 0.781751 0.086454 0.290709
H41   H     H_    0.874847 0.405860 0.923161 0.160616
H42   H     H_    0.849131 0.356897 0.898327 0.158777
H43   H     H_    0.803399 0.445237 0.927774 0.249435
H44   H     H_    0.775523 0.397031 0.901674 0.238996
H45   H     H_    0.802380 0.355428 0.991627 0.301028
H46   H     H_    0.310681 0.170929 0.158483 0.176784
H47   H     H_    0.769783 0.402697 0.011129 0.294831
H48   H     H_    0.828491 0.405143 0.018148 0.231302
H49   H     H_    0.077262 0.625294 0.136203 0.143378
H50   H     H_    0.105098 0.677157 0.124924 0.199605
H51   H     H_    0.005505 0.662869 0.126438 0.245503
H52   H     H_    0.032907 0.715134 0.118447 0.243434
H53   H     H_    0.068962 0.689252 0.025539 0.285218
H54   H     H_    0.010231 0.684465 0.020312 0.269252
H55   H     H_    0.043204 0.636134 0.033580 0.265449
H56   H     H_    0.561614 0.889600 0.905477 0.175026
H57   H     H_    0.206242 0.652014 0.670759 0.185061
H58   H     H_    0.610540 0.909918 0.872532 0.122691
H59   H     H_    0.600214 0.833938 0.962561 0.230524
H60   H     H_    0.650217 0.844199 0.922961 0.286945
H61   H     H_    0.657746 0.917075 0.965663 0.265430
H62   H     H_    0.647931 0.878746 0.025265 0.300221
H63   H     H_    0.604284 0.914209 0.999471 0.255819
H64   H     H_    0.424387 0.127432 0.094647 0.173993
H65   H     H_    0.392252 0.173378 0.118187 0.161010
H66   H     H_    0.363441 0.102176 0.028596 0.233545
H67   H     H_    0.330264 0.147809 0.052783 0.248359
H68   H     H_    0.845024 0.296774 0.163808 0.170529
H69   H     H_    0.385099 0.200410 0.011420 0.309063
H70   H     H_    0.366484 0.162629 0.954950 0.284774
H71   H     H_    0.419287 0.154739 0.988864 0.239688
H72   H     H_    0.156614 0.520261 0.678365 0.176918
H73   H     H_    0.188732 0.552609 0.728225 0.147618
H74   H     H_    0.204443 0.539551 0.593425 0.218972
H75   H     H_    0.235562 0.576249 0.639670 0.264935
H76   H     H_    0.258607 0.513148 0.704219 0.283075
H77   H     H_    0.273699 0.504721 0.627346 0.274797
H78   H     H_    0.227241 0.476096 0.657868 0.283641
H79   H     H_    0.152560 0.704422 0.833149 0.183000
H80   H     H_    0.900431 0.379609 0.066046 0.160798
H81   H     H_    0.854184 0.351387 0.093984 0.177437
H82   H     H_    0.946606 0.313526 0.067442 0.233176
H83   H     H_    0.903615 0.281775 0.100809 0.236495
H84   H     H_    0.856385 0.294380 0.011078 0.304119
H85   H     H_    0.907753 0.268948 0.991565 0.285582
H86   H     H_    0.899623 0.326670 0.977406 0.231216
H87   H     H_    0.021281 0.661365 0.823017 0.185101
H88   H     H_    0.056300 0.694946 0.778599 0.151637
H89   H     H_    0.045270 0.700810 0.915336 0.225559
H90   H     H_    0.804946 0.335366 0.339018 0.186430
H91   H     H_    0.081370 0.734299 0.871459 0.262837
H92   H     H_    0.017415 0.763692 0.813905 0.287591
H93   H     H_    0.011554 0.773216 0.892865 0.274639
H94   H     H_    0.980822 0.729900 0.857753 0.276241
H95   H     H_    0.913703 0.404249 0.415463 0.172056
H96   H     H_    0.926964 0.363893 0.360657 0.161458
H97   H     H_    0.853245 0.351082 0.451923 0.263693
H98   H     H_    0.876417 0.311869 0.401177 0.277624
H99   H     H_    0.947932 0.314484 0.451032 0.262273
H100  H     H_    0.905451 0.301576 0.504064 0.298395
H101  H     H_    0.726741 0.864921 0.708996 0.166196
H102  H     H_    0.928265 0.356114 0.501725 0.260385
H103  H     H_    0.678350 0.949106 0.609125 0.177283
H104  H     H_    0.697718 0.895931 0.626415 0.165481
H105  H     H_    0.734085 0.985819 0.668610 0.256540
H106  H     H_    0.754222 0.934686 0.697616 0.231571
H107  H     H_    0.775473 0.911358 0.594043 0.289047
H108  H     H_    0.801929 0.961515 0.616636 0.283109
H109  H     H_    0.756247 0.963808 0.565824 0.264150
H110  H     H_    0.348482 0.080194 0.377340 0.155047
H111  H     H_    0.342803 0.131983 0.416943 0.176347
H112  H     H_    0.342656 0.798101 0.839050 0.176068
H113  H     H_    0.331567 0.189185 0.346201 0.179369
H114  H     H_    0.418677 0.065917 0.430617 0.243349
H115  H     H_    0.413388 0.117191 0.469800 0.231922
H116  H     H_    0.344168 0.091351 0.516622 0.276545
H117  H     H_    0.388732 0.054010 0.531842 0.269226
H118  H     H_    0.348263 0.039910 0.476513 0.270427
H119  H     H_    0.914148 0.405985 0.581585 0.174451
H120  H     H_    0.882315 0.427707 0.640823 0.104718
H121  H     H_    0.848127 0.356292 0.555243 0.265260
H122  H     H_    0.817332 0.387795 0.608405 0.264822
H123  H     H_    0.830240 0.456037 0.553402 0.262363
H124  H     H_    0.841567 0.300050 0.659845 0.189192
H125  H     H_    0.807327 0.415445 0.504267 0.297936
H126  H     H_    0.864971 0.427930 0.500457 0.259335
H127  H     H_    0.150647 0.517193 0.350867 0.197278
H128  H     H_    0.121582 0.567720 0.356760 0.129813
H129  H     H_    0.220440 0.557625 0.384373 0.247219
H130  H     H_    0.186017 0.604555 0.398823 0.261349
H131  H     H_    0.140908 0.559347 0.469508 0.270153
H132  H     H_    0.197739 0.562515 0.490986 0.282100
H133  H     H_    0.177237 0.513179 0.456621 0.265040
H134  H     H_    0.340503 0.042458 0.630949 0.168935
H135  H     H_    0.226204 0.628425 0.288809 0.183080
H136  H     H_    0.325837 0.099128 0.628802 0.149272
H137  H     H_    0.264501 0.021784 0.660537 0.223158
H138  H     H_    0.248701 0.078608 0.660778 0.253501
H139  H     H_    0.266378 0.084815 0.552439 0.304813
H140  H     H_    0.226726 0.042390 0.566469 0.284210
H141  H     H_    0.282898 0.027637 0.551525 0.246461
H142  H     H_    0.647203 0.942796 0.395925 0.173626
H143  H     H_    0.688201 0.908971 0.362730 0.160236
H144  H     H_    0.635252 0.889933 0.477287 0.227763
H145  H     H_    0.671790 0.850962 0.443344 0.252618
H146  H     H_    0.272376 0.133731 0.724651 0.172170
H147  H     H_    0.733641 0.905641 0.453018 0.307679
H148  H     H_    0.710254 0.889404 0.523079 0.287485
H149  H     H_    0.696430 0.942286 0.491500 0.240027
H150  H     H_    0.985179 0.678847 0.233352 0.211762
H151  H     H_    0.941117 0.696874 0.279202 0.153691
H152  H     H_    0.964307 0.737545 0.156615 0.230361
H153  H     H_    0.923971 0.757301 0.207947 0.259180
H154  H     H_    0.982414 0.770780 0.284329 0.282926
H155  H     H_    0.992257 0.800463 0.215977 0.276236
H156  H     H_    0.023309 0.751425 0.232057 0.277306
H157  H     H_    0.680122 0.821946 0.349022 0.177198
H158  H     H_    0.108457 0.393018 0.621460 0.159233
H159  H     H_    0.164190 0.389194 0.593822 0.192251
H160  H     H_    0.110335 0.474595 0.605487 0.220270
H161  H     H_    0.164368 0.469352 0.573859 0.230987
H162  H     H_    0.134674 0.420392 0.494030 0.280402
H163  H     H_    0.106993 0.472795 0.495059 0.258412
H164  H     H_    0.080418 0.425227 0.526059 0.272491
H165  H     H_    0.399244 0.893035 0.378474 0.131509
H166  H     H_    0.346769 0.877581 0.410064 0.166438
H167  H     H_    0.380787 0.972672 0.404682 0.267373
H168  H     H_    0.856332 0.719298 0.201584 0.174524
H169  H     H_    0.333460 0.952700 0.443748 0.212053
H170  H     H_    0.383490 0.905423 0.507905 0.279550
H171  H     H_    0.394994 0.963377 0.513961 0.276216
H172  H     H_    0.430048 0.928674 0.469629 0.268073
H173  H     H_    0.563887 0.154953 0.657184 0.128234
H174  H     H_    0.566734 0.213690 0.670806 0.199189
H175  H     H_    0.487894 0.153699 0.696376 0.245677
H176  H     H_    0.490030 0.212295 0.708715 0.266673
H177  H     H_    0.502130 0.224232 0.599368 0.288847
H178  H     H_    0.452098 0.194672 0.613779 0.282157
H179  H     H_    0.215970 0.359277 0.685717 0.181317
H180  H     H_    0.499697 0.165478 0.587324 0.254603
H181  H     H_    0.039738 0.321326 0.284475 0.158682
H182  H     H_    0.055987 0.272420 0.243487 0.176662
H183  H     H_    0.983780 0.337642 0.205804 0.257598
H184  H     H_    0.998851 0.287955 0.167346 0.235716
H185  H     H_    0.978379 0.244368 0.259391 0.278831
H186  H     H_    0.933424 0.275125 0.228071 0.295291
H187  H     H_    0.960545 0.295023 0.294267 0.255064
H188  H     H_    0.887933 0.599704 0.625393 0.145834
H189  H     H_    0.832254 0.611541 0.601749 0.190876
H190  H     H_    0.287281 0.853503 0.324048 0.190318
H191  H     H_    0.873278 0.519176 0.611319 0.209591
H192  H     H_    0.819436 0.532647 0.583453 0.243981
H193  H     H_    0.853457 0.576800 0.500977 0.291216
H194  H     H_    0.871987 0.520529 0.500334 0.263007
H195  H     H_    0.907374 0.562772 0.529033 0.267501
H196  H     H_    0.675993 0.057973 0.342803 0.152629
H197  H     H_    0.727642 0.071996 0.307607 0.177926
H198  H     H_    0.681189 0.982797 0.300906 0.228755
H199  H     H_    0.730580 0.997225 0.261713 0.249057
H200  H     H_    0.767556 0.013203 0.360025 0.297801
H201  H     H_    0.630165 0.228849 0.751862 0.185379
H202  H     H_    0.749316 0.957327 0.354082 0.282605
H203  H     H_    0.718362 0.995917 0.398359 0.258808
H204  H     H_    0.318981 0.963766 0.643075 0.161499
H205  H     H_    0.287351 0.922974 0.679243 0.170092
H206  H     H_    0.313841 0.931948 0.547731 0.223805
H207  H     H_    0.300119 0.878507 0.575854 0.257589
H208  H     H_    0.227008 0.904563 0.606592 0.311021
H209  H     H_    0.236272 0.917662 0.529279 0.276896
H210  H     H_    0.240436 0.960082 0.584970 0.259030
H211  H     H_    0.134585 0.275327 0.211265 0.179037
H212  H     H_    0.224369 0.366297 0.291469 0.175026
H213  H     H_    0.781845 0.642470 0.697574 0.195140
H214  H     H_    0.729024 0.129958 0.243106 0.173923
H215  H     H_    0.296503 0.840636 0.668317 0.175712
H216  H     H_    0.671091 0.162317 0.398532 0.377607
H217  H     H_    0.254639 0.903593 0.817719 0.382262
H218  H     H_    0.133736 0.294198 0.393872 0.381982
H219  H     H_    0.865029 0.709624 0.611540 0.378134
H220  H     H_    0.382906 0.780867 0.375328 0.375201
H221  H     H_    0.661312 0.173139 0.594798 0.377088
H222  H     H_    0.875255 0.714668 0.382400 0.380104
H223  H     H_    0.865749 0.719200 0.811334 0.183148
H224  H     H_    0.123285 0.286164 0.624978 0.378618
H225  H     H_    0.349428 0.187030 0.602060 0.367503
H226  H     H_    0.750276 0.907805 0.258060 0.371223
H227  H     H_    0.744492 0.398695 0.659770 0.384838
H228  H     H_    0.158241 0.685355 0.417172 0.382375
H229  H     H_    0.634403 0.799259 0.627196 0.378522
H230  H     H_    0.254805 0.091365 0.294925 0.381791
H231  H     H_    0.097347 0.741424 0.681926 0.379038
H232  H     H_    0.897765 0.244166 0.339904 0.382335
H233  H     H_    0.240333 0.594930 0.820233 0.379111
H234  H     H_    0.354936 0.783308 0.186224 0.175660
H235  H     H_    0.769425 0.396457 0.160321 0.372494
H236  H     H_    0.730061 0.869960 0.908474 0.379910
H237  H     H_    0.410027 0.251795 0.214224 0.375524
H238  H     H_    0.896074 0.270447 0.834448 0.374651
H239  H     H_    0.189442 0.649979 0.103016 0.376761
H240  H     H_    0.292215 0.150470 0.913394 0.379282
H241  H     H_    0.584968 0.745862 0.252280 0.381063
H242  H     H_    0.775794 0.612717 0.137981 0.380021
H243  H     H_    0.256191 0.372548 0.814608 0.356734
H244  H     H_    0.276724 0.879986 0.136040 0.377216
H245  H     H_    0.729281 0.128254 0.746994 0.187090
H246  H     H_    0.681678 0.160534 0.905968 0.377198
H247  H     H_    0.205979 0.368575 0.113901 0.383608
H248  H     H_    0.756794 0.638534 0.840462 0.362118
H249  H     H_    0.663977 0.180311 0.086230 0.377906
H250  H     H_    0.405705 0.755513 0.698072 0.377797
H251  H     H_    0.560375 0.166420 0.149073 0.149379
H252  H     H_    0.568953 0.222218 0.175085 0.173246
H253  H     H_    0.484295 0.168656 0.190704 0.246165
H254  H     H_    0.493216 0.224225 0.215175 0.244118
H255  H     H_    0.507148 0.246696 0.108260 0.295745
H256  H     H_    0.779237 0.632536 0.310172 0.187687
H257  H     H_    0.453338 0.224187 0.119425 0.275092
H258  H     H_    0.495289 0.191026 0.085076 0.260490
H259  H     H_    0.443177 0.803230 0.803913 0.152425
H260  H     H_    0.416176 0.789608 0.873659 0.167496
H261  H     H_    0.495212 0.851095 0.857394 0.275115
H262  H     H_    0.468710 0.839402 0.927200 0.212984
H263  H     H_    0.487140 0.759659 0.916154 0.266971
H264  H     H_    0.535431 0.793476 0.913888 0.276996
H265  H     H_    0.513694 0.771272 0.845625 0.286099
H266  H     H_    0.179156 0.485577 0.235995 0.214289
H267  H     H_    0.143045 0.284881 0.815359 0.180548
H268  H     H_    0.206380 0.436948 0.211365 0.153863
H269  H     H_    0.229953 0.488738 0.325299 0.242072
H270  H     H_    0.258020 0.441057 0.297368 0.236695
H271  H     H_    0.276795 0.481910 0.203682 0.283090
H272  H     H_    0.296926 0.509510 0.269294 0.271122
H273  H     H_    0.248670 0.529977 0.232032 0.282012
H274  H     H_    0.892941 0.613080 0.878193 0.176221
H275  H     H_    0.897928 0.668810 0.905627 0.204012
H276  H     H_    0.974597 0.604117 0.887480 0.223338
H277  H     H_    0.977402 0.657952 0.920551 0.227944
H278  H     H_    0.367695 0.227396 0.782840 0.175019
H279  H     H_    0.928019 0.633687 0.002934 0.283247
H280  H     H_    0.975908 0.599138 0.997837 0.256876
H281  H     H_    0.924338 0.579654 0.969584 0.275811
H282  H     H_    0.427435 0.881300 0.098021 0.170868
H283  H     H_    0.370732 0.876438 0.116173 0.129341
H284  H     H_    0.430488 0.803538 0.064892 0.230776
H285  H     H_    0.374436 0.795889 0.085116 0.265941
H286  H     H_    0.350931 0.852361 0.011190 0.291205
H287  H     H_    0.382721 0.809652 0.976154 0.273960
H288  H     H_    0.407473 0.862207 0.991335 0.251157
O1    O     O_3   1.000000 0.500000 0.250000 -0.495800
O2    O     O_R   0.000000 0.463680 0.618090 -0.650759
O3    O     O_3   0.874908 0.253081 0.310947 -0.615499
O4    O     O_2   0.281832 0.621859 0.726387 -0.299589
O5    O     O_2   0.317457 0.648593 0.817196 -0.163244
O6    O     O_3   0.236164 0.627077 0.823640 -0.561501
O7    O     O_2   0.773866 0.323053 0.101067 -0.320995
O8    O     O_2   0.699992 0.336453 0.139192 -0.174389
O9    O     O_3   0.764248 0.374542 0.192186 -0.587302
O10   O     O_2   0.704114 0.784424 0.920950 -0.282244
O11   O     O_2   0.782763 0.798881 0.916302 -0.193941
O12   O     O_3   0.730698 0.855769 0.868792 -0.603148
O13   O     O_R   0.536320 0.000000 0.381910 -0.630872
O14   O     O_2   0.347757 0.253238 0.131657 -0.294207
O15   O     O_2   0.350619 0.319452 0.193449 -0.174533
O16   O     O_3   0.382529 0.248012 0.236954 -0.575603
O17   O     O_2   0.822707 0.274071 0.892280 -0.321889
O18   O     O_2   0.836832 0.199342 0.856952 -0.171635
O19   O     O_3   0.875040 0.263017 0.802411 -0.563483
O20   O     O_2   0.170257 0.733591 0.115528 -0.296842
O21   O     O_2   0.246486 0.721669 0.085995 -0.175070
O22   O     O_3   0.206437 0.658298 0.138858 -0.577880
O23   O     O_2   0.329351 0.234965 0.895172 -0.291294
O24   O     O_R   0.463680 0.000000 0.618090 -0.647183
O25   O     O_2   0.252620 0.225905 0.924424 -0.185978
O26   O     O_3   0.290855 0.161185 0.871729 -0.588860
O27   O     O_2   0.635442 0.729481 0.161018 -0.298906
O28   O     O_2   0.641306 0.672243 0.237505 -0.164791
O29   O     O_3   0.614517 0.748753 0.270022 -0.566396
O30   O     O_2   0.716973 0.619322 0.221244 -0.295444
O31   O     O_2   0.698155 0.665215 0.135105 -0.150425
O32   O     O_3   0.779014 0.643877 0.149663 -0.558497
O33   O     O_2   0.202115 0.302065 0.905350 -0.234102
O34   O     O_2   0.281078 0.314488 0.900178 -0.164198
O35   O     O_R   0.500000 0.963680 0.881910 -0.657791
O36   O     O_3   0.230521 0.365867 0.839965 -0.546048
O37   O     O_2   0.290639 0.800177 0.100298 -0.302978
O38   O     O_2   0.212450 0.813311 0.116012 -0.169555
O39   O     O_3   0.267037 0.863037 0.171334 -0.565897
O40   O     O_2   0.759755 0.147856 0.861061 -0.291463
O41   O     O_2   0.754913 0.216594 0.917269 -0.151060
O42   O     O_3   0.683561 0.184081 0.875592 -0.573321
O43   O     O_2   0.273647 0.370559 0.184804 -0.302960
O44   O     O_2   0.282375 0.315396 0.106270 -0.135183
O45   O     O_3   0.204181 0.339490 0.133516 -0.560208
O46   O     O_R   0.500000 0.036320 0.118090 -0.641417
O47   O     O_2   0.818518 0.715376 0.909919 -0.243293
O48   O     O_2   0.739817 0.703480 0.919600 -0.171529
O49   O     O_3   0.784643 0.647015 0.859879 -0.554596
O50   O     O_2   0.650513 0.258877 0.130279 -0.297453
O51   O     O_2   0.719807 0.253655 0.075817 -0.152282
O52   O     O_3   0.686726 0.182353 0.117582 -0.568809
O53   O     O_2   0.375083 0.719235 0.794094 -0.302369
O54   O     O_2   0.352597 0.678314 0.705287 -0.159994
O55   O     O_3   0.373818 0.759410 0.691967 -0.565595
O56   O     O_3   0.562353 0.174719 0.241469 -0.620465
O57   O     O_R   0.963680 0.500000 0.881910 -0.640513
O58   O     O_3   0.408279 0.854136 0.846263 -0.619530
O59   O     O_3   0.169571 0.433575 0.292538 -0.659949
O60   O     O_3   0.926443 0.658132 0.823178 -0.674175
O61   O     O_3   0.416790 0.841139 0.169972 -0.609534
O62   O     O_3   0.674782 0.061720 0.749602 -0.610491
O63   O     O_3   0.837515 0.568262 0.312994 -0.637833
O64   O     O_3   0.077551 0.341045 0.823609 -0.637946
O65   O     O_3   0.434236 0.172821 0.784412 -0.647899
O66   O     O_3   0.607083 0.868629 0.145768 -0.634161
O67   O     O_3   0.849135 0.411869 0.839237 -0.594749
O68   O     O_R   0.036320 0.500000 0.118090 -0.635213
O69   O     O_3   0.070789 0.670393 0.205295 -0.658887
O70   O     O_3   0.587417 0.847760 0.842709 -0.625957
O71   O     O_3   0.371352 0.109353 0.144987 -0.633684
O72   O     O_3   0.150839 0.586356 0.661983 -0.638487
O73   O     O_3   0.908021 0.360492 0.152740 -0.659426
O74   O     O_3   0.086311 0.649539 0.839290 -0.638548
O75   O     O_3   0.864927 0.395425 0.353936 -0.656892
O76   O     O_3   0.667416 0.931913 0.695871 -0.621612
O77   O     O_3   0.394187 0.128817 0.356285 -0.637918
O78   O     O_3   0.900572 0.360614 0.646349 -0.601538
O79   O     O_R   0.500000 0.036320 0.881910 -0.641919
O80   O     O_3   0.170807 0.563109 0.290359 -0.654190
O81   O     O_3   0.327097 0.067262 0.713919 -0.616686
O82   O     O_3   0.622139 0.886705 0.358897 -0.624099
O83   O     O_3   0.925424 0.667433 0.195260 -0.657742
O84   O     O_3   0.157295 0.422366 0.673926 -0.670146
O85   O     O_3   0.343705 0.916792 0.334110 -0.602411
O86   O     O_3   0.563176 0.174980 0.746787 -0.636910
O87   O     O_3   0.069057 0.331844 0.201561 -0.639163
O88   O     O_3   0.837891 0.577862 0.682006 -0.630180
O89   O     O_3   0.674606 0.062182 0.250159 -0.629196
O90   O     O_R   0.500000 0.963680 0.118090 -0.653873
O91   O     O_3   0.353073 0.906464 0.655585 -0.613664
O92   O     O_R   0.036320 0.500000 0.881910 -0.630816
O93   O     O_3   0.000000 0.500000 0.750000 -0.507866
O94   O     O_R   0.963680 0.500000 0.118090 -0.632672
O95   O     O_R   0.948950 0.587490 0.284490 -0.638447
O96   O     O_R   0.051050 0.412510 0.715510 -0.632528
O97   O     O_R   0.587490 0.051050 0.284490 -0.631425
O98   O     O_R   0.412510 0.948950 0.715510 -0.599256
O99   O     O_R   0.051050 0.412510 0.284490 -0.652519
O100  O     O_R   0.948950 0.587490 0.715510 -0.649297
O101  O     O_R   0.412510 0.948950 0.284490 -0.609502
O102  O     O_R   0.587490 0.051050 0.715510 -0.605436
O103  O     O_R   0.051050 0.587490 0.715510 -0.630182
O104  O     O_3   0.500000 0.000000 0.250000 -0.498348
O105  O     O_R   0.948950 0.412510 0.284490 -0.672961
O106  O     O_R   0.412510 0.051050 0.715510 -0.622208
O107  O     O_R   0.587490 0.948950 0.284490 -0.632641
O108  O     O_R   0.948950 0.412510 0.715510 -0.609214
O109  O     O_R   0.051050 0.587490 0.284490 -0.636981
O110  O     O_R   0.587490 0.948950 0.715510 -0.587471
O111  O     O_R   0.412510 0.051050 0.284490 -0.635689
O112  O     O_R   0.448950 0.087490 0.784490 -0.626654
O113  O     O_R   0.551050 0.912510 0.215510 -0.617708
O114  O     O_R   0.087490 0.551050 0.784490 -0.631734
O115  O     O_3   0.500000 0.000000 0.750000 -0.502019
O116  O     O_R   0.912510 0.448950 0.215510 -0.627915
O117  O     O_R   0.551050 0.912510 0.784490 -0.638817
O118  O     O_R   0.448950 0.087490 0.215510 -0.649585
O119  O     O_R   0.912510 0.448950 0.784490 -0.587016
O120  O     O_R   0.087490 0.551050 0.215510 -0.635272
O121  O     O_R   0.551050 0.087490 0.215510 -0.635670
O122  O     O_R   0.448950 0.912510 0.784490 -0.613948
O123  O     O_R   0.912510 0.551050 0.215510 -0.648837
O124  O     O_R   0.087490 0.448950 0.784490 -0.645958
O125  O     O_R   0.448950 0.912510 0.215510 -0.617663
O126  O     O_R   0.000000 0.463680 0.381910 -0.651309
O127  O     O_R   0.551050 0.087490 0.784490 -0.631332
O128  O     O_R   0.087490 0.448950 0.215510 -0.635474
O129  O     O_R   0.912510 0.551050 0.784490 -0.627948
O130  O     O_2   0.750967 0.147240 0.363508 -0.303525
O131  O     O_2   0.745132 0.216802 0.417395 -0.142496
O132  O     O_3   0.675454 0.186085 0.368971 -0.565895
O133  O     O_2   0.218616 0.875312 0.719545 -0.317293
O134  O     O_2   0.179157 0.849552 0.807866 -0.165812
O135  O     O_3   0.259966 0.871577 0.820510 -0.563211
O136  O     O_2   0.130606 0.226633 0.321234 -0.293397
O137  O     O_R   0.000000 0.536320 0.618090 -0.630162
O138  O     O_2   0.185930 0.218051 0.399687 -0.142324
O139  O     O_3   0.161739 0.296398 0.371876 -0.567952
O140  O     O_2   0.781781 0.693365 0.602638 -0.283776
O141  O     O_2   0.795884 0.772291 0.596145 -0.169897
O142  O     O_3   0.853725 0.723828 0.648125 -0.568173
O143  O     O_2   0.303204 0.792929 0.410494 -0.302763
O144  O     O_2   0.318683 0.714355 0.400878 -0.161483
O145  O     O_3   0.366664 0.768093 0.341318 -0.568199
O146  O     O_2   0.646034 0.252024 0.634237 -0.300470
O147  O     O_2   0.714279 0.249014 0.577113 -0.140657
O148  O     O_R   0.463680 0.000000 0.381910 -0.665270
O149  O     O_3   0.685802 0.177128 0.623223 -0.565518
O150  O     O_2   0.871400 0.775007 0.299893 -0.308345
O151  O     O_2   0.822652 0.791917 0.383432 -0.155398
O152  O     O_3   0.844946 0.711197 0.367461 -0.559491
O153  O     O_2   0.204156 0.299377 0.596182 -0.291489
O154  O     O_2   0.189294 0.220544 0.602759 -0.152624
O155  O     O_3   0.138314 0.273038 0.659877 -0.561433
O156  O     O_2   0.266031 0.170575 0.611582 -0.304801
O157  O     O_2   0.279024 0.246587 0.580678 -0.166823
O158  O     O_3   0.341063 0.206107 0.635919 -0.585614
O159  O     O_R   0.536320 0.000000 0.618090 -0.633083
O160  O     O_2   0.762399 0.857095 0.351564 -0.313099
O161  O     O_2   0.820965 0.849782 0.277730 -0.178407
O162  O     O_3   0.745966 0.878003 0.241565 -0.574666
O163  O     O_2   0.764779 0.322727 0.597670 -0.283690
O164  O     O_2   0.690803 0.331742 0.637826 -0.185891
O165  O     O_3   0.753140 0.375013 0.687727 -0.590506
O166  O     O_2   0.242704 0.666090 0.398711 -0.295114
O167  O     O_2   0.228200 0.741900 0.429096 -0.177783
O168  O     O_3   0.165707 0.699241 0.378560 -0.579740
O169  O     O_2   0.717095 0.815057 0.607768 -0.318307
O170  O     O_R   0.000000 0.536320 0.381910 -0.631368
O171  O     O_2   0.701378 0.736433 0.603159 -0.174791
O172  O     O_3   0.648308 0.785571 0.662555 -0.569275
O173  O     O_2   0.249334 0.152862 0.374703 -0.289073
O174  O     O_2   0.182525 0.149435 0.314306 -0.166982
O175  O     O_3   0.253370 0.117894 0.269418 -0.566649
O176  O     O_2   0.122581 0.780227 0.779177 -0.301421
O177  O     O_2   0.150609 0.818146 0.690779 -0.172888
O178  O     O_3   0.129422 0.736802 0.680173 -0.562753
O179  O     O_2   0.820600 0.256656 0.399758 -0.270585
O180  O     O_2   0.831760 0.186387 0.349468 -0.193887
S1    S     S_3+6 0.730056 0.191934 0.363478 0.091590
S2    S     S_3+6 0.772780 0.844190 0.288502 0.069990
S3    S     S_3+6 0.738461 0.328124 0.653723 0.068922
S4    S     S_3+6 0.220001 0.708091 0.381739 0.073837
S5    S     S_3+6 0.700570 0.776288 0.642465 0.074139
S6    S     S_3+6 0.231071 0.157061 0.312695 0.085461
S7    S     S_3+6 0.150838 0.775611 0.724722 0.083387
S8    S     S_3+6 0.827709 0.235095 0.340415 0.063669
S9    S     S_3+6 0.275875 0.649306 0.781412 0.087522
S10   S     S_3+6 0.746993 0.329299 0.156464 0.068918
S11   S     S_3+6 0.740291 0.802343 0.882796 0.064626
S12   S     S_3+6 0.222255 0.848625 0.775704 0.083937
S13   S     S_3+6 0.343359 0.270706 0.193999 0.076540
S14   S     S_3+6 0.829612 0.246107 0.837959 0.073392
S15   S     S_3+6 0.213016 0.712979 0.133551 0.074665
S16   S     S_3+6 0.285960 0.216062 0.877051 0.067223
S17   S     S_3+6 0.647866 0.720182 0.224661 0.084306
S18   S     S_3+6 0.731533 0.657185 0.183127 0.094657
S19   S     S_3+6 0.239253 0.314489 0.864885 0.100856
S20   S     S_3+6 0.256549 0.812283 0.145625 0.081729
S21   S     S_3+6 0.737469 0.191818 0.864553 0.089330
S22   S     S_3+6 0.255078 0.329176 0.158696 0.095945
S23   S     S_3+6 0.171959 0.245300 0.347104 0.094629
S24   S     S_3+6 0.778107 0.700199 0.877897 0.092673
S25   S     S_3+6 0.694367 0.236464 0.128102 0.088135
S26   S     S_3+6 0.350090 0.721849 0.736433 0.086999
S27   S     S_3+6 0.800113 0.732351 0.635072 0.087059
S28   S     S_3+6 0.316333 0.757224 0.367883 0.083354
S29   S     S_3+6 0.690892 0.231785 0.631136 0.092786
S30   S     S_3+6 0.832509 0.759442 0.334927 0.090206
S31   S     S_3+6 0.189774 0.262919 0.636877 0.092159
S32   S     S_3+6 0.286656 0.213379 0.629177 0.072333
Zn1   Zn    Zn3+2 0.948160 0.500000 0.200440 0.997515
Zn2   Zn    Zn3+2 0.551840 0.000000 0.299560 0.997357
Zn3   Zn    Zn3+2 0.000000 0.551840 0.700440 0.989888
Zn4   Zn    Zn3+2 0.000000 0.448160 0.299560 0.964406
Zn5   Zn    Zn3+2 0.551840 0.000000 0.700440 1.002997
Zn6   Zn    Zn3+2 0.448160 0.000000 0.299560 0.982034
Zn7   Zn    Zn3+2 1.000000 0.448160 0.700440 0.989061
Zn8   Zn    Zn3+2 0.000000 0.551840 0.299560 0.994099
Zn9   Zn    Zn3+2 0.051840 0.500000 0.799560 0.994089
Zn10  Zn    Zn3+2 0.500000 0.051840 0.200440 0.987590
Zn11  Zn    Zn3+2 0.500000 0.948160 0.799560 0.964214
Zn12  Zn    Zn3+2 0.051840 0.500000 0.200440 0.996085
Zn13  Zn    Zn3+2 0.948160 0.500000 0.799560 1.002134
Zn14  Zn    Zn3+2 0.500000 0.948160 0.200440 0.986283
Zn15  Zn    Zn3+2 0.500000 0.051840 0.799560 0.965972
Zn16  Zn    Zn3+2 0.448160 0.000000 0.700440 0.989923

loop_
_geom_bond_atom_site_label_1
_geom_bond_atom_site_label_2
_ccdc_geom_bond_type
H235  O9    S    
C74   C194  A    
C224  O92   A    
C126  C127  S    
C266  O70   S    
O173  S6    D    
C134  H73   S    
C269  O73   S    
O33   S19   D    
C41   C61   A    
C124  S28   S    
O119  Zn13  S    
C166  H148  S    
O129  Zn13  S    
H244  O39   S    
O115  Zn15  S    
C77   C168  A    
C150  H108  S    
O179  S8    D    
C34   C67   A    
O163  S3    D    
C121  C122  S    
C99   H281  S    
O93   Zn7   S    
C134  O72   S    
C231  O128  A    
C9    C251  A    
O98   Zn16  S    
C162  H138  S    
C24   C265  A    
C20   C55   A    
C205  C211  A    
O20   S15   D    
C100  H282  S    
O15   S13   D    
C219  O2    A    
C126  H52   S    
C178  H176  S    
C108  C109  S    
C115  H27   S    
O95   Zn8   S    
C7    C42   A    
C229  C234  S    
O105  Zn4   S    
C83   C113  A    
C182  C183  S    
C171  O84   S    
C44   H179  S    
C177  H174  S    
C89   H255  S    
C183  H186  S    
O19   S14   S    
C66   C72   S    
C45   C56   A    
C46   C267  A    
O144  S28   D    
O37   S20   D    
C50   C52   A    
C1    C15   A    
C25   C60   A    
C226  O95   A    
C244  C245  T    
C143  H93   S    
C181  O87   S    
C33   C69   A    
O26   S16   S    
C80   C146  A    
C29   C64   A    
C192  H206  S    
C114  H23   S    
C237  O112  A    
O110  Zn5   S    
H217  O135  S    
C102  H285  S    
C153  H118  S    
C12   C196  A    
C46   C243  S    
C6    O81   S    
C29   H24   S    
C82   C124  A    
C104  C105  S    
C57   C235  S    
O155  S31   S    
C223  C246  S    
C92   H262  S    
C18   C254  A    
C33   H68   S    
C107  H11   S    
C123  H47   S    
C191  C192  S    
C12   O87   S    
O31   S18   D    
C194  S4    S    
C75   C190  A    
C139  H83   S    
C11   O86   S    
C259  O63   S    
C26   C261  A    
O137  Zn3   S    
C224  O57   A    
C217  O170  A    
C115  O65   S    
C22   C258  A    
C147  H102  S    
O54   S26   D    
C59   C80   S    
C234  O127  A    
O145  S28   S    
C38   H113  S    
C251  C260  A    
C222  C247  S    
O172  S5    S    
C17   H1    S    
C175  C176  S    
C85   C90   A    
C136  H74   S    
C133  H69   S    
C204  C212  A    
C93   H265  S    
O112  Zn15  S    
C202  C214  A    
C154  C155  S    
O41   S21   D    
C72   C203  A    
C19   C255  A    
O159  Zn5   S    
C250  C252  T    
C99   H279  S    
C177  H173  S    
C158  C159  S    
C120  H39   S    
C148  O76   S    
O96   Zn7   S    
O48   S24   D    
C55   C83   S    
O52   S25   S    
C43   H168  S    
O150  S30   D    
C227  C251  S    
C105  C106  S    
O8    S10   D    
C233  O101  A    
C164  C165  S    
C93   H264  S    
O38   S20   D    
C227  O124  A    
O117  Zn11  S    
H224  O155  S    
H220  O145  S    
C218  C257  A    
C107  O63   S    
C203  C213  A    
O147  S29   D    
H231  O178  S    
C144  C145  S    
C143  H92   S    
C22   C58   A    
C138  H81   S    
C204  S14   S    
C139  C140  S    
C3    O77   S    
C147  H100  S    
C203  S13   S    
O44   S22   D    
C3    C46   A    
O143  S28   D    
C90   S12   S    
C87   H252  S    
C52   C86   S    
H246  O42   S    
C89   H257  S    
C237  O106  A    
O156  S32   D    
C185  H192  S    
C21   C257  A    
C257  O61   S    
C181  H182  S    
C165  H144  S    
C103  H287  S    
C142  H91   S    
C161  H134  S    
O7    S10   D    
O139  S23   S    
C69   C70   S    
C171  H158  S    
C23   H256  S    
C108  H14   S    
O113  Zn14  S    
C180  H177  S    
C151  O77   S    
C155  H122  S    
C169  H152  S    
C172  H160  S    
C88   C89   S    
C98   C99   S    
C154  O78   S    
C124  C194  A    
C155  C156  S    
O55   S26   S    
C34   C270  A    
C223  O90   A    
C53   C85   S    
C154  H119  S    
O99   Zn4   S    
C149  C150  S    
C191  O91   S    
C76   C208  A    
C19   H212  S    
H239  O22   S    
C175  H169  S    
O148  Zn6   S    
C2    C7    A    
C16   C51   A    
C164  H142  S    
C76   C179  A    
C128  C129  S    
C97   C98   S    
O39   S20   S    
C13   C239  S    
H240  O26   S    
C189  H202  S    
C174  O85   S    
C23   C59   A    
C196  C255  A    
C60   C78   S    
O34   S19   D    
C116  H29   S    
C88   H254  S    
C103  H288  S    
O13   Zn2   S    
O120  Zn12  S    
C261  C262  A    
O135  S12   S    
C101  C197  A    
C225  O94   A    
C226  O123  A    
H222  O152  S    
C115  C116  S    
C133  H71   S    
C215  S25   S    
C180  H178  S    
C184  C185  S    
C174  H165  S    
C176  H171  S    
C190  S3    S    
O123  Zn1   S    
C200  S9    S    
C258  O62   S    
C241  O109  A    
C72   C197  A    
C110  C111  S    
C173  H164  S    
C158  H127  S    
C144  H95   S    
O104  Zn10  S    
C7    O82   S    
C219  C250  S    
C37   C65   A    
C117  H30   S    
C236  O116  A    
C114  H25   S    
C107  C108  S    
C196  C231  S    
C234  O102  A    
O94   Zn1   S    
C78   C210  A    
O9    S10   S    
O27   S17   D    
C43   C59   A    
C183  H187  S    
C229  C258  A    
C241  O120  A    
C145  H97   S    
O121  Zn10  S    
C240  C259  A    
H242  O32   S    
O115  Zn5   S    
C225  O68   A    
C105  H6    S    
O93   Zn3   S    
C170  H156  S    
C10   C45   A    
O1    Zn4   S    
C110  O64   S    
C8    C240  A    
C49   H213  S    
O132  S1    S    
C156  H126  S    
C31   C267  A    
C127  H54   S    
C134  H72   S    
C187  H196  S    
O149  S29   S    
O5    S9    D    
C149  H106  S    
C121  O67   S    
C26   H278  S    
C130  H63   S    
O18   S14   D    
C121  H42   S    
C49   C55   A    
C142  H89   S    
C51   C53   A    
C161  H136  S    
C172  H161  S    
O11   S11   D    
C207  C256  A    
C28   C63   A    
C135  C190  A    
C160  H132  S    
C27   C62   A    
C265  O69   S    
C206  C210  A    
C112  C254  A    
C104  H4    S    
C177  O86   S    
C267  O71   S    
H226  O162  S    
C167  H150  S    
C41   H146  S    
C6    C262  A    
C271  O75   S    
O4    S9    D    
C32   C67   A    
C131  H64   S    
C137  H76   S    
C91   H260  S    
C37   C272  A    
C238  O113  A    
C193  H210  S    
C177  C178  S    
C107  H10   S    
C173  H163  S    
C22   H245  S    
C161  O81   S    
O10   S11   D    
C20   H223  S    
C227  O96   A    
C96   H271  S    
C86   C215  A    
C84   C213  A    
C19   C54   A    
C71   C198  A    
C129  C130  S    
C9    O84   S    
C138  H80   S    
O109  Zn8   S    
O158  S32   S    
C246  C247  T    
C150  H109  S    
C188  H198  S    
C36   H90   S    
C120  H38   S    
C103  H286  S    
C206  S16   S    
C118  O66   S    
C218  C233  S    
C243  O111  A    
C136  C137  S    
C108  H12   S    
O118  Zn10  S    
C166  H149  S    
C56   C82   S    
C164  O82   S    
C125  O69   S    
C232  O129  A    
C180  H180  S    
C235  O114  A    
C228  O97   A    
O146  S29   D    
C36   C69   A    
C212  S21   S    
C68   C269  A    
O68   Zn12  S    
C199  S8    S    
C141  H88   S    
C104  O62   S    
O108  Zn7   S    
C63   C75   S    
C151  H110  S    
C117  H32   S    
C200  C216  A    
C188  H199  S    
H218  O139  S    
O29   S17   S    
O161  S2    D    
C102  C103  S    
C30   C65   A    
C239  O119  A    
C184  H189  S    
C231  O99   A    
C87   O56   S    
C183  H185  S    
C152  C153  S    
H227  O165  S    
C32   H57   S    
C25   C260  A    
C48   H211  S    
C195  S5    S    
C106  H7    S    
C170  H154  S    
C220  O148  A    
C220  C249  S    
C159  H130  S    
C171  H159  S    
C209  S18   S    
O141  S27   D    
C160  H133  S    
C40   H135  S    
O160  S2    D    
H233  O6    S    
C15   O89   S    
C74   C205  A    
C159  H129  S    
C98   H276  S    
C87   C88   S    
O114  Zn9   S    
C111  H21   S    
C189  H200  S    
C153  H117  S    
O171  S5    D    
C11   C47   A    
O28   S17   D    
C8    C43   A    
C35   C272  A    
C12   C48   A    
O166  S4    D    
C83   C214  A    
C54   C84   S    
C161  C162  S    
C130  H61   S    
C109  H17   S    
C181  C182  S    
O45   S22   S    
C1    C228  S    
C10   C218  A    
C122  H43   S    
C165  C166  S    
C132  H67   S    
C167  O83   S    
O90   Zn14  S    
O36   S19   S    
O101  Zn6   S    
H250  O55   S    
C26   C61   A    
C97   H274  S    
C198  S7    S    
C207  C232  S    
C140  H84   S    
C98   H277  S    
C123  H45   S    
O46   Zn10  S    
C118  H33   S    
C112  C230  S    
C220  O13   A    
C157  C168  A    
C208  S17   S    
C79   S1    S    
C18   C53   A    
C109  H16   S    
C137  H78   S    
C148  H103  S    
C182  H183  S    
C57   C268  A    
C208  C209  A    
C230  O122  A    
O170  Zn8   S    
C151  C152  S    
C163  H141  S    
C176  H170  S    
O93   Zn9   S    
C95   H270  S    
C232  O100  A    
O103  Zn3   S    
C33   C269  A    
C150  H107  S    
C128  H58   S    
C14   C207  A    
C178  H175  S    
C120  H40   S    
C91   O58   S    
C62   C76   S    
C131  O71   S    
C166  H147  S    
C145  C147  S    
C1    C253  A    
C81   C135  A    
O115  Zn16  S    
O140  S27   D    
H247  O45   S    
O42   S21   S    
C94   O59   S    
C93   H263  S    
C223  O46   A    
C79   C199  A    
C140  H85   S    
C226  C240  S    
C68   C271  A    
C167  C169  S    
C85   C216  A    
O154  S31   D    
C202  S11   S    
C97   O60   S    
O1    Zn1   S    
O124  Zn9   S    
O16   S13   S    
O104  Zn6   S    
C205  S15   S    
C126  H51   S    
C217  C252  S    
C230  O98   A    
C111  H20   S    
C189  H203  S    
C87   H251  S    
O3    S8    S    
C225  C244  S    
C127  H55   S    
C211  S20   S    
C30   H35   S    
O153  S31   D    
O93   Zn13  S    
C270  O74   S    
O175  S6    S    
C185  H191  S    
C159  C160  S    
C181  H181  S    
O116  Zn1   S    
C174  H166  S    
C8    O83   S    
O162  S2    S    
C186  H195  S    
C24   C241  S    
O12   S11   S    
C179  S2    S    
O35   Zn11  S    
C141  O74   S    
C47   H201  S    
C143  H94   S    
O138  S23   D    
C217  O126  A    
C130  H62   S    
C125  H50   S    
O133  S12   D    
H232  O3    S    
C114  H22   S    
C73   C195  A    
C167  H151  S    
C125  C126  S    
C162  H137  S    
C16   O91   S    
C154  H120  S    
O169  S5    D    
C131  C132  S    
C27   C263  A    
C248  C249  T    
C16   C112  A    
C162  C163  S    
C92   H261  S    
O164  S3    D    
O2    Zn7   S    
O174  S6    D    
C216  S26   S    
C18   H112  S    
C123  H48   S    
O24   Zn16  S    
H221  O149  S    
C242  O110  A    
O6    S9    S    
O79   Zn15  S    
O47   S24   D    
C21   C56   A    
C178  C180  S    
C197  S6    S    
C140  H86   S    
C221  C248  S    
C25   H267  S    
C73   C202  A    
C191  H205  S    
C255  O59   S    
C4    O78   S    
H228  O168  S    
C106  H9    S    
C186  H194  S    
O53   S26   D    
H230  O175  S    
C187  C188  S    
C136  H75   S    
C77   C206  A    
O151  S30   D    
C31   H46   S    
C185  C186  S    
C157  S31   S    
C57   C270  A    
C44   C60   A    
C133  H70   S    
C92   C93   S    
C163  H139  S    
C146  C179  A    
C176  H172  S    
C111  C114  S    
C67   C71   S    
C260  O64   S    
C94   C95   S    
C13   C264  A    
O127  Zn15  S    
C138  C139  S    
C51   H215  S    
O1    Zn12  S    
C81   C212  A    
C158  H128  S    
C96   H273  S    
C144  H96   S    
H229  O172  S    
C151  H111  S    
C99   H280  S    
C119  H37   S    
C5    C40   A    
H243  O36   S    
H236  O12   S    
C64   C74   S    
C142  C143  S    
O104  Zn14  S    
C228  O121  A    
C222  O79   A    
C79   C86   A    
C91   C92   S    
C80   C209  A    
C243  O118  A    
O43   S22   D    
C168  S32   S    
C31   C66   A    
C171  C172  S    
C131  H65   S    
C70   C199  A    
C105  H5    S    
C169  C170  S    
C95   C96   S    
C10   O85   S    
C17   C52   A    
C128  O70   S    
O1    Zn8   S    
C187  H197  S    
O134  S12   D    
C201  S10   S    
C155  H121  S    
C163  H140  S    
C100  H283  S    
C48   C54   A    
O25   S16   D    
C17   C253  A    
C45   H190  S    
C156  H123  S    
C14   O88   S    
C115  H26   S    
C184  H188  S    
C127  H53   S    
C175  H167  S    
O176  S7    D    
O23   S16   D    
C149  H105  S    
C89   H258  S    
C20   C256  A    
C158  O80   S    
C14   C49   A    
C121  H41   S    
C65   C73   S    
O92   Zn9   S    
C94   H268  S    
C239  O108  A    
C15   C50   A    
C210  S19   S    
C4    C13   A    
C39   H124  S    
C201  C215  A    
C68   C236  S    
O30   S18   D    
C174  C175  S    
O107  Zn2   S    
C169  H153  S    
H238  O19   S    
C144  O75   S    
C38   C66   A    
C192  H207  S    
C263  O66   S    
C132  C133  S    
C6    C41   A    
C191  H204  S    
C128  H56   S    
C30   C266  A    
O131  S1    D    
C29   C265  A    
O165  S3    S    
C261  O65   S    
C70   C201  A    
C91   H259  S    
C110  H18   S    
C235  O103  A    
C222  O35   A    
O100  Zn3   S    
C84   C101  A    
C113  C195  A    
C101  S23   S    
C173  H162  S    
C139  H82   S    
C118  C119  S    
C96   H272  S    
C50   H214  S    
O49   S24   S    
C254  O58   S    
C113  S27   S    
C135  S29   S    
C119  H36   S    
C187  O89   S    
O167  S4    D    
O177  S7    D    
O136  S23   D    
C88   H253  S    
C213  S22   S    
C37   H101  S    
C148  C149  S    
C3    C38   A    
O130  S1    D    
C165  H145  S    
C186  H193  S    
C61   C77   S    
C147  H99   S    
C2    C238  S    
C134  C136  S    
C238  O107  A    
C28   C264  A    
O126  Zn4   S    
C42   H157  S    
O111  Zn6   S    
C236  O105  A    
O125  Zn14  S    
O115  Zn11  S    
C188  C189  S    
C221  O159  A    
H248  O49   S    
H241  O29   S    
O22   S15   S    
C141  H87   S    
C78   C157  A    
C152  H115  S    
C4    C39   A    
C148  H104  S    
C253  O56   S    
H225  O158  S    
C117  H31   S    
C100  C102  S    
C219  O137  A    
C233  O125  A    
C119  C120  S    
O106  Zn16  S    
C104  H3    S    
H216  O132  S    
C35   C242  S    
C27   H2    S    
H219  O142  S    
C28   H13   S    
C110  H19   S    
C145  H98   S    
H249  O52   S    
C214  S24   S    
O32   S18   S    
C106  H8    S    
C170  H155  S    
C125  H49   S    
C129  H59   S    
C152  H114  S    
O97   Zn2   S    
C172  C173  S    
O128  Zn12  S    
O14   S13   D    
C82   C211  A    
O104  Zn2   S    
C256  O60   S    
C42   C62   A    
C58   C81   S    
C9    C44   A    
C23   C259  A    
C156  H125  S    
C264  O67   S    
C184  O88   S    
C237  C262  S    
C268  O72   S    
C153  H116  S    
C71   C200  A    
C193  H208  S    
C75   C204  A    
C2    C263  A    
O152  S30   S    
C90   C198  A    
O178  S7    S    
C39   C63   A    
O17   S14   D    
C122  H44   S    
C40   C64   A    
C94   H266  S    
C138  O73   S    
O57   Zn13  S    
C192  C193  S    
O102  Zn5   S    
O21   S15   D    
C132  H66   S    
O51   S25   D    
C160  H131  S    
C141  C142  S    
C47   C58   A    
C102  H284  S    
C129  H60   S    
O142  S27   S    
C5    C24   A    
C116  C117  S    
C118  H34   S    
C5    O80   S    
O168  S4    S    
C36   C271  A    
C32   C268  A    
H237  O16   S    
C35   C266  A    
C272  O76   S    
O180  S8    D    
C146  S30   S    
O122  Zn11  S    
C193  H209  S    
C109  H15   S    
C137  H77   S    
C224  C245  S    
C100  O61   S    
C221  O24   A    
C182  H184  S    
C34   H79   S    
C116  H28   S    
C242  O117  A    
C11   C229  A    
C21   H234  S    
O40   S21   D    
C164  H143  S    
C122  C123  S    
C95   H269  S    
O157  S32   D    
O50   S25   D    
C97   H275  S    
