data_mof_unit_42129.cif
_audit_creation_date              2012-12-10T16:58:25-0500
_audit_creation_method            fapswitch 2.2
_symmetry_space_group_name_H-M    P1
_symmetry_Int_Tables_number       1
_space_group_crystal_system       triclinic
_cell_length_a                    7.919804
_cell_length_b                    8.575626
_cell_length_c                    23.381845
_cell_angle_alpha                 94.113775
_cell_angle_beta                  85.680466
_cell_angle_gamma                 92.431119
_cell_volume                      1578.34643215

loop_
_atom_site_label
_atom_site_type_symbol
_atom_type_description
_atom_site_fract_x
_atom_site_fract_y
_atom_site_fract_z
_atom_type_partial_charge
C1    C     C_R   0.544085 0.793758 0.498705 0.951082
C2    C     C_R   0.455889 0.206088 0.500124 0.957166
C3    C     C_R   0.475392 0.345309 0.756636 0.006173
C4    C     C_R   0.403239 0.653150 0.248832 -0.002148
C5    C     C_R   0.475647 0.350714 0.696788 -0.103612
C6    C     C_R   0.409419 0.639853 0.308038 -0.121749
C7    C     C_R   0.501650 0.495610 0.671836 -0.109735
C8    C     C_R   0.493798 0.513489 0.327875 -0.106201
C9    C     C_R   0.519489 0.635898 0.706518 0.095432
C10   C     C_R   0.570134 0.400190 0.288089 0.119889
C11   C     C_R   0.509355 0.628999 0.765913 -0.101104
C12   C     C_R   0.561479 0.416131 0.229565 -0.134230
C13   C     C_R   0.490970 0.485882 0.790923 0.210834
C14   C     C_R   0.479030 0.540232 0.210165 0.228581
C15   C     C_2   0.567406 0.956791 0.499191 -0.366255
C16   C     C_2   0.432882 0.042699 0.497422 -0.337205
C17   C     C_R   0.501076 0.499916 0.609957 0.865633
C18   C     C_R   0.498530 0.501105 0.389769 0.873861
C19   C     C_R   0.330547 0.489330 0.124529 0.524603
C20   C     C_R   0.633357 0.539951 0.877742 0.510557
C21   C     C_R   0.612187 0.601771 0.118810 0.532697
C22   C     C_R   0.344165 0.447113 0.883169 0.541856
C23   C     C_R   0.617215 0.592821 0.058989 -0.018978
C24   C     C_R   0.338530 0.456237 0.943078 -0.020799
C25   C     C_R   0.475085 0.529621 0.031350 -0.025127
C26   C     C_R   0.481842 0.515926 0.970799 -0.023687
C27   C     C_R   0.327289 0.478945 0.064152 -0.061025
C28   C     C_R   0.631503 0.561938 0.938063 -0.058794
C29   C     C_R   0.762554 0.643457 0.026681 -0.213484
C30   C     C_R   0.191899 0.408433 0.975400 -0.213156
C31   C     C_R   0.771567 0.628807 0.966893 -0.032862
C32   C     C_R   0.184993 0.417569 0.035228 -0.029007
H1    H     H_    0.871069 0.693924 0.048051 0.192952
H2    H     H_    0.081785 0.361960 0.953989 0.193192
H3    H     H_    0.518294 0.735807 0.793422 0.166007
H4    H     H_    0.617538 0.330539 0.198191 0.155824
H5    H     H_    0.695030 0.005863 0.502579 0.179663
H6    H     H_    0.305234 0.993688 0.494046 0.183315
N1    N     N_R   0.471916 0.548018 0.149762 -0.350959
N2    N     N_R   0.490377 0.486874 0.852079 -0.350470
N3    N     N_2   0.950330 0.457950 0.484560 -0.028227
N4    N     N_2   0.049670 0.542050 0.515440 -0.028164
O1    O     O_R   0.389250 0.738570 0.503790 -0.606031
O2    O     O_R   0.610750 0.261430 0.496210 -0.609424
O3    O     O_R   0.678390 0.711620 0.493890 -0.645298
O4    O     O_R   0.321610 0.288380 0.506110 -0.640261
O5    O     O_R   0.355400 0.513520 0.588790 -0.612679
O6    O     O_R   0.644600 0.486480 0.411210 -0.613258
O7    O     O_R   0.644550 0.486570 0.578900 -0.645403
O8    O     O_R   0.355450 0.513430 0.421100 -0.650310
O9    O     O_2   0.195968 0.439635 0.158166 -0.535774
O10   O     O_2   0.775882 0.570732 0.844485 -0.527354
O11   O     O_2   0.747276 0.661357 0.146152 -0.537662
O12   O     O_2   0.204220 0.400591 0.855991 -0.530587
Zn1   Zn    Zn3+2 0.306930 0.518000 0.506610 0.944546
Zn2   Zn    Zn3+2 0.693070 0.482000 0.493390 0.939118
C33   C     C_1   0.925045 0.689119 0.937391 0.294142
N5    N     N_1   0.047983 0.737973 0.914032 -0.152461
C34   C     C_1   0.029795 0.360620 0.064638 0.298682
N6    N     N_1   0.905438 0.314549 0.087939 -0.171584
C35   C     C_1   0.459863 0.197259 0.783103 0.234099
N7    N     N_1   0.447155 0.079324 0.804481 -0.208874
C36   C     C_1   0.320597 0.782178 0.227202 0.218640
N8    N     N_1   0.254663 0.885196 0.209887 -0.170215
C37   C     C_1   0.442580 0.209386 0.661007 0.182011
N9    N     N_1   0.414461 0.097462 0.632193 -0.232159
C38   C     C_1   0.330682 0.757213 0.348089 0.204083
N10   N     N_1   0.267168 0.850515 0.379911 -0.216823
C39   C     C_3   0.546074 0.794703 0.682234 -0.414137
C40   C     C_3   0.718141 0.869254 0.695974 -0.810499
H7    H     H_    0.719484 0.905586 0.742466 0.273244
H8    H     H_    0.819204 0.784463 0.684415 0.264005
H9    H     H_    0.744872 0.974527 0.671284 0.249870
H10   H     H_    0.538650 0.788712 0.634949 0.198327
H11   H     H_    0.444039 0.871262 0.701342 0.233293
C41   C     C_3   0.658896 0.260091 0.305854 -0.399940
C42   C     C_3   0.534193 0.140232 0.332515 -0.832915
H12   H     H_    0.467283 0.189995 0.372583 0.240564
H13   H     H_    0.439249 0.099713 0.301562 0.272918
H14   H     H_    0.603961 0.037731 0.343163 0.253366
H15   H     H_    0.728223 0.199553 0.268064 0.224126
H16   H     H_    0.757029 0.298917 0.335473 0.225618
C43   C     C_3   0.019862 0.361471 0.435525 -0.142268
C44   C     C_3   0.939814 0.197018 0.433339 -0.881107
H17   H     H_    0.940510 0.148289 0.476033 0.259025
H18   H     H_    0.810037 0.196089 0.419160 0.284922
H19   H     H_    0.014392 0.120123 0.401474 0.236914
H20   H     H_    0.001234 0.417409 0.395196 0.171735
H21   H     H_    0.152185 0.341441 0.437717 0.238193
C45   C     C_3   0.979308 0.629919 0.566453 -0.147610
C46   C     C_3   0.079723 0.782944 0.577786 -0.840335
H22   H     H_    0.204737 0.762452 0.593407 0.288424
H23   H     H_    0.093551 0.847377 0.538189 0.257786
H24   H     H_    0.011094 0.858474 0.611437 0.219275
H25   H     H_    0.852072 0.666320 0.561657 0.232978
H26   H     H_    0.978955 0.558263 0.604196 0.182727

loop_
_geom_bond_atom_site_label_1
_geom_bond_atom_site_label_2
_ccdc_geom_bond_type
C21   O11   S    
C8    C10   A    
N3    N4    D    
C44   H19   S    
C45   C46   S    
C45   H25   S    
C22   O12   S    
C42   H12   S    
C2    O4    A    
C4    C36   S    
C23   C29   A    
C44   H18   S    
C20   N2    A    
C15   C16   D    
N3    C43   S    
C29   H1    S    
C7    C9    A    
C15   H5    S    
C13   N2    S    
C14   N1    S    
C10   C41   S    
C1    O1    A    
O3    Zn2   S    
C2    O2    A    
C7    C17   S    
O4    Zn1   S    
C40   H7    S    
C1    C15   S    
C12   H4    S    
C19   C27   A    
C3    C13   A    
C3    C35   S    
C43   H20   S    
C34   N6    T    
C39   C40   S    
C42   H13   S    
C43   H21   S    
C5    C37   S    
C30   H2    S    
C38   N10   T    
C41   C42   S    
C4    C6    A    
C17   O7    A    
C46   H22   S    
C5    C7    A    
C6    C8    A    
C20   C28   A    
C25   C26   A    
C8    C18   S    
N4    C45   S    
N3    Zn2   S    
N4    Zn1   S    
C46   H23   S    
O2    Zn2   S    
C43   C44   S    
C21   N1    A    
C29   C31   A    
C22   N2    A    
C40   H9    S    
C39   H10   S    
C44   H17   S    
C9    C11   A    
C10   C12   A    
O1    Zn1   S    
C6    C38   S    
C12   C14   A    
C21   C23   A    
C22   C24   A    
C41   H16   S    
C2    C16   S    
C18   O8    A    
O5    Zn1   S    
C42   H14   S    
O6    Zn2   S    
C27   C32   A    
C28   C31   A    
C17   O5    A    
C9    C39   S    
C3    C5    A    
C18   O6    A    
C41   H15   S    
C45   H26   S    
C25   C27   A    
O7    Zn2   S    
C26   C28   A    
O8    Zn1   S    
C31   C33   S    
C11   H3    S    
C20   O10   S    
C46   H24   S    
C30   C32   A    
C11   C13   A    
C24   C26   A    
C1    O3    A    
C33   N5    T    
C39   H11   S    
C23   C25   A    
C4    C14   A    
C35   N7    T    
C24   C30   A    
C36   N8    T    
C19   O9    S    
C19   N1    A    
C37   N9    T    
C40   H8    S    
C32   C34   S    
C16   H6    S    
