data_mof_unit_36292.cif
_audit_creation_date              2012-12-10T19:01:23-0500
_audit_creation_method            fapswitch 2.2
_symmetry_space_group_name_H-M    P1
_symmetry_Int_Tables_number       1
_space_group_crystal_system       triclinic
_cell_length_a                    9.546581
_cell_length_b                    10.817156
_cell_length_c                    15.470436
_cell_angle_alpha                 90.051751
_cell_angle_beta                  74.225114
_cell_angle_gamma                 89.701296
_cell_volume                      1537.38853938

loop_
_atom_site_label
_atom_site_type_symbol
_atom_type_description
_atom_site_fract_x
_atom_site_fract_y
_atom_site_fract_z
_atom_type_partial_charge
C1    C     C_R   0.000743 0.262434 0.498991 0.785825
C2    C     C_R   0.668886 0.526921 0.905035 -0.042947
C3    C     C_R   0.761771 0.586191 0.949612 0.129476
C4    C     C_R   0.517903 0.516491 0.949672 0.078315
C5    C     C_R   0.468901 0.539503 0.043467 0.084533
C6    C     C_R   0.567041 0.592517 0.086803 -0.244276
C7    C     C_R   0.709409 0.618960 0.039757 -0.161349
C8    C     C_R   0.413054 0.493703 0.902501 -0.202674
C9    C     C_R   0.267051 0.478968 0.947246 -0.259130
C10   C     C_R   0.220042 0.484747 0.040899 0.079069
C11   C     C_R   0.321481 0.514211 0.089918 0.032167
C12   C     C_R   0.918110 0.501292 0.672043 0.829603
C13   C     C_R   0.072973 0.462048 0.086347 0.441534
C14   C     C_R   0.026491 0.472574 0.180073 -0.305715
C15   C     C_R   0.273004 0.514862 0.184055 -0.265860
C16   C     C_R   0.124438 0.063240 0.502898 0.138265
C17   C     C_R   0.004530 0.129367 0.492156 -0.095186
C18   C     C_R   0.890292 0.065254 0.471353 -0.222592
C19   C     C_R   0.889805 0.936561 0.471873 -0.217149
C20   C     C_R   0.003345 0.871049 0.493177 -0.100540
C21   C     C_R   0.123806 0.935926 0.503519 0.118092
C22   C     C_3   0.196042 0.929991 0.577898 -0.471380
C23   C     C_R   0.000024 0.737720 0.499505 0.800840
C24   C     C_3   0.197246 0.070251 0.576853 -0.477446
C25   C     C_R   0.605413 0.542331 0.427228 0.253194
C26   C     C_R   0.544921 0.445607 0.567337 -0.080614
C27   C     C_R   0.396057 0.445828 0.567440 -0.093428
C28   C     C_R   0.458114 0.542303 0.427246 0.267323
C29   C     C_3   0.468275 0.668678 0.387948 -0.502316
C30   C     C_3   0.627135 0.668961 0.388217 -0.513242
C31   C     C_R   0.081927 0.499006 0.327757 0.826103
C32   C     C_R   0.872184 0.516443 0.769745 -0.132300
C33   C     C_R   0.126804 0.496123 0.229144 -0.110617
C34   C     C_R   0.906444 0.612360 0.903487 -0.129174
C35   C     C_R   0.960147 0.580570 0.813415 -0.314606
C36   C     C_R   0.731667 0.479741 0.817649 0.386701
Cu1   Cu    Cu3+1 0.140670 0.499980 0.500000 0.932822
Cu2   Cu    Cu3+1 0.859330 0.500020 0.500000 0.944781
H1    H     H_    0.779721 0.663685 0.074646 0.150453
H2    H     H_    0.798908 0.114000 0.458141 0.164782
H3    H     H_    0.798361 0.889280 0.458890 0.155538
H4    H     H_    0.126772 0.112604 0.639233 0.196824
H5    H     H_    0.576090 0.402836 0.622453 0.180035
H6    H     H_    0.316243 0.403739 0.622741 0.140213
H7    H     H_    0.452990 0.668539 0.319337 0.182759
H8    H     H_    0.348491 0.526681 0.223936 0.158537
H9    H     H_    0.401187 0.737835 0.434558 0.216770
H10   H     H_    0.703719 0.669493 0.319731 0.193286
H11   H     H_    0.650046 0.737587 0.435721 0.209783
H12   H     H_    0.912396 0.459585 0.214226 0.161016
H13   H     H_    0.069270 0.608365 0.777465 0.173061
N1    N     N_R   0.648210 0.500930 0.499430 -0.187314
N2    N     N_R   0.352300 0.500890 0.499430 -0.183457
O1    O     O_R   0.118810 0.319640 0.500000 -0.577098
O2    O     O_R   0.881230 0.319680 0.499990 -0.592018
O3    O     O_R   0.055580 0.499970 0.629840 -0.600456
O4    O     O_R   0.818000 0.500010 0.629830 -0.543316
O5    O     O_R   0.118770 0.680320 0.500010 -0.579422
O6    O     O_R   0.881190 0.680360 0.500000 -0.583746
O7    O     O_R   0.182000 0.499990 0.370170 -0.584680
O8    O     O_R   0.944420 0.500030 0.370160 -0.584943
O9    O     O_3   0.972288 0.440876 0.038427 -0.632838
C37   C     C_3   0.920240 0.318060 0.050553 0.052900
H14   H     H_    0.801862 0.320976 0.055698 0.170905
H15   H     H_    0.931767 0.272955 0.113169 0.126611
C38   C     C_3   0.996852 0.239734 0.968781 -0.355111
H16   H     H_    0.984069 0.284576 0.906690 0.223673
H17   H     H_    0.114878 0.233496 0.964187 0.216380
C39   C     C_3   0.934348 0.109490 0.975235 -0.938800
H18   H     H_    0.946393 0.062745 0.036738 0.260008
H19   H     H_    0.993990 0.054631 0.915797 0.255094
H20   H     H_    0.817311 0.113043 0.976927 0.252332
H21   H     H_    0.124348 0.890635 0.640771 0.197020
H22   H     H_    0.306846 0.888599 0.555884 0.196263
H23   H     H_    0.308562 0.109487 0.553604 0.199721
H24   H     H_    0.191206 0.461860 0.907766 0.186360
H25   H     H_    0.976961 0.660320 0.936584 0.157044
O10   O     O_3   0.659187 0.394547 0.778950 -0.639218
C40   C     C_3   0.684380 0.273227 0.806045 0.025792
H26   H     H_    0.576828 0.228076 0.831769 0.167889
H27   H     H_    0.739113 0.268800 0.861360 0.133334
C41   C     C_3   0.774147 0.200289 0.724761 -0.317936
H28   H     H_    0.720521 0.205883 0.669457 0.231009
H29   H     H_    0.884246 0.241433 0.701040 0.192886
C42   C     C_3   0.789947 0.064670 0.747604 -0.933801
H30   H     H_    0.847606 0.056453 0.800708 0.258752
H31   H     H_    0.854030 0.014707 0.686843 0.267802
H32   H     H_    0.681269 0.020842 0.771045 0.259151
H33   H     H_    0.534623 0.621824 0.155991 0.135306
H34   H     H_    0.439964 0.493979 0.830121 0.198761

loop_
_geom_bond_atom_site_label_1
_geom_bond_atom_site_label_2
_ccdc_geom_bond_type
C23   O5    A    
C38   H17   S    
C37   H15   S    
C16   C21   A    
C24   H4    S    
C31   O8    A    
C19   C20   A    
C4    C8    A    
C14   C33   A    
C14   H12   S    
C42   H30   S    
C25   C28   A    
C23   O6    A    
C26   C27   A    
Cu1   Cu2   S    
C29   H9    S    
C32   C36   A    
C30   H10   S    
C28   C29   S    
C5    C11   A    
C3    C7    A    
C34   H25   S    
C5    C6    A    
C38   C39   S    
Cu2   N1    S    
C34   C35   A    
C39   H19   S    
C18   H2    S    
Cu1   O3    S    
C11   C15   A    
C27   H6    S    
Cu2   O2    S    
C8    C9    A    
C31   C33   S    
C9    H24   S    
C9    C10   A    
Cu1   O5    S    
Cu2   O8    S    
Cu1   N2    S    
C38   H16   S    
C37   C38   S    
C16   C24   S    
C21   C22   S    
C12   C32   S    
C26   H5    S    
C42   H31   S    
C13   O9    S    
C32   C35   A    
C40   H26   S    
C40   H27   S    
O10   C40   S    
C18   C19   A    
C3    C34   A    
Cu2   O6    S    
C29   H7    S    
C31   O7    A    
C39   H20   S    
C2    C4    A    
C1    O1    A    
C29   C30   S    
C26   N1    A    
Cu2   O4    S    
C20   C23   S    
O9    C37   S    
C17   C18   A    
C12   O3    A    
C12   O4    A    
C30   H11   S    
C41   H29   S    
C35   H13   S    
C22   C24   S    
C8    H34   S    
Cu1   O1    S    
C6    H33   S    
C42   H32   S    
C2    C36   A    
C25   C30   S    
C4    C5    A    
C10   C13   A    
C40   C41   S    
C28   N2    A    
C27   N2    A    
C24   H23   S    
C6    C7    A    
C41   C42   S    
C1    C17   S    
C15   H8    S    
C2    C3    A    
C1    O2    A    
C25   N1    A    
C36   O10   S    
C16   C17   A    
C39   H18   S    
Cu1   O7    S    
C10   C11   A    
C37   H14   S    
C20   C21   A    
C22   H22   S    
C41   H28   S    
C7    H1    S    
C22   H21   S    
C13   C14   A    
C15   C33   A    
C19   H3    S    
