data_mof_unit_9188.cif
_audit_creation_date              2012-12-11T17:00:17-0500
_audit_creation_method            fapswitch 2.2
_symmetry_space_group_name_H-M    P1
_symmetry_Int_Tables_number       1
_space_group_crystal_system       triclinic
_cell_length_a                    6.945016
_cell_length_b                    13.570545
_cell_length_c                    20.248961
_cell_angle_alpha                 103.047124
_cell_angle_beta                  89.394659
_cell_angle_gamma                 91.078965
_cell_volume                      1858.78201535

loop_
_atom_site_label
_atom_site_type_symbol
_atom_type_description
_atom_site_fract_x
_atom_site_fract_y
_atom_site_fract_z
_atom_type_partial_charge
O1    O     O_R   0.506770 0.599700 0.449550 -0.546595
O2    O     O_R   0.179980 0.595740 0.587960 -0.546686
O3    O     O_R   0.004580 0.400300 0.550450 -0.536958
C1    C     C_R   0.348112 0.617939 0.614990 0.707183
O4    O     O_R   0.177380 0.611700 0.452380 -0.540593
O5    O     O_R   0.001970 0.416370 0.413900 -0.541847
C2    C     C_R   0.347831 0.638822 0.436046 0.705411
O6    O     O_R   0.509390 0.583630 0.586100 -0.537520
O7    O     O_3   0.337530 0.435890 0.487530 -0.369874
V1    V     V_3+5 0.064660 0.511890 0.502310 1.399609
O8    O     O_R   0.671950 0.404260 0.412040 -0.545121
C3    C     C_R   0.840678 0.382083 0.384987 0.693805
O9    O     O_R   0.674540 0.388300 0.547620 -0.539986
C4    C     C_R   0.841658 0.361415 0.564194 0.700381
V2    V     V_3+5 0.564030 0.488110 0.497690 1.403106
O10   O     O_3   0.841030 0.564110 0.512470 -0.372819
C5    C     C_R   0.796648 0.110024 0.611174 -0.158025
H1    H     H_    0.788202 0.160072 0.518083 0.101287
H2    H     H_    0.765645 0.986125 0.694987 0.120655
H3    H     H_    0.769425 0.031833 0.585988 0.104459
C6    C     C_R   0.844183 0.283826 0.603754 -0.031400
C7    C     C_R   0.922614 0.314527 0.928935 -0.163636
C8    C     C_R   0.951057 0.388818 0.892530 -0.119139
C9    C     C_R   0.928010 0.366179 0.822455 -0.163545
C10   C     C_R   0.876643 0.267071 0.786647 0.077436
C11   C     C_R   0.850819 0.190639 0.824275 0.071352
C12   C     C_R   0.855393 0.240704 0.714672 0.071183
C13   C     C_R   0.816532 0.138128 0.681862 0.148491
C14   C     C_R   0.795639 0.064396 0.719719 -0.208630
C15   C     C_R   0.810671 0.090193 0.789799 -0.204485
C16   C     C_R   0.868779 0.312718 0.673967 -0.216474
C17   C     C_R   0.808529 0.182616 0.572426 -0.175122
C18   C     C_R   0.872337 0.215770 0.895657 -0.076786
H4    H     H_    0.891151 0.392319 0.695254 0.090487
H5    H     H_    0.945129 0.333453 0.983264 0.097161
H6    H     H_    0.956427 0.427475 0.797802 0.111640
H7    H     H_    0.995438 0.464235 0.918772 0.113674
H8    H     H_    0.792060 0.030145 0.816679 0.115189
C19   C     C_R   0.693306 0.226625 0.212085 0.064508
C20   C     C_R   0.863796 0.179648 0.185496 -0.097013
C21   C     C_R   0.023641 0.190556 0.229402 -0.178569
H9    H     H_    0.155776 0.151147 0.212770 0.127264
C22   C     C_R   0.015936 0.254458 0.294988 -0.199912
H10   H     H_    0.142481 0.262501 0.326665 0.130817
C23   C     C_R   0.848607 0.309683 0.318219 -0.105532
C24   C     C_R   0.687914 0.291727 0.275734 0.102342
C25   C     C_3   0.552959 0.361570 0.252154 -0.055521
C26   C     C_3   0.556285 0.288397 0.182589 -0.408868
H11   H     H_    0.409694 0.362093 0.277290 0.107347
H12   H     H_    0.620190 0.318496 0.140530 0.168659
H13   H     H_    0.416578 0.247845 0.169530 0.151984
C27   C     C_R   0.490205 0.675252 0.731390 0.063191
C28   C     C_R   0.350875 0.684355 0.683914 -0.105965
C29   C     C_R   0.200395 0.752819 0.706585 -0.181769
H14   H     H_    0.085725 0.760742 0.672498 0.126663
C30   C     C_R   0.202280 0.816259 0.772262 -0.184309
H15   H     H_    0.089899 0.871301 0.786630 0.127137
C31   C     C_R   0.354863 0.813148 0.817040 -0.146276
C32   C     C_R   0.492941 0.738615 0.795682 0.118955
C33   C     C_3   0.708277 0.743011 0.796938 -0.034058
C34   C     C_3   0.704569 0.672381 0.726410 -0.410237
H16   H     H_    0.765150 0.819772 0.795906 0.104441
H17   H     H_    0.760101 0.595367 0.724089 0.167150
H18   H     H_    0.760294 0.708652 0.685884 0.150889
C35   C     C_R   0.450583 0.887942 0.388356 -0.192152
H19   H     H_    0.503470 0.008654 0.303421 0.122879
H20   H     H_    0.496748 0.964541 0.411819 0.110696
C36   C     C_R   0.362895 0.718215 0.397713 -0.052589
C37   C     C_R   0.284710 0.687934 0.072120 -0.163821
C38   C     C_R   0.246094 0.615102 0.109054 -0.115053
C39   C     C_R   0.268419 0.637998 0.179174 -0.178606
C40   C     C_R   0.334008 0.734986 0.214412 0.090169
C41   C     C_R   0.373236 0.809447 0.176095 0.067677
C42   C     C_R   0.359952 0.760926 0.286311 0.076024
C43   C     C_R   0.421938 0.860540 0.318047 0.113218
C44   C     C_R   0.456562 0.932412 0.279481 -0.194574
C45   C     C_R   0.433166 0.907430 0.209709 -0.201804
C46   C     C_R   0.329494 0.691121 0.327835 -0.271799
C47   C     C_R   0.422463 0.817589 0.428759 0.140356
C48   C     C_R   0.347626 0.784896 0.104848 -0.077851
H21   H     H_    0.285150 0.613845 0.307333 0.100088
H22   H     H_    0.262068 0.669207 0.017800 0.097101
H23   H     H_    0.230822 0.578211 0.204164 0.105082
H24   H     H_    0.195442 0.540523 0.083250 0.115667
H25   H     H_    0.462759 0.966010 0.182326 0.122212
O11   O     O_R   0.203450 0.916320 0.913910 -0.542497
O12   O     O_R   0.535520 0.888300 0.047620 -0.539890
O13   O     O_R   0.710860 0.083650 0.086100 -0.538495
C49   C     C_R   0.364885 0.861898 0.064566 0.690741
O14   O     O_R   0.532860 0.904250 0.912040 -0.547006
O15   O     O_R   0.708190 0.099710 0.949550 -0.538527
C50   C     C_R   0.364518 0.883260 0.884581 0.701588
O16   O     O_R   0.206120 0.900260 0.050460 -0.537336
O17   O     O_3   0.375280 0.064080 0.012470 -0.368515
V3    V     V_3+5 0.648180 0.988110 0.997690 1.400121
O18   O     O_R   0.038220 0.111740 0.952370 -0.539057
C51   C     C_R   0.871535 0.138002 0.935369 0.689141
O19   O     O_R   0.040880 0.095790 0.087940 -0.544631
C52   C     C_R   0.872365 0.116485 0.115514 0.697514
V4    V     V_3+5 0.148800 0.011950 0.002300 1.405543
O20   O     O_3   0.871820 0.935920 0.987530 -0.378403
C53   C     C_3   0.629614 0.470072 0.253724 -0.303899
C54   C     C_3   0.834578 0.479855 0.226479 -0.718805
H26   H     H_    0.943756 0.458631 0.260000 0.215439
H27   H     H_    0.853437 0.433627 0.174337 0.216543
H28   H     H_    0.863129 0.560141 0.225068 0.211670
H29   H     H_    0.530143 0.505128 0.223608 0.179326
H30   H     H_    0.622797 0.515004 0.306808 0.175676
C55   C     C_3   0.801186 0.698675 0.852694 -0.309599
C56   C     C_3   0.684801 0.613413 0.873538 -0.747335
H31   H     H_    0.542671 0.640963 0.894925 0.215565
H32   H     H_    0.663287 0.548593 0.829624 0.228116
H33   H     H_    0.763272 0.587306 0.913621 0.208898
H34   H     H_    0.946809 0.670796 0.835426 0.178697
H35   H     H_    0.821158 0.760625 0.898428 0.200487
C57   C     C_3   0.458607 0.850025 0.504284 -0.379868
C58   C     C_3   0.270253 0.866816 0.544534 -0.759920
H36   H     H_    0.184156 0.925224 0.528254 0.232399
H37   H     H_    0.184026 0.795617 0.537383 0.222869
H38   H     H_    0.302430 0.893270 0.599358 0.218766
H39   H     H_    0.545552 0.792853 0.521573 0.175710
H40   H     H_    0.543592 0.921891 0.516055 0.175470

loop_
_geom_bond_atom_site_label_1
_geom_bond_atom_site_label_2
_ccdc_geom_bond_type
C35   C47   A    
C1    C28   S    
C21   H9    S    
C1    O6    A    
C20   C52   S    
O14   V3    S    
C25   H11   S    
C28   C29   A    
C57   C58   S    
C7    H5    S    
C6    C16   A    
C9    H6    S    
C57   H40   S    
C4    C6    S    
C13   C14   A    
C27   C34   S    
C58   H37   S    
O5    C3    A    
V2    O10   S    
C5    H3    S    
C30   H15   S    
C15   H8    S    
C33   H16   S    
C48   C49   S    
C34   H17   S    
C56   H31   S    
C33   C55   S    
C2    C36   S    
C29   H14   S    
O8    V2    S    
C26   H13   S    
C35   H20   S    
O12   V3    S    
C8    C9    A    
C53   H30   S    
C38   C39   A    
C37   H22   S    
C38   H24   S    
O7    V1    S    
C36   C47   A    
C26   H12   S    
O13   V3    S    
C45   H25   S    
C32   C33   S    
C25   C53   S    
O9    C4    A    
C49   O16   A    
C21   C22   A    
C37   C38   A    
C39   H23   S    
C36   C46   A    
C6    C17   A    
C29   C30   A    
C57   H39   S    
C12   C16   A    
C53   C54   S    
C9    C10   A    
C40   C42   A    
C42   C43   A    
C58   H38   S    
C19   C20   A    
O4    C2    A    
C3    C23   S    
C10   C11   A    
C8    H7    S    
O15   C51   A    
C33   C34   S    
C34   H18   S    
O2    C1    A    
C43   C44   A    
C14   C15   A    
C27   C32   A    
C11   C18   A    
O14   C50   A    
C25   C26   S    
O16   V4    S    
O17   V4    S    
H19   C44   S    
O18   C51   A    
C16   H4    S    
C53   H29   S    
C54   H27   S    
C44   C45   A    
C22   C23   A    
C56   H33   S    
O3    C4    A    
C55   H34   S    
C19   C24   A    
O1    V2    S    
C20   C21   A    
C11   C15   A    
O6    V2    S    
O19   V4    S    
O12   C49   A    
C22   H10   S    
H1    C17   S    
O2    V1    S    
C12   C13   A    
O11   V4    S    
C27   C28   A    
C7    C18   A    
C24   C25   S    
O1    C2    A    
C5    C13   A    
C40   C41   A    
O5    V1    S    
O8    C3    A    
C10   C12   A    
C35   C43   A    
O9    V2    S    
C31   C32   A    
O4    V1    S    
O3    V1    S    
O11   C50   A    
C58   H36   S    
C46   H21   S    
O18   V4    S    
V4    O20   S    
C41   C48   A    
C30   C31   A    
C54   H28   S    
C18   C51   S    
O7    V2    S    
O17   V3    S    
C56   H32   S    
O13   C52   A    
C55   H35   S    
O15   V3    S    
C23   C24   A    
C39   C40   A    
O19   C52   A    
C42   C46   A    
C55   C56   S    
C54   H26   S    
C5    C17   A    
C41   C45   A    
C7    C8    A    
C37   C48   A    
V1    O10   S    
C47   C57   S    
C31   C50   S    
V3    O20   S    
C19   C26   S    
H2    C14   S    
