data_mof_unit_9961.cif
_audit_creation_date              2012-12-11T14:42:01-0500
_audit_creation_method            fapswitch 2.2
_symmetry_space_group_name_H-M    P1
_symmetry_Int_Tables_number       1
_space_group_crystal_system       triclinic
_cell_length_a                    18.912798
_cell_length_b                    10.934635
_cell_length_c                    18.78931
_cell_angle_alpha                 90.148141
_cell_angle_beta                  90.695963
_cell_angle_gamma                 90.145146
_cell_volume                      3885.40224257

loop_
_atom_site_label
_atom_site_type_symbol
_atom_type_description
_atom_site_fract_x
_atom_site_fract_y
_atom_site_fract_z
_atom_type_partial_charge
C1    C     C_R   0.728427 0.952322 0.852383 0.546245
C2    C     C_R   0.271542 0.952181 0.147651 0.532580
C3    C     C_R   0.228427 0.452322 0.852383 0.546245
C4    C     C_R   0.771541 0.452181 0.147652 0.532579
C5    C     C_R   0.688402 0.443249 0.044518 -0.150651
C6    C     C_R   0.311536 0.443703 0.955633 -0.150789
C7    C     C_R   0.188402 0.943249 0.044518 -0.150651
C8    C     C_R   0.811536 0.943703 0.955633 -0.150789
C9    C     C_R   0.746761 0.395468 0.081222 0.006514
C10   C     C_R   0.253002 0.395984 0.918816 0.006813
C11   C     C_R   0.246761 0.895468 0.081222 0.006515
C12   C     C_R   0.753002 0.895984 0.918816 0.006813
C13   C     C_R   0.788294 0.305725 0.048855 -0.143550
C14   C     C_R   0.211131 0.306430 0.951033 -0.142249
C15   C     C_R   0.288294 0.805725 0.048855 -0.143549
C16   C     C_R   0.711131 0.806430 0.951033 -0.142250
C17   C     C_R   0.778255 0.277934 0.977559 -0.155785
C18   C     C_R   0.221139 0.278593 0.022245 -0.155437
C19   C     C_R   0.278255 0.777933 0.977559 -0.155784
C20   C     C_R   0.721139 0.778593 0.022245 -0.155438
C21   C     C_R   0.725674 0.337064 0.937372 -0.000551
C22   C     C_R   0.274028 0.337481 0.062548 0.000897
C23   C     C_R   0.225674 0.837064 0.937372 -0.000550
C24   C     C_R   0.774028 0.837481 0.062548 0.000896
C25   C     C_R   0.564617 0.269830 0.519097 -0.133890
C26   C     C_R   0.546652 0.266553 0.447764 -0.126961
C27   C     C_R   0.064617 0.769830 0.519097 -0.133890
C28   C     C_R   0.046652 0.766553 0.447765 -0.126960
C29   C     C_R   0.510357 0.164873 0.420338 0.032818
C30   C     C_R   0.547678 0.171159 0.562637 0.027991
C31   C     C_R   0.010357 0.664874 0.420338 0.032818
C32   C     C_R   0.047678 0.671159 0.562637 0.027991
C33   C     C_R   0.498052 0.062106 0.462749 -0.139819
C34   C     C_R   0.515723 0.065984 0.534088 -0.139133
C35   C     C_R   0.998052 0.562106 0.462749 -0.139819
C36   C     C_R   0.015724 0.565983 0.534087 -0.139133
C37   C     C_R   0.796379 0.326124 0.531695 -0.130791
C38   C     C_R   0.178566 0.402028 0.451620 -0.128023
C39   C     C_R   0.296380 0.826125 0.531696 -0.130791
C40   C     C_R   0.678566 0.902029 0.451620 -0.128023
C41   C     C_R   0.797423 0.336001 0.458971 -0.135932
C42   C     C_R   0.168478 0.425764 0.522918 -0.134569
C43   C     C_R   0.297423 0.836001 0.458971 -0.135931
C44   C     C_R   0.668478 0.925765 0.522918 -0.134569
C45   C     C_R   0.528833 0.177411 0.849018 0.557275
C46   C     C_R   0.471250 0.177371 0.151042 0.541734
C47   C     C_R   0.028833 0.677411 0.849018 0.557275
C48   C     C_R   0.971250 0.677371 0.151042 0.541734
C49   C     C_R   0.754594 0.422003 0.424941 0.029236
C50   C     C_R   0.223013 0.476269 0.564326 0.027195
C51   C     C_R   0.254594 0.922003 0.424941 0.029236
C52   C     C_R   0.723013 0.976269 0.564326 0.027195
C53   C     C_R   0.707693 0.494122 0.464711 -0.139403
C54   C     C_R   0.287851 0.505734 0.532814 -0.130228
C55   C     C_R   0.207692 0.994121 0.464710 -0.139403
C56   C     C_R   0.787852 0.005732 0.532814 -0.130228
C57   C     C_R   0.705039 0.481150 0.538310 -0.149894
C58   C     C_R   0.298829 0.478774 0.461339 -0.138092
C59   C     C_R   0.205039 0.981149 0.538310 -0.149894
C60   C     C_R   0.798830 0.978773 0.461339 -0.138092
C61   C     C_R   0.749201 0.396254 0.571982 0.031038
C62   C     C_R   0.244803 0.423006 0.421025 0.027214
C63   C     C_R   0.249201 0.896254 0.571982 0.031038
C64   C     C_R   0.744803 0.923006 0.421025 0.027214
C65   C     C_R   0.723666 0.312749 0.860118 0.556670
C66   C     C_R   0.276210 0.312793 0.139725 0.554101
C67   C     C_R   0.223666 0.812749 0.860118 0.556672
C68   C     C_R   0.776210 0.812793 0.139725 0.554100
C69   C     C_R   0.710195 0.999465 0.639552 0.541473
C70   C     C_R   0.272253 0.956131 0.352839 0.550888
C71   C     C_R   0.210195 0.499465 0.639552 0.541473
C72   C     C_R   0.772253 0.456131 0.352839 0.550887
C73   C     C_R   0.563245 0.180340 0.637633 0.542384
C74   C     C_R   0.472331 0.175971 0.353900 0.548315
C75   C     C_R   0.063245 0.680340 0.637633 0.542384
C76   C     C_R   0.972331 0.675971 0.353900 0.548316
C77   C     C_R   0.739233 0.360808 0.645600 0.543643
C78   C     C_R   0.259966 0.364775 0.352994 0.556853
C79   C     C_R   0.239233 0.860808 0.645600 0.543643
C80   C     C_R   0.759966 0.864775 0.352994 0.556853
C81   C     C_2   0.492308 0.165430 0.915190 -0.078819
C82   C     C_2   0.507723 0.165220 0.084853 -0.078539
C83   C     C_2   0.992308 0.665431 0.915189 -0.078821
C84   C     C_2   0.007723 0.665219 0.084853 -0.078538
C85   C     C_2   0.481629 0.092930 0.033065 -0.034262
C86   C     C_2   0.517980 0.092828 0.966725 -0.036680
C87   C     C_2   0.981626 0.592932 0.033065 -0.034260
C88   C     C_2   0.017977 0.592826 0.966724 -0.036682
C89   C     C_R   0.677161 0.414949 0.972805 -0.031985
C90   C     C_R   0.322755 0.415333 0.027274 -0.031733
C91   C     C_R   0.177161 0.914950 0.972805 -0.031985
C92   C     C_R   0.822755 0.915333 0.027274 -0.031733
Cr1   Cr    Cr6+3 0.769270 0.163730 0.750710 1.014735
Cr2   Cr    Cr6+3 0.230730 0.163730 0.249290 1.013689
Cr3   Cr    Cr6+3 0.269270 0.663730 0.750710 1.014735
Cr4   Cr    Cr6+3 0.730730 0.663730 0.249290 1.013688
Cr5   Cr    Cr6+3 0.612620 0.009790 0.748780 1.011219
Cr6   Cr    Cr6+3 0.387380 0.009790 0.251220 1.011568
Cr7   Cr    Cr6+3 0.112620 0.509790 0.748780 1.011219
Cr8   Cr    Cr6+3 0.887380 0.509790 0.251220 1.011569
Cr9   Cr    Cr6+3 0.614160 0.322500 0.747710 1.039738
Cr10  Cr    Cr6+3 0.385840 0.322500 0.252290 1.041641
Cr11  Cr    Cr6+3 0.114160 0.822500 0.747710 1.039738
Cr12  Cr    Cr6+3 0.885840 0.822500 0.252290 1.041641
H1    H     H_    0.834603 0.280343 0.429806 0.129237
H2    H     H_    0.118570 0.400679 0.546252 0.125726
H3    H     H_    0.334604 0.780344 0.429807 0.129236
H4    H     H_    0.618569 0.900681 0.546251 0.125726
H5    H     H_    0.675156 0.563320 0.439470 0.135138
H6    H     H_    0.330973 0.544413 0.563904 0.130423
H7    H     H_    0.175155 0.063318 0.439470 0.135137
H8    H     H_    0.830974 0.044411 0.563904 0.130424
H9    H     H_    0.667982 0.535242 0.568529 0.126926
H10   H     H_    0.350492 0.495119 0.438945 0.129021
H11   H     H_    0.167981 0.035241 0.568528 0.126926
H12   H     H_    0.850492 0.995116 0.438945 0.129021
H13   H     H_    0.553081 0.224144 0.075260 0.103537
H14   H     H_    0.447255 0.224640 0.924987 0.106149
H15   H     H_    0.053082 0.724140 0.075260 0.103535
H16   H     H_    0.947257 0.724645 0.924987 0.106150
H17   H     H_    0.653894 0.508041 0.070533 0.130461
H18   H     H_    0.346284 0.508324 0.929742 0.131227
H19   H     H_    0.153894 0.008041 0.070533 0.130461
H20   H     H_    0.846284 0.008323 0.929742 0.131227
H21   H     H_    0.832192 0.263608 0.076986 0.151780
H22   H     H_    0.167059 0.264353 0.922832 0.153269
H23   H     H_    0.332193 0.763608 0.076986 0.151780
H24   H     H_    0.667060 0.764353 0.922832 0.153269
H25   H     H_    0.814148 0.214123 0.952979 0.137423
H26   H     H_    0.185059 0.214789 0.046656 0.137514
H27   H     H_    0.314147 0.714122 0.952979 0.137422
H28   H     H_    0.685059 0.714789 0.046656 0.137515
H29   H     H_    0.588476 0.351391 0.541189 0.129549
H30   H     H_    0.556607 0.346494 0.415382 0.128935
H31   H     H_    0.088476 0.851392 0.541189 0.129549
H32   H     H_    0.056607 0.846495 0.415382 0.128935
H33   H     H_    0.469669 0.982917 0.442456 0.135187
H34   H     H_    0.501967 0.988620 0.567081 0.133777
H35   H     H_    0.969670 0.482917 0.442456 0.135187
H36   H     H_    0.001968 0.488619 0.567081 0.133777
H37   H     H_    0.831605 0.260122 0.555959 0.130824
H38   H     H_    0.135695 0.359466 0.421791 0.132261
H39   H     H_    0.331606 0.760124 0.555959 0.130824
H40   H     H_    0.635695 0.859467 0.421791 0.132261
O1    O     O_R   0.784320 0.290430 0.830510 -0.507296
O2    O     O_R   0.215680 0.290430 0.169490 -0.514122
O3    O     O_R   0.284320 0.790430 0.830510 -0.507297
O4    O     O_R   0.715680 0.790430 0.169490 -0.514122
O5    O     O_R   0.554640 0.080370 0.673500 -0.516021
O6    O     O_R   0.445360 0.080370 0.326500 -0.504946
O7    O     O_R   0.054640 0.580370 0.673500 -0.516021
O8    O     O_R   0.945360 0.580370 0.326500 -0.504946
O9    O     O_R   0.543920 0.282180 0.666790 -0.500856
O10   O     O_R   0.456080 0.282180 0.333210 -0.521075
O11   O     O_R   0.043920 0.782180 0.666790 -0.500856
O12   O     O_R   0.956080 0.782180 0.333210 -0.521076
O13   O     O_R   0.679040 0.374160 0.674430 -0.517712
O14   O     O_R   0.320960 0.374160 0.325570 -0.495788
O15   O     O_R   0.179040 0.874160 0.674430 -0.517712
O16   O     O_R   0.820960 0.874160 0.325570 -0.495788
O17   O     O_3   0.665350 0.165340 0.749070 -0.313108
O18   O     O_3   0.334650 0.165340 0.250930 -0.267136
O19   O     O_3   0.165350 0.665340 0.749070 -0.313108
O20   O     O_3   0.834650 0.665340 0.250930 -0.267136
O21   O     O_R   0.762640 0.040960 0.825200 -0.512922
O22   O     O_R   0.237360 0.040960 0.174800 -0.520814
O23   O     O_R   0.262640 0.540960 0.825200 -0.512922
O24   O     O_R   0.737360 0.540960 0.174800 -0.520814
O25   O     O_R   0.667400 0.923970 0.829950 -0.523466
O26   O     O_R   0.332600 0.923970 0.170050 -0.528440
O27   O     O_R   0.167400 0.423970 0.829950 -0.523467
O28   O     O_R   0.832600 0.423970 0.170050 -0.528440
O29   O     O_R   0.553960 0.081340 0.821780 -0.496131
O30   O     O_R   0.446040 0.081340 0.178220 -0.503115
O31   O     O_R   0.053960 0.581340 0.821780 -0.496132
O32   O     O_R   0.946040 0.581340 0.178220 -0.503115
O33   O     O_R   0.543180 0.283240 0.826740 -0.494203
O34   O     O_R   0.456820 0.283240 0.173260 -0.502811
O35   O     O_R   0.043180 0.783240 0.826740 -0.494203
O36   O     O_R   0.956820 0.783240 0.173260 -0.502810
O37   O     O_R   0.678360 0.375140 0.822710 -0.477976
O38   O     O_R   0.321640 0.375140 0.177290 -0.483970
O39   O     O_R   0.178360 0.875140 0.822710 -0.477976
O40   O     O_R   0.821640 0.875140 0.177290 -0.483970
O41   O     O_R   0.785050 0.289380 0.670560 -0.524939
O42   O     O_R   0.214950 0.289380 0.329440 -0.522638
O43   O     O_R   0.285050 0.789380 0.670560 -0.524939
O44   O     O_R   0.714950 0.789380 0.329440 -0.522638
O45   O     O_R   0.763320 0.039990 0.676930 -0.497054
O46   O     O_R   0.236680 0.039990 0.323070 -0.504585
O47   O     O_R   0.263320 0.539990 0.676930 -0.497054
O48   O     O_R   0.736680 0.539990 0.323070 -0.504586
O49   O     O_R   0.668130 0.922920 0.670000 -0.511254
O50   O     O_R   0.331870 0.922920 0.330000 -0.519950
O51   O     O_R   0.168130 0.422920 0.670000 -0.511254
O52   O     O_R   0.831870 0.422920 0.330000 -0.519949
C93   C     C_3   0.414151 0.019848 0.037093 -0.339106
H41   H     H_    0.398886 0.982144 0.984093 0.136379
H42   H     H_    0.422551 0.941201 0.073216 0.177649
H43   H     H_    0.370140 0.078686 0.055373 0.134731
C94   C     C_3   0.585105 0.019339 0.962514 -0.341496
H44   H     H_    0.600088 0.981381 0.015385 0.135127
H45   H     H_    0.576412 0.940836 0.926053 0.178047
H46   H     H_    0.629437 0.077999 0.944578 0.132763
C95   C     C_3   0.914145 0.519856 0.037092 -0.339105
H47   H     H_    0.898878 0.482157 0.984092 0.136380
H48   H     H_    0.922544 0.441206 0.073213 0.177650
H49   H     H_    0.870136 0.578699 0.055374 0.134728
C96   C     C_3   0.085100 0.519330 0.962513 -0.341497
H50   H     H_    0.100079 0.481366 0.015383 0.135127
H51   H     H_    0.076406 0.440831 0.926049 0.178048
H52   H     H_    0.129434 0.577986 0.944580 0.132766
C97   C     C_1   0.617695 0.472772 0.937743 0.222994
N1    N     N_1   0.569983 0.519759 0.910134 -0.284692
C98   C     C_1   0.382521 0.472869 0.062444 0.223374
N2    N     N_1   0.430479 0.519616 0.090149 -0.288510
C99   C     C_1   0.117696 0.972773 0.937743 0.222994
N3    N     N_1   0.069983 0.019761 0.910133 -0.284693
C100  C     C_1   0.882521 0.972869 0.062444 0.223374
N4    N     N_1   0.930479 0.019615 0.090149 -0.288509

loop_
_geom_bond_atom_site_label_1
_geom_bond_atom_site_label_2
_ccdc_geom_bond_type
Cr2   O2    S    
C2    O22   A    
C87   C88   S    
C58   C62   A    
C23   C91   A    
C55   C59   A    
Cr8   O28   S    
C77   O41   A    
C94   H44   S    
C14   C18   A    
C19   C23   A    
C35   C36   A    
C84   C87   D    
C98   N2    T    
C3    O27   A    
Cr2   O22   S    
C32   C75   S    
C94   H45   S    
C3    O23   A    
C63   C79   S    
C95   H47   S    
Cr8   O8    S    
C93   H43   S    
C7    C11   A    
C74   O10   A    
C50   C54   A    
C37   H37   S    
Cr11  O39   S    
C32   C36   A    
C27   C28   A    
C16   C20   A    
C56   C60   A    
Cr12  O16   S    
C38   C42   A    
Cr3   O19   S    
C79   O15   A    
Cr6   O30   S    
C80   O16   A    
Cr7   O27   S    
C76   O8    A    
C23   C67   S    
Cr7   O51   S    
C67   O39   A    
C96   H52   S    
Cr5   O25   S    
Cr6   O50   S    
Cr5   O49   S    
C93   H42   S    
C46   O34   A    
C87   C95   S    
C9    C13   A    
C52   C69   S    
C35   H35   S    
C69   O49   A    
C46   C82   S    
C80   O44   A    
C11   C15   A    
C78   O14   A    
C22   C66   S    
C12   C16   A    
C29   C33   A    
C61   C77   S    
C49   C72   S    
Cr8   O32   S    
C47   O35   A    
C46   O30   A    
Cr1   O1    S    
C78   O42   A    
C51   C70   S    
C47   C83   S    
C25   H29   S    
Cr10  O10   S    
C44   H4    S    
C51   C55   A    
C81   C86   D    
C68   O4    A    
C70   O50   A    
C21   C65   S    
C44   C52   A    
C95   H48   S    
C83   C88   D    
C66   O38   A    
Cr1   O21   S    
C18   C22   A    
C64   C80   S    
Cr10  O14   S    
C1    C12   S    
C31   C76   S    
C20   H28   S    
C2    C11   S    
C24   C92   A    
C41   C49   A    
C90   C98   S    
Cr6   O18   S    
C41   H1    S    
Cr8   O52   S    
C19   H27   S    
Cr4   O4    S    
Cr5   O29   S    
C30   C34   A    
Cr3   O43   S    
Cr10  O38   S    
C20   C24   A    
Cr3   O3    S    
C96   H50   S    
C10   C14   A    
C33   H33   S    
C100  N4    T    
C30   C73   S    
C53   C57   A    
C8    H20   S    
C65   O37   A    
C29   C74   S    
C99   N3    T    
C97   N1    T    
C17   H25   S    
C81   H14   S    
C76   O12   A    
C17   C21   A    
Cr4   O20   S    
C38   C62   A    
C54   H6    S    
Cr6   O26   S    
C83   H16   S    
C91   C99   S    
C92   C100  S    
C15   C19   A    
C50   C71   S    
Cr2   O46   S    
C5    C9    A    
C26   H30   S    
C45   O29   A    
C36   H36   S    
C71   O51   A    
Cr1   O17   S    
C8    C12   A    
C7    C91   A    
Cr4   O24   S    
C33   C34   A    
C22   C90   A    
Cr8   O20   S    
C43   H3    S    
Cr12  O12   S    
C42   H2    S    
C86   C94   S    
C77   O13   A    
C85   C86   S    
C79   O43   A    
C42   C50   A    
C8    C92   A    
Cr11  O11   S    
Cr12  O40   S    
C2    O26   A    
C73   O9    A    
Cr5   O17   S    
C88   C96   S    
C40   H40   S    
C67   O3    A    
Cr10  O34   S    
C94   H46   S    
Cr7   O19   S    
C18   H26   S    
C56   H8    S    
C6    H18   S    
Cr9   O9    S    
C65   O1    A    
C48   O36   A    
Cr9   O37   S    
Cr10  O18   S    
C70   O46   A    
C89   C97   S    
Cr6   O6    S    
C95   H49   S    
C53   H5    S    
C25   C30   A    
Cr2   O18   S    
C68   O40   A    
C5    H17   S    
Cr1   O45   S    
C4    O28   A    
C55   H7    S    
C27   C32   A    
C28   H32   S    
C4    O24   A    
C59   C63   A    
C62   C78   S    
C28   C31   A    
C45   C81   S    
C21   C89   A    
C39   H39   S    
C69   O45   A    
Cr3   O23   S    
C72   O52   A    
C57   H9    S    
C75   O11   A    
C57   C61   A    
C45   O33   A    
C82   C85   D    
C39   C63   A    
Cr11  O19   S    
C14   H22   S    
Cr2   O42   S    
C13   C17   A    
C60   C64   A    
C27   H31   S    
Cr4   O48   S    
Cr9   O17   S    
C25   C26   A    
C13   H21   S    
C3    C10   S    
C6    C90   A    
Cr11  O15   S    
Cr12  O20   S    
Cr12  O36   S    
Cr7   O7    S    
C43   C51   A    
C84   H15   S    
C49   C53   A    
C40   C64   A    
C31   C35   A    
C1    O25   A    
C96   H51   S    
C34   H34   S    
C38   H38   S    
Cr11  O35   S    
C16   H24   S    
C37   C41   A    
C93   H41   S    
C5    C89   A    
C66   O2    A    
C60   H12   S    
C6    C10   A    
C24   C68   S    
Cr9   O13   S    
Cr3   O47   S    
C48   C84   S    
C40   C44   A    
C37   C61   A    
Cr7   O31   S    
C1    O21   A    
C39   C43   A    
C26   C29   A    
C59   H11   S    
C73   O5    A    
C54   C58   A    
C75   O7    A    
C58   H10   S    
Cr5   O5    S    
C85   C93   S    
C74   O6    A    
C15   H23   S    
C82   H13   S    
C71   O47   A    
C4    C9    S    
Cr4   O44   S    
C72   O48   A    
Cr9   O33   S    
C47   O31   A    
C52   C56   A    
C7    H19   S    
C48   O32   A    
Cr1   O41   S    
