data_mof_unit_32093.cif
_audit_creation_date              2012-12-10T18:38:10-0500
_audit_creation_method            fapswitch 2.2
_symmetry_space_group_name_H-M    P1
_symmetry_Int_Tables_number       1
_space_group_crystal_system       triclinic
_cell_length_a                    15.100973
_cell_length_b                    13.821613
_cell_length_c                    10.615916
_cell_angle_alpha                 90.172329
_cell_angle_beta                  89.975791
_cell_angle_gamma                 89.974162
_cell_volume                      2215.741468

loop_
_atom_site_label
_atom_site_type_symbol
_atom_type_description
_atom_site_fract_x
_atom_site_fract_y
_atom_site_fract_z
_atom_type_partial_charge
C1    C     C_R   0.329698 0.500027 0.499626 0.846718
C2    C     C_R   0.670017 0.499996 0.499967 0.844534
C3    C     C_R   0.548670 0.106899 0.590332 0.328288
C4    C     C_R   0.430196 0.893727 0.556263 0.327056
C5    C     C_R   0.451357 0.106655 0.409239 0.329847
C6    C     C_R   0.569696 0.893325 0.443200 0.328195
C7    C     C_R   0.549178 0.209414 0.586423 -0.068447
C8    C     C_R   0.431432 0.790998 0.553466 -0.087064
C9    C     C_R   0.450852 0.209191 0.413419 -0.075672
C10   C     C_R   0.568513 0.790629 0.446331 -0.074994
C11   C     C_R   0.500003 0.054597 0.499737 0.050458
C12   C     C_R   0.499958 0.945498 0.499703 0.058824
C13   C     C_R   0.499979 0.499782 0.259066 0.780074
C14   C     C_R   0.500031 0.500193 0.740938 0.780574
C15   C     C_3   0.427324 0.545809 0.042287 -0.172818
C16   C     C_3   0.572687 0.454014 0.957722 -0.174963
C17   C     C_3   0.500221 0.592040 0.959879 -0.135126
C18   C     C_3   0.499788 0.407789 0.040152 -0.139426
C19   C     C_3   0.427133 0.454488 0.957772 -0.174389
C20   C     C_3   0.572887 0.545342 0.042239 -0.171115
C21   C     C_3   0.500027 0.500631 0.877673 0.028134
C22   C     C_3   0.499988 0.499226 0.122341 0.030621
C23   C     C_R   0.094395 0.582542 0.453230 0.465982
C24   C     C_R   0.904002 0.435194 0.418873 0.467757
C25   C     C_R   0.904750 0.567775 0.571867 0.450862
C26   C     C_R   0.094130 0.417030 0.533991 0.440497
C27   C     C_R   0.187012 0.582993 0.459554 -0.329064
C28   C     C_R   0.811779 0.432709 0.424866 -0.305372
C29   C     C_R   0.812503 0.568654 0.569946 -0.289863
C30   C     C_R   0.186331 0.416856 0.532377 -0.288897
C31   C     C_R   0.233001 0.500082 0.497670 -0.165625
C32   C     C_R   0.766162 0.500078 0.498861 -0.168669
C33   C     C_R   0.047974 0.500248 0.494387 -0.054621
C34   C     C_R   0.950891 0.501023 0.495252 -0.064017
Cu1   Cu    Cu3+1 0.500000 0.596430 0.500000 0.932648
Cu2   Cu    Cu3+1 0.500000 0.403570 0.500000 0.934824
H1    H     H_    0.367575 0.417413 0.919889 0.124535
H2    H     H_    0.632444 0.582412 0.080141 0.119850
H3    H     H_    0.367917 0.583252 0.080208 0.123809
H4    H     H_    0.632065 0.416532 0.919773 0.120951
H5    H     H_    0.500375 0.667517 0.924339 0.131441
H6    H     H_    0.499565 0.332307 0.075713 0.122208
H7    H     H_    0.222969 0.647591 0.433172 0.169696
H8    H     H_    0.775864 0.380404 0.368355 0.171567
H9    H     H_    0.777154 0.621490 0.626452 0.177335
H10   H     H_    0.221173 0.351911 0.560678 0.186085
H11   H     H_    0.589144 0.249759 0.652746 0.146026
H12   H     H_    0.376993 0.750748 0.593278 0.145079
H13   H     H_    0.410924 0.249392 0.347177 0.146963
H14   H     H_    0.622932 0.750108 0.406531 0.146797
N1    N     N_R   0.500000 0.258690 0.500000 -0.206455
N2    N     N_R   0.500000 0.741310 0.500000 -0.202190
O1    O     O_R   0.371460 0.581430 0.500010 -0.588541
O2    O     O_R   0.628540 0.418570 0.499990 -0.573968
O3    O     O_R   0.628540 0.581430 0.499990 -0.585418
O4    O     O_R   0.371460 0.418570 0.500010 -0.578741
O5    O     O_R   0.499980 0.581420 0.316850 -0.580000
O6    O     O_R   0.500020 0.418580 0.683150 -0.588838
O7    O     O_R   0.500020 0.581420 0.683150 -0.583376
O8    O     O_R   0.499980 0.418580 0.316850 -0.592368
O9    O     O_3   0.047558 0.663220 0.413345 -0.535968
C35   C     C_3   0.072627 0.688643 0.289465 0.055718
H15   H     H_    0.084379 0.623968 0.228458 0.113005
H16   H     H_    0.133482 0.733840 0.291810 0.156798
C36   C     C_3   0.998682 0.747659 0.230037 -0.770480
H17   H     H_    0.985292 0.813287 0.287617 0.268321
H18   H     H_    0.018283 0.770254 0.133697 0.195591
H19   H     H_    0.937375 0.703482 0.224026 0.234266
O10   O     O_3   0.948634 0.371875 0.340231 -0.531554
C37   C     C_3   0.948459 0.410562 0.217240 0.057300
H20   H     H_    0.975050 0.485814 0.216197 0.129457
H21   H     H_    0.880201 0.410451 0.177544 0.132573
C38   C     C_3   0.007061 0.348639 0.132815 -0.775176
H22   H     H_    0.007279 0.378437 0.035743 0.178229
H23   H     H_    0.981690 0.273256 0.129756 0.255567
H24   H     H_    0.075947 0.348318 0.169488 0.252257
O11   O     O_3   0.948925 0.637111 0.641959 -0.526906
C39   C     C_3   0.968911 0.598642 0.761650 0.052972
H25   H     H_    0.023637 0.545202 0.753857 0.119338
H26   H     H_    0.910032 0.563845 0.806056 0.119398
C40   C     C_3   0.999860 0.679840 0.847954 -0.768542
H27   H     H_    0.946428 0.734404 0.859465 0.249819
H28   H     H_    0.016987 0.649962 0.941851 0.183012
H29   H     H_    0.059365 0.715355 0.807524 0.255271
O12   O     O_3   0.049824 0.332970 0.565633 -0.527201
C41   C     C_3   0.033186 0.333124 0.696470 0.038692
H30   H     H_    0.979106 0.384872 0.719154 0.119744
H31   H     H_    0.093489 0.351919 0.752115 0.122702
C42   C     C_3   0.003079 0.232787 0.736192 -0.728022
H32   H     H_    0.988855 0.232302 0.838848 0.187498
H33   H     H_    0.055857 0.178988 0.715691 0.249346
H34   H     H_    0.942016 0.212320 0.684261 0.260450
O13   O     O_3   0.599366 0.056826 0.677042 -0.551276
C43   C     C_3   0.568731 0.076805 0.800160 0.061090
H35   H     H_    0.494957 0.075355 0.806039 0.132462
H36   H     H_    0.593256 0.148597 0.832327 0.136608
C44   C     C_3   0.604421 0.000132 0.889109 -0.802683
H37   H     H_    0.578324 0.927865 0.862092 0.240332
H38   H     H_    0.677888 0.998691 0.884888 0.260444
H39   H     H_    0.583608 0.016752 0.987063 0.194331
O14   O     O_3   0.358724 0.945067 0.604327 -0.553591
C45   C     C_3   0.340890 0.917443 0.729809 0.055828
H40   H     H_    0.402771 0.910191 0.786432 0.128700
H41   H     H_    0.303604 0.848149 0.731582 0.143734
C46   C     C_3   0.283358 0.994575 0.791382 -0.773634
H42   H     H_    0.221426 0.004519 0.736498 0.263715
H43   H     H_    0.265762 0.972180 0.888529 0.196504
H44   H     H_    0.319680 0.064380 0.795427 0.233809
O15   O     O_3   0.400699 0.056333 0.322370 -0.550996
C47   C     C_3   0.431019 0.076300 0.199249 0.062437
H45   H     H_    0.504792 0.075240 0.193105 0.130795
H46   H     H_    0.406059 0.147912 0.167552 0.135276
C48   C     C_3   0.395574 0.999316 0.110000 -0.805432
H47   H     H_    0.422052 0.927216 0.136572 0.239976
H48   H     H_    0.416177 0.015879 0.012073 0.195208
H49   H     H_    0.322121 0.997524 0.114415 0.259610
O16   O     O_3   0.641081 0.944265 0.394703 -0.552242
C49   C     C_3   0.658350 0.916061 0.269047 0.053167
H50   H     H_    0.596240 0.909246 0.212806 0.130107
H51   H     H_    0.695128 0.846406 0.266833 0.143588
C50   C     C_3   0.716258 0.992406 0.207289 -0.765994
H52   H     H_    0.778441 0.001865 0.261792 0.266258
H53   H     H_    0.733367 0.969514 0.109980 0.196040
H54   H     H_    0.680456 0.062563 0.203653 0.234153

loop_
_geom_bond_atom_site_label_1
_geom_bond_atom_site_label_2
_ccdc_geom_bond_type
O13   C43   S    
Cu1   O1    S    
C38   H22   S    
Cu1   Cu2   S    
C9    N1    A    
C3    C11   A    
C4    C8    A    
C10   N2    A    
C44   H39   S    
C49   H51   S    
C40   H27   S    
C13   O8    A    
O11   C39   S    
C15   C19   S    
C14   O7    A    
C46   H43   S    
C16   C21   S    
C25   O11   S    
C14   C21   S    
C2    C32   S    
C19   C21   S    
C1    O4    A    
C5    C11   A    
C29   C32   A    
C3    C7    A    
C2    O3    A    
C18   H6    S    
C6    C12   A    
C30   C31   A    
C39   H26   S    
C13   O5    A    
C1    C31   S    
C17   C20   S    
C45   C46   S    
Cu1   O7    S    
C18   C19   S    
C1    O1    A    
C49   H50   S    
C50   H54   S    
C35   H16   S    
C19   H1    S    
C44   H38   S    
C47   H45   S    
C15   C22   S    
C36   H18   S    
C37   H20   S    
C23   C27   A    
C42   H33   S    
C8    N2    A    
C6    O16   S    
O9    C35   S    
C25   C34   A    
C48   H49   S    
C18   C22   S    
C38   H23   S    
O10   C37   S    
C40   H28   S    
C24   O10   S    
C44   H37   S    
C47   H46   S    
C25   C29   A    
C14   O6    A    
C46   H44   S    
C27   C31   A    
C45   H40   S    
O14   C45   S    
C28   C32   A    
C9    H13   S    
C2    O2    A    
C39   H25   S    
C43   C44   S    
C23   C33   A    
O12   C41   S    
Cu1   O3    S    
C28   H8    S    
C24   C34   A    
C29   H9    S    
C49   C50   S    
C7    H11   S    
C45   H41   S    
C8    H12   S    
C5    C9    A    
C35   H15   S    
Cu2   O4    S    
C20   H2    S    
C26   C33   A    
C16   C20   S    
C36   H19   S    
C4    O14   S    
C37   C38   S    
C33   C34   S    
C3    O13   S    
C42   H34   S    
C43   H36   S    
C47   C48   S    
C15   H3    S    
C50   H52   S    
Cu2   N1    S    
C16   H4    S    
C20   C22   S    
C26   C30   A    
C38   H24   S    
C4    C12   A    
C10   H14   S    
C40   H29   S    
C48   H47   S    
C15   C17   S    
C35   C36   S    
C41   H30   S    
C30   H10   S    
C24   C28   A    
Cu2   O8    S    
C41   C42   S    
C6    C10   A    
C11   C12   S    
C46   H42   S    
Cu2   O6    S    
Cu1   O5    S    
C7    N1    A    
O16   C49   S    
C39   C40   S    
C5    O15   S    
C26   O12   S    
C13   C22   S    
C41   H31   S    
C43   H35   S    
C17   H5    S    
C50   H53   S    
Cu2   O2    S    
C27   H7    S    
C23   O9    S    
C16   C18   S    
C36   H17   S    
Cu1   N2    S    
C37   H21   S    
C42   H32   S    
O15   C47   S    
C48   H48   S    
C17   C21   S    
