data_mof_unit_67231.cif
_audit_creation_date              2012-12-11T18:15:37-0500
_audit_creation_method            fapswitch 2.2
_symmetry_space_group_name_H-M    P1
_symmetry_Int_Tables_number       1
_space_group_crystal_system       triclinic
_cell_length_a                    19.942427
_cell_length_b                    20.377573
_cell_length_c                    8.336942
_cell_angle_alpha                 90.00688
_cell_angle_beta                  91.004415
_cell_angle_gamma                 90.019364
_cell_volume                      3387.43121218

loop_
_atom_site_label
_atom_site_type_symbol
_atom_type_description
_atom_site_fract_x
_atom_site_fract_y
_atom_site_fract_z
_atom_type_partial_charge
Ba1   Ba    Ba6+2 0.999980 0.452130 0.155200 1.680891
Ba2   Ba    Ba6+2 0.999980 0.547870 0.655200 1.680865
Ba3   Ba    Ba6+2 0.499980 0.952130 0.155200 1.681427
Ba4   Ba    Ba6+2 0.499980 0.047870 0.655200 1.681597
C1    C     C_3   0.951701 0.139474 0.379667 -0.314405
C2    C     C_R   0.114642 0.661566 0.175230 -0.297754
C3    C     C_R   0.614774 0.838701 0.674975 -0.297853
C4    C     C_R   0.614659 0.161517 0.175361 -0.297013
C5    C     C_R   0.128566 0.287298 0.569727 -0.002222
C6    C     C_R   0.128369 0.712783 0.069843 -0.002674
C7    C     C_R   0.628597 0.787350 0.569645 -0.001824
C8    C     C_R   0.628452 0.212680 0.069948 -0.001195
C9    C     C_R   0.177677 0.241010 0.611005 -0.135916
C10   C     C_R   0.177621 0.759270 0.111110 -0.136353
C11   C     C_R   0.677639 0.741010 0.611070 -0.135925
C12   C     C_3   0.951784 0.860430 0.877706 -0.312194
C13   C     C_R   0.677677 0.259189 0.111175 -0.136177
C14   C     C_R   0.215154 0.246782 0.755483 0.001730
C15   C     C_R   0.214907 0.753167 0.255667 0.001859
C16   C     C_R   0.715066 0.746765 0.755626 0.001789
C17   C     C_R   0.714937 0.253104 0.255737 0.001701
C18   C     C_R   0.205015 0.302293 0.856343 -0.018056
C19   C     C_R   0.204957 0.698016 0.356493 -0.018771
C20   C     C_R   0.704937 0.802290 0.856440 -0.018585
C21   C     C_R   0.704973 0.197965 0.356583 -0.019196
C22   C     C_R   0.806959 0.705619 0.932116 -0.029912
C23   C     C_3   0.451474 0.639664 0.381144 -0.315432
C24   C     C_R   0.806930 0.294211 0.432157 -0.029918
C25   C     C_R   0.307187 0.205684 0.931702 -0.028393
C26   C     C_R   0.306888 0.794315 0.432202 -0.029626
C27   C     C_R   0.798019 0.762212 0.030563 -0.009259
C28   C     C_R   0.798099 0.237997 0.530658 -0.009197
C29   C     C_R   0.298162 0.262213 0.030295 -0.009174
C30   C     C_R   0.297951 0.738173 0.530854 -0.009138
C31   C     C_R   0.859170 0.659026 0.972431 0.097330
C32   C     C_R   0.859304 0.341035 0.472413 0.096827
C33   C     C_R   0.359460 0.159103 0.971935 0.101531
C34   C     C_3   0.454458 0.362003 0.881694 -0.313024
C35   C     C_R   0.359262 0.841162 0.472578 0.099352
C36   C     C_R   0.903409 0.674280 0.100517 -0.251753
C37   C     C_R   0.903408 0.325678 0.600612 -0.252013
C38   C     C_R   0.403540 0.174213 0.100381 -0.251531
C39   C     C_R   0.402962 0.826165 0.601702 -0.251921
C40   C     C_3   0.030003 0.202321 0.914744 0.372087
C41   C     C_3   0.030320 0.797309 0.414264 0.373275
C42   C     C_3   0.528768 0.702316 0.916200 0.372443
C43   C     C_3   0.530430 0.296403 0.415935 0.373956
C44   C     C_R   0.888934 0.725229 0.209263 0.004073
C45   C     C_R   0.152848 0.348494 0.816467 0.045337
C46   C     C_R   0.888977 0.274824 0.709379 0.004401
C47   C     C_R   0.388896 0.225051 0.209215 0.004793
C48   C     C_R   0.388398 0.775352 0.710318 0.005738
C49   C     C_R   0.837290 0.769408 0.171686 -0.126788
C50   C     C_R   0.837189 0.230542 0.671851 -0.126694
C51   C     C_R   0.337330 0.269302 0.171561 -0.127718
C52   C     C_R   0.336819 0.730891 0.672415 -0.126834
C53   C     C_R   0.763368 0.698669 0.797016 -0.027147
C54   C     C_R   0.763478 0.301460 0.297042 -0.026688
C55   C     C_R   0.263522 0.198720 0.796724 -0.025770
C56   C     C_R   0.152661 0.651507 0.316544 0.045309
C57   C     C_R   0.263438 0.801541 0.297042 -0.026148
C58   C     C_3   0.059483 0.133806 0.941805 -0.334525
C59   C     C_3   0.060259 0.865416 0.440723 -0.335765
C60   C     C_3   0.557766 0.633560 0.942860 -0.334634
C61   C     C_3   0.559736 0.365067 0.437192 -0.340012
C62   C     C_3   0.764634 0.486436 0.824178 0.372067
C63   C     C_3   0.763708 0.513679 0.325749 0.371657
C64   C     C_3   0.262595 0.988780 0.824144 0.373484
C65   C     C_3   0.262784 0.012052 0.325729 0.374437
C66   C     C_3   0.697087 0.459271 0.886119 -0.369594
C67   C     C_R   0.652822 0.848515 0.816448 0.045051
C68   C     C_3   0.696660 0.540420 0.389984 -0.361793
C69   C     C_3   0.193710 0.963931 0.884574 -0.367455
C70   C     C_3   0.195155 0.037715 0.389473 -0.368465
C71   C     C_3   0.191289 0.540198 0.978401 0.336130
C72   C     C_3   0.191556 0.459913 0.478366 0.335391
C73   C     C_3   0.691333 0.040162 0.978564 0.335516
C74   C     C_3   0.691826 0.960078 0.479283 0.335631
C75   C     C_3   0.255464 0.580831 0.982563 -0.000936
C76   C     C_3   0.255863 0.419489 0.483042 -0.002205
C77   C     C_3   0.755531 0.080759 0.982948 -0.000276
C78   C     C_R   0.652646 0.151492 0.316676 0.045142
C79   C     C_3   0.756286 0.919872 0.484384 -0.000432
C80   C     C_3   0.984940 0.206192 0.405749 0.332840
C81   C     C_3   0.984927 0.794150 0.905534 0.330840
C82   C     C_3   0.484839 0.706353 0.406709 0.332879
C83   C     C_3   0.486166 0.295047 0.907814 0.325802
C84   C     C_R   0.248114 0.309211 0.992031 -0.016465
C85   C     C_R   0.247814 0.690844 0.492360 -0.017323
C86   C     C_R   0.748015 0.809224 0.992165 -0.017617
C87   C     C_R   0.747892 0.190728 0.492309 -0.017240
C88   C     C_R   0.114734 0.338628 0.675111 -0.298057
H1    H     H_    0.949909 0.244560 0.359554 0.066236
H2    H     H_    0.693360 0.595570 0.380965 0.101808
H3    H     H_    0.189188 0.908944 0.876369 0.105503
H4    H     H_    0.193538 0.092296 0.397706 0.103858
H5    H     H_    0.694118 0.463182 0.018842 0.115858
H6    H     H_    0.689993 0.528564 0.519924 0.116117
H7    H     H_    0.186330 0.976386 0.013834 0.119212
H8    H     H_    0.184876 0.019366 0.511674 0.119831
H9    H     H_    0.168119 0.541183 0.097908 -0.018111
H10   H     H_    0.168238 0.458864 0.597681 -0.017406
H11   H     H_    0.668158 0.041072 0.098072 -0.017484
H12   H     H_    0.949918 0.755692 0.861180 0.065073
H13   H     H_    0.668633 0.959315 0.598752 -0.017221
H14   H     H_    0.156599 0.561837 0.886970 0.033338
H15   H     H_    0.157076 0.438170 0.386698 0.033073
H16   H     H_    0.656657 0.061882 0.887211 0.033148
H17   H     H_    0.657323 0.937983 0.388130 0.031505
H18   H     H_    0.245009 0.631417 0.024362 0.012971
H19   H     H_    0.245362 0.368780 0.523581 0.013750
H20   H     H_    0.745123 0.131288 0.025215 0.012926
H21   H     H_    0.746089 0.869407 0.527107 0.012819
H22   H     H_    0.276367 0.583589 0.860092 0.106540
H23   H     H_    0.449811 0.744734 0.360577 0.065379
H24   H     H_    0.277283 0.417224 0.361092 0.107607
H25   H     H_    0.776385 0.083690 0.860457 0.106347
H26   H     H_    0.777302 0.916876 0.362124 0.106603
H27   H     H_    0.993556 0.212929 0.536245 -0.062407
H28   H     H_    0.993646 0.788203 0.035816 -0.060867
H29   H     H_    0.493603 0.713201 0.537122 -0.062206
H30   H     H_    0.495448 0.288886 0.037864 -0.057956
H31   H     H_    0.920898 0.126580 0.485497 0.102763
H32   H     H_    0.920455 0.873280 0.982632 0.101619
H33   H     H_    0.420846 0.626850 0.487325 0.102153
H34   H     H_    0.450110 0.257393 0.863996 0.064019
H35   H     H_    0.417282 0.371435 0.978459 0.102478
H36   H     H_    0.917952 0.142176 0.272151 0.164095
H37   H     H_    0.918353 0.857291 0.770246 0.163621
H38   H     H_    0.417536 0.642360 0.273967 0.163815
H39   H     H_    0.427399 0.362253 0.763183 0.172148
H40   H     H_    0.089058 0.118854 0.835825 0.062869
H41   H     H_    0.089697 0.880232 0.334566 0.063601
H42   H     H_    0.585915 0.617855 0.835239 0.063280
H43   H     H_    0.590177 0.378254 0.331366 0.063831
H44   H     H_    0.076455 0.374009 0.641521 0.061717
H45   H     H_    0.654596 0.486630 0.830724 0.099860
H46   H     H_    0.076290 0.626100 0.141733 0.061597
H47   H     H_    0.576536 0.874113 0.641308 0.061663
H48   H     H_    0.576307 0.126053 0.141845 0.061193
H49   H     H_    0.187645 0.201241 0.528242 0.078839
H50   H     H_    0.187492 0.799004 0.028342 0.080328
H51   H     H_    0.687574 0.701191 0.528423 0.078313
H52   H     H_    0.687550 0.298918 0.028376 0.079704
H53   H     H_    0.826112 0.808122 0.256476 0.080942
H54   H     H_    0.826025 0.191956 0.756718 0.081421
H55   H     H_    0.326085 0.307949 0.256484 0.081328
H56   H     H_    0.653334 0.518482 0.321111 0.095398
H57   H     H_    0.325613 0.692325 0.757302 0.081038
H58   H     H_    0.943601 0.640336 0.129217 0.077067
H59   H     H_    0.943665 0.359678 0.629272 0.077105
H60   H     H_    0.443615 0.140177 0.129381 0.076787
H61   H     H_    0.443018 0.860326 0.630844 0.076707
H62   H     H_    0.243364 0.351502 0.069066 0.107216
H63   H     H_    0.243105 0.648687 0.569414 0.107524
H64   H     H_    0.743313 0.851557 0.069076 0.107563
H65   H     H_    0.743219 0.148538 0.569272 0.108031
H66   H     H_    0.767111 0.656390 0.719789 0.111413
H67   H     H_    0.152380 0.986714 0.812236 0.093470
H68   H     H_    0.767184 0.343577 0.219761 0.112216
H69   H     H_    0.267234 0.156446 0.719483 0.110781
H70   H     H_    0.267095 0.843694 0.219866 0.112283
H71   H     H_    0.989648 0.100408 0.361222 0.143249
H72   H     H_    0.989474 0.899410 0.859147 0.143431
H73   H     H_    0.489337 0.600545 0.362391 0.143229
H74   H     H_    0.493259 0.401441 0.883740 0.135517
H75   H     H_    0.064126 0.239776 0.969559 0.063673
H76   H     H_    0.064181 0.759899 0.469361 0.064469
H77   H     H_    0.563039 0.739481 0.971685 0.064953
H78   H     H_    0.153060 0.021725 0.310391 0.091535
H79   H     H_    0.564077 0.260062 0.476012 0.069728
H80   H     H_    0.026441 0.210930 0.783543 -0.086770
H81   H     H_    0.026920 0.788451 0.283591 -0.087655
H82   H     H_    0.525517 0.711206 0.785072 -0.087091
H83   H     H_    0.528248 0.285363 0.286058 -0.090099
H84   H     H_    0.093068 0.133786 0.049807 0.120536
H85   H     H_    0.094028 0.865336 0.547850 0.119733
H86   H     H_    0.592603 0.633579 0.048619 0.118242
H87   H     H_    0.592393 0.366981 0.546203 0.120237
H88   H     H_    0.019082 0.096971 0.960213 0.154790
H89   H     H_    0.691132 0.405771 0.858761 0.103492
H90   H     H_    0.020094 0.902364 0.459661 0.154549
H91   H     H_    0.517229 0.597212 0.964860 0.156102
H92   H     H_    0.519153 0.402081 0.450030 0.154132
H93   H     H_    0.761983 0.497589 0.695556 0.064172
H94   H     H_    0.760355 0.503235 0.196805 0.064925
H95   H     H_    0.260340 0.001310 0.695945 0.065823
H96   H     H_    0.259621 0.999795 0.197554 0.065720
I1    I     I_    0.329084 0.537010 0.138793 -0.441141
I2    I     I_    0.328814 0.462767 0.641677 -0.440564
I3    I     I_    0.829187 0.036667 0.138622 -0.439684
I4    I     I_    0.829699 0.964415 0.639753 -0.440809
I5    I     I_    0.832901 0.412887 0.857881 -0.412624
I6    I     I_    0.833005 0.586844 0.357193 -0.412135
I7    I     I_    0.328781 0.912732 0.856751 -0.419865
I8    I     I_    0.330907 0.086902 0.354426 -0.415670
O1    O     O_2   0.130070 0.404060 0.104920 -0.470454
O2    O     O_3   0.967049 0.794583 0.484252 -0.578817
O3    O     O_3   0.465414 0.705674 0.985946 -0.579135
O4    O     O_3   0.466627 0.294411 0.483517 -0.580887
O5    O     O_3   0.924190 0.533610 0.949240 -0.451829
O6    O     O_3   0.924190 0.466390 0.449240 -0.452433
O7    O     O_3   0.424190 0.033610 0.949240 -0.452222
O8    O     O_3   0.424190 0.966390 0.449240 -0.452427
O9    O     O_3   0.075780 0.466370 0.861070 -0.496175
O10   O     O_3   0.075780 0.533630 0.361070 -0.496084
O11   O     O_3   0.575780 0.966370 0.861070 -0.496718
O12   O     O_2   0.130070 0.595940 0.604920 -0.470496
O13   O     O_3   0.575780 0.033630 0.361070 -0.496183
O14   O     O_3   0.022320 0.344950 0.359800 -0.493296
O15   O     O_3   0.022320 0.655050 0.859800 -0.492880
O16   O     O_3   0.522320 0.844950 0.359800 -0.493498
O17   O     O_3   0.522320 0.155050 0.859800 -0.492584
O18   O     O_2   0.133484 0.295150 0.235153 -0.488823
O19   O     O_2   0.133479 0.704870 0.735394 -0.488959
O20   O     O_2   0.633352 0.795001 0.234874 -0.489131
O21   O     O_2   0.633803 0.204574 0.735885 -0.490160
O22   O     O_3   0.208058 0.475948 0.938008 -0.599578
O23   O     O_2   0.630070 0.904060 0.104920 -0.470037
O24   O     O_3   0.208192 0.524199 0.438024 -0.600282
O25   O     O_3   0.708069 0.975936 0.937870 -0.600128
O26   O     O_3   0.708238 0.024273 0.437672 -0.600143
O27   O     O_3   0.046111 0.209103 0.325156 -0.585203
O28   O     O_3   0.045915 0.790965 0.824552 -0.585110
O29   O     O_3   0.545924 0.709112 0.325694 -0.585778
O30   O     O_3   0.546523 0.290941 0.824537 -0.585384
O31   O     O_2   0.869860 0.403670 0.205810 -0.453136
O32   O     O_2   0.869860 0.596330 0.705810 -0.454271
O33   O     O_2   0.369860 0.903670 0.205810 -0.453924
O34   O     O_2   0.630070 0.095940 0.604920 -0.470668
O35   O     O_2   0.369860 0.096330 0.705810 -0.455477
O36   O     O_3   0.977590 0.344880 0.951200 -0.456325
O37   O     O_3   0.977590 0.655120 0.451200 -0.456228
O38   O     O_3   0.477590 0.844880 0.951200 -0.457916
O39   O     O_3   0.477590 0.155120 0.451200 -0.457485
O40   O     O_2   0.868750 0.283906 0.039256 -0.458790
O41   O     O_2   0.868799 0.716194 0.539225 -0.459158
O42   O     O_2   0.368104 0.785115 0.040181 -0.458215
O43   O     O_2   0.368482 0.215775 0.539270 -0.458309
O44   O     O_3   0.781789 0.457499 0.411579 -0.654550
O45   O     O_3   0.782242 0.542177 0.912228 -0.653238
O46   O     O_3   0.282154 0.957268 0.414856 -0.654703
O47   O     O_3   0.282180 0.043083 0.915034 -0.653881
O48   O     O_3   0.966765 0.205364 0.985096 -0.578343
P1    P     P_3+3 0.136530 0.426510 0.931350 0.999941
P2    P     P_3+3 0.926192 0.723638 0.417330 0.991748
P3    P     P_3+3 0.425338 0.776962 0.918384 0.992816
P4    P     P_3+3 0.425847 0.223313 0.417369 0.993299
P5    P     P_3+3 0.083961 0.715919 0.873333 0.946498
P6    P     P_3+3 0.084084 0.284220 0.373320 0.946856
P7    P     P_3+3 0.584152 0.215746 0.873464 0.945388
P8    P     P_3+3 0.584054 0.784205 0.373322 0.946151
P9    P     P_3+3 0.136530 0.573490 0.431350 0.999497
P10   P     P_3+3 0.636530 0.926510 0.931350 0.999164
P11   P     P_3+3 0.636530 0.073490 0.431350 0.999093
P12   P     P_3+3 0.863410 0.426100 0.379280 1.031714
P13   P     P_3+3 0.863410 0.573900 0.879280 1.031680
P14   P     P_3+3 0.363410 0.926100 0.379280 1.033014
P15   P     P_3+3 0.363410 0.073900 0.879280 1.032753
P16   P     P_3+3 0.926131 0.276349 0.917539 0.991882

loop_
_geom_bond_atom_site_label_1
_geom_bond_atom_site_label_2
_ccdc_geom_bond_type
Ba3   O13   S    
C3    H47   S    
C53   H66   S    
C10   H50   S    
C29   C51   A    
O23   P10   D    
C77   H25   S    
C23   C82   S    
C85   H63   S    
Ba3   O7    S    
C31   P13   S    
Ba1   O1    S    
Ba2   O6    S    
Ba1   O5    S    
C24   C54   A    
Ba3   O33   S    
C40   H80   S    
C34   H35   S    
Ba2   O32   S    
C68   H6    S    
O26   P11   S    
C12   H72   S    
C3    C7    A    
Ba2   O15   S    
C32   P12   S    
C8    P7    S    
O45   P13   S    
C9    C14   A    
O39   P4    S    
C74   H13   S    
C4    C78   A    
C66   H45   S    
C59   H41   S    
C79   H26   S    
O11   P10   S    
O2    P2    S    
Ba1   Ba2   S    
O9    P1    S    
Ba3   O38   S    
C58   H88   S    
C39   C48   A    
Ba4   O8    S    
C28   C87   A    
C64   O47   S    
C25   C29   A    
C63   O44   S    
Ba3   O16   S    
C2    H46   S    
C76   H19   S    
C34   H74   S    
C63   C68   S    
C27   C86   A    
C33   C38   A    
C5    C9    A    
C77   I3    S    
C44   P2    S    
C66   H89   S    
C72   O24   S    
O25   P10   S    
C60   H91   S    
C7    C11   A    
C74   C79   S    
O6    P12   S    
C25   C55   A    
C64   H95   S    
O48   P16   S    
C8    C13   A    
O18   P6    D    
C42   H82   S    
C9    H49   S    
O16   P8    S    
C63   I6    S    
C38   H60   S    
Ba1   P12   S    
C4    C8    A    
C38   C47   A    
C50   H54   S    
C68   H2    S    
O33   P14   D    
Ba1   O31   S    
C69   H67   S    
C22   C27   A    
C59   H90   S    
C74   H17   S    
Ba3   O8    S    
O46   P14   S    
C12   H37   S    
O4    P4    S    
C32   C37   A    
C11   C16   A    
Ba2   O5    S    
O8    P14   S    
C30   C52   A    
Ba1   O6    S    
C5    C88   A    
C28   C50   A    
C81   O28   S    
O7    P15   S    
C75   H22   S    
C72   H10   S    
C19   C56   A    
O41   P2    D    
C60   H42   S    
O44   P12   S    
C70   H4    S    
C21   C87   A    
C26   C30   A    
C31   C36   A    
C57   H70   S    
Ba4   O35   S    
C58   H40   S    
C79   I4    S    
C24   C28   A    
O37   P2    S    
O34   P11   D    
C6    C10   A    
O14   P6    S    
C1    C80   S    
O32   P13   D    
Ba4   O7    S    
C35   C39   A    
C61   H87   S    
C71   O22   S    
C40   C58   S    
C64   C69   S    
C68   H56   S    
O35   P15   D    
C41   C59   S    
C65   I8    S    
O15   P5    S    
C42   C60   S    
C82   H23   S    
C40   H75   S    
C84   H62   S    
O42   P3    D    
C81   H28   S    
C15   C19   A    
O22   P1    S    
C67   P10   S    
C87   H65   S    
C55   H69   S    
C35   P14   S    
C2    C56   A    
O38   P3    S    
C60   H86   S    
C14   C55   A    
Ba2   O37   S    
C51   H55   S    
C77   H20   S    
C73   C77   S    
O20   P8    D    
C83   O30   S    
C58   H84   S    
O24   P9    S    
C82   H29   S    
C49   H53   S    
C19   C85   A    
O40   P16   D    
C36   H58   S    
C65   C70   S    
Ba2   O9    S    
O47   P15   S    
C88   H44   S    
C5    P6    S    
Ba1   O10   S    
C65   H96   S    
C61   H43   S    
C81   H12   S    
C62   H93   S    
O28   P5    S    
C74   O26   S    
C18   C45   A    
C11   H51   S    
O27   P6    S    
C73   O25   S    
C23   H73   S    
C72   H15   S    
C18   C84   A    
C13   H52   S    
C75   I1    S    
C12   C81   S    
Ba4   O39   S    
C43   O4    S    
C27   C49   A    
Ba2   O12   S    
O12   P9    D    
C69   H3    S    
C45   C88   A    
C86   H64   S    
Ba3   Ba4   S    
Ba2   P9    S    
C1    H71   S    
C37   C46   A    
C62   I5    S    
C40   O48   S    
Ba4   O11   S    
O19   P5    D    
C79   H21   S    
C69   H7    S    
C17   C21   A    
C36   C44   A    
Ba4   P11   S    
Ba4   O17   S    
C41   H81   S    
C75   H18   S    
Ba1   O14   S    
C14   C18   A    
C76   I2    S    
C10   C15   A    
C29   C84   A    
C73   H16   S    
C76   H24   S    
C72   C76   S    
O30   P7    S    
C80   O27   S    
C20   C86   A    
C2    C6    A    
C83   H30   S    
C43   H79   S    
C48   P3    S    
C66   H5    S    
O31   P12   D    
C37   H59   S    
C62   O45   S    
O3    P3    S    
C44   C49   A    
Ba4   P15   S    
Ba3   P14   S    
C1    H31   S    
C7    P8    S    
C59   H85   S    
C42   H77   S    
C34   C83   S    
C4    H48   S    
C6    P5    S    
C34   H39   S    
C47   P4    S    
C41   O2    S    
C30   C85   A    
C17   C54   A    
C46   C50   A    
C54   H68   S    
O13   P11   S    
C3    C67   A    
O29   P8    S    
C23   H33   S    
Ba1   O36   S    
C42   O3    S    
C21   C78   A    
C46   P16   S    
C15   C57   A    
C80   H27   S    
C1    H36   S    
O1    P1    D    
C56   P9    S    
Ba3   P10   S    
C43   C61   S    
C26   C35   A    
O17   P7    S    
C64   I7    S    
C47   C51   A    
C80   H1    S    
C12   H32   S    
C65   O46   S    
C22   C53   A    
O5    P13   S    
C70   H78   S    
C63   H94   S    
C73   H11   S    
C41   H76   S    
C45   P1    S    
C22   C31   A    
C82   O29   S    
Ba2   P13   S    
C70   H8    S    
C62   C66   S    
C24   C32   A    
C71   H14   S    
Ba3   O23   S    
O36   P16   S    
C26   C57   A    
C25   C33   A    
C71   H9    S    
C23   H38   S    
C52   H57   S    
O43   P4    D    
Ba1   P1    S    
O21   P7    D    
C33   P15   S    
C16   C53   A    
C39   H61   S    
O10   P9    S    
C71   C75   S    
C16   C20   A    
C83   H34   S    
C43   H83   S    
C78   P11   S    
C48   C52   A    
C20   C67   A    
Ba4   O34   S    
C61   H92   S    
C13   C17   A    
