data_mof_unit_17459.cif
_audit_creation_date              2013-03-05T16:45:08-0500
_audit_creation_method            fapswitch 2.2
_symmetry_space_group_name_H-M    P1
_symmetry_Int_Tables_number       1
_space_group_crystal_system       triclinic
_cell_length_a                    14.844245
_cell_length_b                    15.595102
_cell_length_c                    9.899752
_cell_angle_alpha                 89.096164
_cell_angle_beta                  88.189381
_cell_angle_gamma                 90.22549
_cell_volume                      2290.31621127

loop_
_atom_site_label
_atom_site_type_symbol
_atom_site_description
_atom_site_fract_x
_atom_site_fract_y
_atom_site_fract_z
_atom_type_partial_charge
O1    O     O_R   0.408400 0.908380 0.614690 -0.606785
O2    O     O_R   0.408400 0.091620 0.614690 -0.598584
O3    O     O_R   0.908400 0.408380 0.614690 -0.627264
O4    O     O_R   0.908400 0.591620 0.614690 -0.606309
O5    O     O_R   0.408370 0.908370 0.385350 -0.588205
O6    O     O_R   0.408370 0.091630 0.385350 -0.607415
O7    O     O_R   0.908370 0.408370 0.385350 -0.582143
O8    O     O_R   0.908370 0.591630 0.385350 -0.606373
C1    C     C_R   0.380541 0.879823 0.501330 0.877532
C2    C     C_R   0.386753 0.124663 0.499552 0.931357
C3    C     C_R   0.881714 0.378502 0.502090 0.900265
C4    C     C_R   0.883658 0.623029 0.500112 0.944280
Zn1   Zn    Zn3+2 0.500010 0.000000 0.653130 1.025761
Zn2   Zn    Zn3+2 0.000010 0.500000 0.653130 1.032932
Zn3   Zn    Zn3+2 0.499980 0.000000 0.346870 1.050517
Zn4   Zn    Zn3+2 0.999980 0.500000 0.346870 1.027406
O9    O     O_R   0.591610 0.091610 0.614650 -0.634248
O10   O     O_R   0.591610 0.908390 0.614650 -0.601017
O11   O     O_R   0.091610 0.591610 0.614650 -0.565249
O12   O     O_R   0.091610 0.408390 0.614650 -0.609653
O13   O     O_R   0.591590 0.091600 0.385310 -0.658197
O14   O     O_R   0.591590 0.908400 0.385310 -0.575229
O15   O     O_R   0.091590 0.591600 0.385310 -0.651744
O16   O     O_R   0.091590 0.408400 0.385310 -0.643468
C5    C     C_R   0.624774 0.114467 0.497560 0.819290
C6    C     C_R   0.625120 0.885229 0.498611 0.812077
C7    C     C_R   0.121191 0.618205 0.498163 0.811710
C8    C     C_R   0.122990 0.382879 0.498441 0.825862
C9    C     C_R   0.289380 0.226494 0.612805 0.005467
C10   C     C_R   0.227862 0.828535 0.524582 0.086520
C11   C     C_R   0.780757 0.721397 0.614247 0.071012
C12   C     C_R   0.742604 0.309945 0.583431 0.118653
C13   C     C_R   0.332393 0.199578 0.495905 -0.147936
C14   C     C_R   0.318267 0.810386 0.499788 -0.169562
C15   C     C_R   0.830798 0.699951 0.499475 -0.114815
C16   C     C_R   0.822201 0.306302 0.504605 -0.188914
C17   C     C_R   0.316196 0.244460 0.372767 -0.069929
C18   C     C_R   0.344363 0.729057 0.448291 -0.038995
C19   C     C_R   0.830402 0.757139 0.386315 -0.123214
C20   C     C_R   0.839113 0.236212 0.417059 -0.035123
C21   C     C_R   0.763479 0.821704 0.383121 -0.016340
C22   C     C_R   0.769828 0.174865 0.401590 -0.005345
C23   C     C_R   0.244417 0.303540 0.370182 -0.066656
C24   C     C_R   0.277087 0.664543 0.438070 -0.003854
C25   C     C_R   0.703328 0.830906 0.497323 -0.175652
C26   C     C_R   0.695139 0.176328 0.493303 -0.103597
C27   C     C_R   0.197215 0.324224 0.493140 -0.125111
C28   C     C_R   0.190229 0.681135 0.493553 -0.079465
C29   C     C_R   0.724498 0.789196 0.616996 -0.001129
C30   C     C_R   0.687030 0.240147 0.586469 -0.108455
C31   C     C_R   0.227020 0.287955 0.611785 -0.059142
C32   C     C_R   0.167742 0.762814 0.533599 -0.136747
C33   C     C_3   0.673792 0.756078 0.741546 0.090221
C34   C     C_3   0.673818 0.234674 0.736712 0.112855
C35   C     C_3   0.218795 0.291144 0.762786 0.091757
C36   C     C_3   0.114144 0.799545 0.649556 0.102820
C37   C     C_3   0.289994 0.218799 0.763761 0.058653
C38   C     C_3   0.178823 0.876676 0.634863 0.032258
C39   C     C_3   0.736455 0.677709 0.734637 -0.022673
C40   C     C_3   0.727804 0.317439 0.734933 -0.004468
H1    H     H_    0.356145 0.236662 0.805219 0.172330
H2    H     H_    0.220474 0.887785 0.723551 0.154812
H3    H     H_    0.782240 0.670314 0.820743 0.180707
H4    H     H_    0.790639 0.311628 0.791196 0.157157
C41   C     C_R   0.421331 0.991899 0.074502 0.138248
C42   C     C_R   0.923498 0.519666 0.074129 0.084703
N1    N     N_R   0.499140 0.000000 0.142800 -0.133761
N2    N     N_R   0.999140 0.500000 0.142800 -0.127580
C43   C     C_R   0.576549 0.015907 0.067698 0.066004
C44   C     C_R   0.078187 0.495242 0.068324 0.042491
H5    H     H_    0.638715 0.027864 0.118090 0.173831
H6    H     H_    0.141221 0.490722 0.119306 0.141196
C45   C     C_R   0.576842 0.013991 0.924158 0.026928
C46   C     C_R   0.078108 0.495518 0.924473 0.081782
H7    H     H_    0.639376 0.021916 0.867081 0.217085
H8    H     H_    0.140835 0.491701 0.867631 0.200565
N3    N     N_R   0.499160 0.000000 0.857150 -0.129057
N4    N     N_R   0.999160 0.500000 0.857150 -0.113199
C47   C     C_R   0.420822 0.994647 0.932482 0.163117
C48   C     C_R   0.924575 0.522423 0.931719 0.096182
C49   C     C_3   0.351806 0.925268 0.926836 -0.493986
C50   C     C_3   0.835822 0.481107 0.924734 -0.479550
C51   C     C_3   0.355144 0.918343 0.079972 0.402977
C52   C     C_3   0.833991 0.474120 0.078645 0.441242
H9    H     H_    0.286882 0.950671 0.892136 0.247236
H10   H     H_    0.376693 0.867649 0.872904 0.256796
H11   H     H_    0.786451 0.524694 0.880030 0.243531
H12   H     H_    0.844165 0.419868 0.873654 0.213936
C53   C     C_2   0.378588 0.235478 0.252307 0.528196
H13   H     H_    0.450436 0.228559 0.266527 0.081257
O17   O     O_2   0.350775 0.233472 0.137684 -0.462113
C54   C     C_2   0.441466 0.711211 0.416879 0.544125
H14   H     H_    0.487945 0.763062 0.391640 0.084088
O18   O     O_2   0.471981 0.638812 0.425173 -0.465629
C55   C     C_2   0.899596 0.749922 0.274405 0.474370
H15   H     H_    0.968415 0.733200 0.297393 0.070239
O19   O     O_2   0.880175 0.760098 0.156298 -0.465421
C56   C     C_2   0.932033 0.221525 0.359208 0.574624
H16   H     H_    0.977957 0.274181 0.336962 0.113592
O20   O     O_2   0.960696 0.149010 0.342936 -0.472978
N5    N     N_R   0.269257 0.939308 0.148738 0.226953
O21   O     O_R   0.198777 0.890955 0.133407 -0.270664
O22   O     O_R   0.261667 0.007602 0.222099 -0.278289
N6    N     N_R   0.391308 0.835300 0.124372 0.202348
O23   O     O_R   0.477848 0.823382 0.130484 -0.306760
O24   O     O_R   0.338379 0.768566 0.130419 -0.287935
N7    N     N_R   0.762858 0.523751 0.148021 0.237706
O25   O     O_R   0.755920 0.521569 0.279286 -0.287751
O26   O     O_R   0.702631 0.565612 0.081021 -0.254710
N8    N     N_R   0.836658 0.384377 0.125592 0.213341
O27   O     O_R   0.763385 0.347796 0.174191 -0.287596
O28   O     O_R   0.905408 0.336365 0.093571 -0.347950
C57   C     C_2   0.762759 0.880977 0.265379 0.539327
H17   H     H_    0.820962 0.921619 0.242872 0.082024
O29   O     O_2   0.701549 0.879323 0.186478 -0.453324
C58   C     C_2   0.776673 0.107874 0.297048 0.569481
H18   H     H_    0.744372 0.046471 0.314909 -0.024775
O30   O     O_2   0.815741 0.121703 0.188494 -0.428146
C59   C     C_2   0.223565 0.345443 0.240676 0.592950
H19   H     H_    0.259395 0.403305 0.208458 0.072763
O31   O     O_2   0.166694 0.314344 0.169557 -0.432718
C60   C     C_2   0.295635 0.580465 0.374020 0.569025
H20   H     H_    0.263566 0.522522 0.414582 -0.006334
O32   O     O_2   0.343065 0.575831 0.271400 -0.452158
N9    N     N_R   0.690016 0.806205 0.862342 0.257153
O33   O     O_R   0.667162 0.773950 0.980496 -0.205707
O34   O     O_R   0.734294 0.878418 0.854561 -0.310306
N10   N     N_R   0.723811 0.165423 0.803408 0.201809
O35   O     O_R   0.731271 0.166389 0.933966 -0.287401
O36   O     O_R   0.771410 0.110473 0.734216 -0.355339
N11   N     N_R   0.254813 0.371138 0.816218 0.221489
O37   O     O_R   0.277119 0.374051 0.941918 -0.316412
O38   O     O_R   0.277055 0.435187 0.735725 -0.367084
N12   N     N_R   0.125249 0.754428 0.779881 0.240504
O39   O     O_R   0.087469 0.785521 0.888854 -0.249310
O40   O     O_R   0.186061 0.695177 0.792980 -0.342884
C61   C     C_2   0.574487 0.739651 0.720614 0.549623
H21   H     H_    0.553954 0.705380 0.632489 0.069290
O41   O     O_2   0.516969 0.764496 0.801552 -0.484514
C62   C     C_2   0.575602 0.238386 0.783219 0.573382
H22   H     H_    0.523291 0.246924 0.709997 0.029556
O42   O     O_2   0.554334 0.233692 0.903246 -0.498242
C63   C     C_2   0.125261 0.267251 0.816175 0.569646
H23   H     H_    0.089276 0.214566 0.771474 0.098366
O43   O     O_2   0.089199 0.305951 0.909079 -0.477843
C64   C     C_2   0.016960 0.814375 0.614609 0.476044
H24   H     H_    0.000622 0.836578 0.513834 0.035592
O44   O     O_2   0.956135 0.802823 0.698831 -0.483496
N13   N     N_R   0.255243 0.136937 0.818005 0.201042
O45   O     O_R   0.244191 0.126159 0.948002 -0.280011
O46   O     O_R   0.236130 0.074379 0.738540 -0.360182
N14   N     N_R   0.135489 0.954978 0.585556 0.228588
O47   O     O_R   0.161071 0.990826 0.471061 -0.278110
O48   O     O_R   0.076073 0.993453 0.662441 -0.275458
N15   N     N_R   0.687711 0.599122 0.704360 0.182557
O49   O     O_R   0.627926 0.570174 0.792671 -0.237250
O50   O     O_R   0.695170 0.563754 0.586343 -0.309410
N16   N     N_R   0.670930 0.390316 0.771879 0.225904
O51   O     O_R   0.610874 0.416696 0.687647 -0.274409
O52   O     O_R   0.657034 0.405253 0.899739 -0.254257

loop_
_geom_bond_atom_site_label_1
_geom_bond_atom_site_label_2
_geom_bond_distance
_ccdc_geom_bond_type
C7    C28   1.415343 S    
C38   H2    1.105174 S    
C42   N2    1.364321 A    
C29   C33   1.507252 S    
C8    C27   1.435019 S    
N5    O21   1.301416 A    
C41   C47   1.406192 A    
C18   C54   1.493122 S    
N15   O50   1.301588 A    
C45   H7    1.077025 S    
Zn4   O16   2.016328 S    
C55   H15   1.085504 S    
O10   C6    1.294575 A    
N10   O35   1.301025 A    
N6    O24   1.301019 A    
C33   C39   1.539873 S    
C19   C21   1.417942 A    
C34   C40   1.516163 S    
O7    C3    1.289124 A    
C61   O41   1.220791 D    
C30   C34   1.495132 S    
C46   H8    1.074983 S    
Zn1   O10   2.008685 S    
C33   C61   1.516438 S    
C12   C16   1.397101 A    
C3    C16   1.427861 S    
C62   O42   1.220783 D    
C64   H24   1.085839 S    
N13   O46   1.298968 A    
C20   C56   1.496561 S    
N4    C48   1.361091 A    
C41   C51   1.506631 S    
C50   H11   1.099970 S    
C9    C13   1.376197 A    
C52   N7    1.470756 S    
C58   H18   1.078812 S    
C22   C26   1.411139 A    
C11   C39   1.496152 S    
C43   H5    1.079758 S    
O2    Zn1   2.016549 S    
N8    O27   1.301293 A    
O13   C5    1.284680 A    
C6    C25   1.439727 S    
O6    Zn3   2.009007 S    
Zn3   O14   2.016328 S    
C34   C62   1.516576 S    
C36   C38   1.538306 S    
C41   N1    1.363115 A    
C37   N13   1.462858 S    
C44   C46   1.424071 A    
N7    O25   1.300216 A    
C43   C45   1.421663 A    
Zn4   N2    2.020676 S    
O15   C7    1.287481 A    
C53   O17   1.220523 D    
O11   C7    1.283028 A    
C49   H10   1.110968 S    
N3    C47   1.363041 A    
O8    Zn4   2.009007 S    
N16   O52   1.300846 A    
N7    O26   1.301467 A    
C11   C29   1.350010 A    
N6    O23   1.301879 A    
C49   C51   1.520540 S    
C38   N14   1.466435 S    
C18   C24   1.421800 A    
C64   O44   1.220374 D    
C59   O31   1.220122 D    
N8    O28   1.302180 A    
Zn1   N3    2.019389 S    
C24   C60   1.488336 S    
C35   C63   1.513046 S    
C51   N6    1.470031 S    
C10   C14   1.387686 A    
Zn2   O12   2.008685 S    
C16   C20   1.423817 A    
O1    C1    1.293212 A    
C62   H22   1.086046 S    
C48   C50   1.468384 S    
C21   C57   1.476516 S    
C47   C49   1.490024 S    
C39   N15   1.460733 S    
C27   C31   1.381704 A    
O12   C8    1.296457 A    
C34   N10   1.472354 S    
C52   N8    1.468810 S    
N1    C43   1.368453 A    
C17   C23   1.411933 A    
C15   C19   1.421044 A    
C36   C64   1.511945 S    
O5    C1    1.280473 A    
C36   N12   1.473949 S    
C25   C29   1.387907 A    
O8    C4    1.287531 A    
Zn3   N1    2.020676 S    
C54   O18   1.220736 D    
C4    C15   1.436067 S    
C19   C55   1.492647 S    
O3    Zn2   2.017471 S    
C33   N9    1.464711 S    
C22   C58   1.483632 S    
O7    Zn4   1.992781 S    
C9    C37   1.497669 S    
Zn4   O15   2.017250 S    
C35   N11   1.468118 S    
C35   C37   1.549103 S    
C46   N4    1.367850 A    
N16   O51   1.303221 A    
C11   C15   1.383919 A    
O4    C4    1.292918 A    
C12   C40   1.515365 S    
C60   O32   1.220873 D    
N11   O37   1.299215 A    
O2    C2    1.293808 A    
C57   H17   1.084868 S    
N14   O48   1.301311 A    
C63   O43   1.218871 D    
C10   C32   1.356378 A    
C21   C25   1.427717 A    
C51   N5    1.466699 S    
C14   C18   1.424929 A    
C39   H3    1.111748 S    
Zn2   O11   1.992458 S    
O16   C8    1.284669 A    
C40   N16   1.462659 S    
N11   O38   1.302833 A    
N10   O36   1.302120 A    
O6    C2    1.281914 A    
N12   O40   1.302185 A    
C59   H19   1.084112 S    
C55   O19   1.221151 D    
C37   H1    1.112303 S    
N12   O39   1.301492 A    
C17   C53   1.495325 S    
C42   C48   1.409388 A    
C61   H21   1.081603 S    
C26   C30   1.370619 A    
C50   C52   1.525233 S    
Zn1   O9    1.992458 S    
C40   H4    1.104702 S    
O9    C5    1.289421 A    
C60   H20   1.085119 S    
N13   O45   1.300384 A    
N9    O33   1.300510 A    
Zn3   O13   2.017250 S    
C32   C36   1.498518 S    
C50   H12   1.093319 S    
C10   C38   1.505136 S    
C20   C22   1.415408 A    
C54   H14   1.081955 S    
C58   O30   1.220680 D    
C1    C14   1.421596 S    
C12   C30   1.362596 A    
C2    C13   1.423133 S    
C31   C35   1.497627 S    
Zn2   N4    2.019389 S    
O4    Zn2   2.016549 S    
C56   O20   1.221083 D    
C13   C17   1.423621 A    
O5    Zn3   1.992781 S    
O3    C3    1.288188 A    
C9    C31   1.335278 A    
C42   C52   1.503223 S    
C24   C28   1.411879 A    
C28   C32   1.379144 A    
O1    Zn1   2.017472 S    
N14   O47   1.301018 A    
N5    O22   1.301800 A    
C56   H16   1.080734 S    
O14   C6    1.288536 A    
N15   O49   1.300418 A    
N9    O34   1.301700 A    
N2    C44   1.368825 A    
C45   N3    1.366859 A    
C44   H6    1.079109 S    
C53   H13   1.085751 S    
C23   C27   1.427230 A    
C5    C26   1.418268 S    
C49   H9    1.106071 S    
C63   H23   1.085915 S    
C23   C59   1.472014 S    
C57   O29   1.217229 D    
