data_mof_unit_31188.cif
_audit_creation_date              2012-12-11T16:43:18-0500
_audit_creation_method            fapswitch 2.2
_symmetry_space_group_name_H-M    P1
_symmetry_Int_Tables_number       1
_space_group_crystal_system       triclinic
_cell_length_a                    6.921305
_cell_length_b                    23.332568
_cell_length_c                    25.79568
_cell_angle_alpha                 104.653063
_cell_angle_beta                  90.030481
_cell_angle_gamma                 90.381404
_cell_volume                      4030.20035367

loop_
_atom_site_label
_atom_site_type_symbol
_atom_type_description
_atom_site_fract_x
_atom_site_fract_y
_atom_site_fract_z
_atom_type_partial_charge
O1    O     O_R   0.505750 0.453350 0.547660 -0.522310
O2    O     O_R   0.170990 0.432220 0.437590 -0.535797
O3    O     O_R   0.005600 0.546650 0.452340 -0.520522
C1    C     C_R   0.340294 0.417845 0.415847 0.809439
O4    O     O_R   0.175720 0.446240 0.546340 -0.547383
O5    O     O_R   0.010370 0.560770 0.561860 -0.548846
C2    C     C_R   0.344417 0.434784 0.563033 0.780164
O6    O     O_R   0.500990 0.439230 0.438140 -0.519275
O7    O     O_3   0.340820 0.537560 0.504970 -0.377792
V1    V     V_3+5 0.064050 0.493030 0.499080 1.551285
O8    O     O_R   0.680940 0.567780 0.562410 -0.544100
C3    C     C_R   0.850491 0.584344 0.582699 0.721091
O9    O     O_R   0.676210 0.553760 0.453660 -0.530466
C4    C     C_R   0.845186 0.565107 0.436473 0.825358
V2    V     V_3+5 0.564640 0.506970 0.500920 1.567087
O10   O     O_3   0.837740 0.462440 0.495030 -0.364574
C5    C     C_R   0.875135 0.837675 0.082315 -0.180664
H1    H     H_    0.830749 0.820624 0.040971 0.111608
C6    C     C_R   0.857896 0.801421 0.117983 -0.006779
H2    H     H_    0.805085 0.756517 0.102906 0.162078
C7    C     C_R   0.908727 0.822848 0.172398 0.156236
C8    C     C_R   0.987760 0.880361 0.189301 -0.120302
H3    H     H_    0.030064 0.898186 0.230702 0.121408
C9    C     C_R   0.010626 0.915856 0.153220 -0.122420
H4    H     H_    0.070697 0.959936 0.167474 0.176136
C10   C     C_R   0.951507 0.895186 0.099691 -0.061401
C11   C     C_R   0.040490 0.782177 0.246051 -0.123691
H5    H     H_    0.172819 0.806715 0.244631 0.192888
C12   C     C_R   0.027575 0.747514 0.282824 -0.184129
H6    H     H_    0.149721 0.746513 0.308777 0.184419
C13   C     C_R   0.860530 0.714282 0.286157 -0.018234
C14   C     C_R   0.704940 0.715911 0.250983 0.430316
C15   C     C_R   0.715821 0.752247 0.214631 0.313770
C16   C     C_R   0.886606 0.785094 0.211270 -0.073226
C17   C     C_R   0.713028 0.685399 0.366211 0.514576
C18   C     C_R   0.711103 0.646814 0.400888 -0.305178
H7    H     H_    0.598961 0.650262 0.430585 0.146354
C19   C     C_R   0.854333 0.603733 0.398375 -0.171092
C20   C     C_R   0.999948 0.597987 0.359041 0.385691
C21   C     C_R   0.998240 0.634177 0.323228 -0.208533
H8    H     H_    0.108727 0.628263 0.292630 0.228157
C22   C     C_R   0.855011 0.677107 0.325648 -0.000892
C23   C     C_R   0.026391 0.638268 0.665941 -0.127574
C24   C     C_R   0.864124 0.633554 0.632182 -0.087555
C25   C     C_R   0.717053 0.676051 0.645769 -0.161310
C26   C     C_R   0.731374 0.723391 0.692240 0.015076
C27   C     C_R   0.894550 0.726997 0.726147 0.016005
C28   C     C_R   0.041879 0.684223 0.712885 0.146819
C29   C     C_R   0.588037 0.767561 0.705679 0.382043
C30   C     C_R   0.604520 0.812938 0.752930 -0.224478
C31   C     C_R   0.764696 0.816313 0.786920 0.022379
C32   C     C_R   0.911649 0.773692 0.773239 0.067841
C33   C     C_R   0.076099 0.777823 0.806558 0.120358
C34   C     C_R   0.220878 0.734866 0.792853 -0.170380
C35   C     C_R   0.203551 0.688381 0.746605 -0.113981
C36   C     C_R   0.781009 0.862035 0.834124 -0.180883
C37   C     C_R   0.944760 0.866791 0.867504 -0.079651
C38   C     C_R   0.092741 0.824695 0.853039 -0.216824
H9    H     H_    0.140358 0.605676 0.655951 0.134543
H10   H     H_    0.593174 0.672280 0.619477 0.173790
H11   H     H_    0.492080 0.846019 0.762861 0.165732
H12   H     H_    0.666959 0.894553 0.844484 0.124070
H13   H     H_    0.219259 0.827793 0.878424 0.126636
H14   H     H_    0.348112 0.737307 0.817838 0.130767
H15   H     H_    0.318128 0.656019 0.736829 0.144346
C39   C     C_R   0.596209 0.174167 0.148478 -0.257228
C40   C     C_R   0.450809 0.130770 0.134516 -0.146181
C41   C     C_R   0.285395 0.134809 0.168304 0.325330
C42   C     C_R   0.265441 0.183184 0.213891 0.025004
C43   C     C_R   0.411971 0.226995 0.226415 0.023859
C44   C     C_R   0.577348 0.222173 0.193635 0.094881
C45   C     C_R   0.101715 0.189063 0.247409 -0.131496
C46   C     C_R   0.084293 0.236745 0.292299 -0.179287
C47   C     C_R   0.228855 0.280180 0.305045 0.098508
C48   C     C_R   0.393429 0.275721 0.271996 0.023673
C49   C     C_R   0.538912 0.319905 0.284281 0.012105
C50   C     C_R   0.702340 0.314171 0.250685 -0.115638
C51   C     C_R   0.721168 0.265953 0.206176 -0.181807
C52   C     C_R   0.211663 0.327366 0.350825 -0.244785
C53   C     C_R   0.356185 0.371016 0.364535 -0.138717
C54   C     C_R   0.517973 0.368414 0.329784 0.341881
H16   H     H_    0.723008 0.171241 0.123383 0.153961
H17   H     H_    0.984361 0.157229 0.239442 0.193019
H18   H     H_    0.956528 0.239670 0.317096 0.138942
H19   H     H_    0.086769 0.329390 0.376583 0.154522
H20   H     H_    0.818828 0.346324 0.258624 0.198530
H21   H     H_    0.849257 0.262913 0.181485 0.140227
C55   C     C_R   0.272136 0.107753 0.874745 -0.255700
H22   H     H_    0.148376 0.082901 0.883144 0.191102
C56   C     C_R   0.249887 0.139319 0.836276 -0.176428
H23   H     H_    0.107650 0.137044 0.820070 0.221896
C57   C     C_R   0.404625 0.170246 0.819911 -0.059303
C58   C     C_R   0.578284 0.175442 0.851485 0.353836
C59   C     C_R   0.601803 0.142084 0.890077 0.342369
C60   C     C_R   0.448971 0.106080 0.900516 -0.209904
C61   C     C_R   0.552282 0.210615 0.745628 -0.225357
H24   H     H_    0.688734 0.192684 0.752331 0.228703
C62   C     C_R   0.547061 0.246933 0.710056 -0.108994
H25   H     H_    0.680293 0.257284 0.692259 0.162329
C63   C     C_R   0.372497 0.270873 0.698535 0.144711
C64   C     C_R   0.202135 0.252520 0.718808 -0.167516
H26   H     H_    0.063785 0.267245 0.707551 0.165759
C65   C     C_R   0.206281 0.212187 0.751039 0.412260
C66   C     C_R   0.385401 0.197607 0.771967 -0.001502
C67   C     C_R   0.254899 0.300961 0.616623 0.391009
C68   C     C_R   0.246760 0.341612 0.585231 -0.235225
H27   H     H_    0.160162 0.331126 0.548980 0.175264
C69   C     C_R   0.353573 0.394398 0.598808 -0.243177
C70   C     C_R   0.468402 0.407215 0.645573 0.352979
C71   C     C_R   0.473630 0.367136 0.678377 0.344988
C72   C     C_R   0.367478 0.313285 0.663942 -0.124204
O11   O     O_R   0.308350 0.060850 0.061810 -0.507102
O12   O     O_R   0.633860 0.053770 0.953650 -0.527257
O13   O     O_R   0.798960 0.939210 0.938150 -0.545382
C73   C     C_R   0.464622 0.066829 0.937905 0.707207
O14   O     O_R   0.638360 0.067800 0.062400 -0.536695
O15   O     O_R   0.803500 0.953330 0.047670 -0.531981
C74   C     C_R   0.468602 0.082923 0.083779 0.769084
O16   O     O_R   0.303810 0.046730 0.952290 -0.551646
O17   O     O_3   0.468430 0.962490 0.995010 -0.376057
V3    V     V_3+5 0.745300 0.006960 0.000930 1.484603
O18   O     O_R   0.132880 0.946160 0.046390 -0.527528
C75   C     C_R   0.963668 0.934073 0.062576 0.760099
O19   O     O_R   0.128380 0.932130 0.937650 -0.548364
C76   C     C_R   0.958817 0.915704 0.917237 0.687413
V4    V     V_3+5 0.244670 0.992930 0.999140 1.476940
O20   O     O_3   0.971670 0.037510 0.005000 -0.358225
Cl1   Cl    Cl    0.182470 0.544084 0.350747 -0.562165
Cl2   Cl    Cl    0.387302 0.769032 0.663900 -0.690922
Cl3   Cl    Cl    0.105503 0.078359 0.155717 -0.715230
Cl4   Cl    Cl    0.688867 0.427415 0.340818 -0.601793
O21   O     O_3   0.733092 0.210262 0.843905 -0.551530
C77   C     C_3   0.690486 0.270803 0.865459 0.083249
H28   H     H_    0.680680 0.280973 0.909766 0.101424
H29   H     H_    0.551943 0.283666 0.849735 0.129794
C78   C     C_3   0.852991 0.308137 0.850347 -0.254663
H30   H     H_    0.993279 0.295258 0.864989 0.198544
H31   H     H_    0.860308 0.299592 0.806003 0.233425
C79   C     C_3   0.820647 0.374123 0.874372 -0.735195
H32   H     H_    0.681340 0.387994 0.860111 0.269351
H33   H     H_    0.939409 0.399898 0.861881 0.254177
H34   H     H_    0.819208 0.384057 0.918817 0.217585
O22   O     O_3   0.781420 0.141619 0.913625 -0.558994
C80   C     C_3   0.782931 0.180957 0.965317 0.123843
H35   H     H_    0.704517 0.161178 0.994220 0.107781
H36   H     H_    0.714149 0.223990 0.965841 0.085089
C81   C     C_3   0.992664 0.192674 0.983806 -0.279611
H37   H     H_    0.062857 0.150071 0.984112 0.207677
H38   H     H_    0.071909 0.212743 0.955200 0.202005
C82   C     C_3   0.006284 0.234274 0.039806 -0.839896
H39   H     H_    0.938857 0.277522 0.040476 0.240243
H40   H     H_    0.160496 0.241982 0.051579 0.232846
H41   H     H_    0.932788 0.214354 0.069315 0.227913
O23   O     O_3   0.033316 0.185913 0.758317 -0.578327
C83   C     C_3   0.021991 0.128205 0.723031 -0.008982
H42   H     H_    0.903606 0.104148 0.737849 0.161642
H43   H     H_    0.155703 0.102017 0.723811 0.126325
C84   C     C_3   0.976039 0.129657 0.665177 -0.295409
H44   H     H_    0.861462 0.162522 0.664667 0.221945
H45   H     H_    0.108412 0.142614 0.646612 0.243812
C85   C     C_3   0.909561 0.069072 0.631771 -0.759379
H46   H     H_    0.022369 0.035379 0.631606 0.230539
H47   H     H_    0.882865 0.071291 0.589876 0.254517
H48   H     H_    0.773264 0.055518 0.648215 0.226513
Cl5   Cl    Cl    0.128375 0.233713 0.593116 -0.685942
Cl6   Cl    Cl    0.598597 0.474801 0.664780 -0.581532
Cl7   Cl    Cl    0.607182 0.386250 0.738881 -0.598058
Cl8   Cl    Cl    0.500021 0.669950 0.249919 -0.539828
Cl9   Cl    Cl    0.509589 0.758669 0.176063 -0.623452
O24   O     O_3   0.573831 0.728931 0.367849 -0.556028
C86   C     C_3   0.502228 0.755050 0.419855 0.089053
H49   H     H_    0.488496 0.803356 0.423717 0.145721
H50   H     H_    0.602539 0.751433 0.452689 0.098961
C87   C     C_3   0.300110 0.730484 0.426598 -0.331169
H51   H     H_    0.196285 0.746310 0.400564 0.191640
H52   H     H_    0.299761 0.681371 0.413990 0.221800
C88   C     C_3   0.231173 0.750280 0.484487 -0.777557
H53   H     H_    0.329057 0.733174 0.511177 0.250256
H54   H     H_    0.083419 0.732561 0.487555 0.223210
H55   H     H_    0.227097 0.799401 0.497845 0.242252

loop_
_geom_bond_atom_site_label_1
_geom_bond_atom_site_label_2
_ccdc_geom_bond_type
C51   H21   S    
C28   C35   A    
O11   C74   A    
C86   H49   S    
C25   H10   S    
V4    O20   S    
C13   C22   S    
C83   H43   S    
C46   C47   A    
C34   C35   A    
C17   C18   A    
C1    O6    A    
C15   Cl9   S    
C85   H46   S    
C37   C38   A    
C50   C51   A    
C32   C33   A    
C86   H50   S    
C26   C29   A    
C58   C59   A    
C34   H14   S    
C59   O22   S    
C8    C9    A    
C18   H7    S    
C6    C7    A    
C9    C10   A    
V3    O20   S    
C78   C79   S    
O5    C3    A    
C19   C20   A    
C79   H34   S    
O17   V4    S    
C54   Cl4   S    
C39   H16   S    
C68   H27   S    
O22   C80   S    
C62   H25   S    
C69   C70   A    
C31   C36   A    
C17   C22   A    
O15   V3    S    
C87   H51   S    
C57   C58   A    
C48   C49   A    
C84   C85   S    
C35   H15   S    
C71   C72   A    
O13   V3    S    
O8    V2    S    
C81   H37   S    
C33   C34   A    
C60   C73   S    
C41   C42   A    
C88   H54   S    
C82   H41   S    
C61   C62   A    
C77   C78   S    
C43   C44   A    
O1    V2    S    
C58   O21   S    
C23   C28   A    
C46   H18   S    
O11   V4    S    
C23   H9    S    
C21   C22   A    
C39   C40   A    
C67   C72   A    
C55   C60   A    
C64   C65   A    
O9    C4    A    
C83   C84   S    
C84   H45   S    
C42   C43   A    
C80   C81   S    
C85   H47   S    
C5    H1    S    
C8    H3    S    
C11   C16   A    
C86   C87   S    
C83   H42   S    
C47   C48   A    
C31   C32   A    
C64   H26   S    
C81   C82   S    
C49   C50   A    
C78   H31   S    
O14   V3    S    
C20   C21   A    
O4    C2    A    
O13   C76   A    
C45   C46   A    
C7    C16   S    
C30   C31   A    
C25   C26   A    
C29   Cl2   S    
C40   C41   A    
O18   V4    S    
C42   C45   A    
O2    C1    A    
C23   C24   A    
C12   H6    S    
C4    C19   S    
C71   Cl7   S    
C65   O23   S    
C56   C57   A    
C39   C44   A    
C79   H32   S    
C88   H55   S    
C61   H24   S    
C15   C16   A    
C9    H4    S    
C41   Cl3   S    
C87   C88   S    
O23   C83   S    
O3    C4    A    
O14   C74   A    
C80   H36   S    
C21   H8    S    
C55   C56   A    
C50   H20   S    
C88   H53   S    
O6    V2    S    
C73   O16   A    
C47   C52   A    
O9    V2    S    
C84   H44   S    
C36   H12   S    
C10   C75   S    
C5    C10   A    
O2    V1    S    
C52   H19   S    
C85   H48   S    
O17   V3    S    
O19   V4    S    
O7    V1    S    
C38   H13   S    
C36   C37   A    
C26   C27   A    
C20   Cl1   S    
C14   Cl8   S    
C81   H38   S    
O1    C2    A    
C13   C14   A    
C24   C25   A    
C53   C54   A    
C27   C28   A    
C49   C54   A    
O5    V1    S    
C33   C38   A    
C1    C53   S    
C27   C32   A    
C11   C12   A    
C67   C68   A    
C62   C63   A    
C82   H39   S    
C80   H35   S    
C14   C15   A    
C6    H2    S    
C61   C66   A    
O7    V2    S    
O4    V1    S    
C12   C13   A    
O3    V1    S    
V1    O10   S    
C70   C71   A    
C37   C76   S    
C79   H33   S    
C56   H23   S    
C77   H28   S    
C68   C69   A    
C18   C19   A    
C63   C64   A    
C5    C6    A    
C67   Cl5   S    
O21   C77   S    
C82   H40   S    
O15   C75   A    
C59   C60   A    
C40   C74   S    
C87   H52   S    
C45   H17   S    
C70   Cl6   S    
C57   C66   S    
C52   C53   A    
O16   V4    S    
C30   H11   S    
O12   V3    S    
C55   H22   S    
C43   C48   A    
C63   C72   S    
C3    C24   S    
C29   C30   A    
O24   C86   S    
C65   C66   A    
C77   H29   S    
C17   O24   S    
C2    C69   S    
C78   H30   S    
O12   C73   A    
O18   C75   A    
C7    C8    A    
C44   C51   A    
V2    O10   S    
O8    C3    A    
O19   C76   A    
C11   H5    S    
