data_mof_unit_58410.cif
_audit_creation_date              2013-03-05T16:41:45-0500
_audit_creation_method            fapswitch 2.2
_symmetry_space_group_name_H-M    P1
_symmetry_Int_Tables_number       1
_space_group_crystal_system       triclinic
_cell_length_a                    10.623455
_cell_length_b                    10.828488
_cell_length_c                    9.874944
_cell_angle_alpha                 89.940106
_cell_angle_beta                  91.033536
_cell_angle_gamma                 92.618322
_cell_volume                      1134.60302342

loop_
_atom_site_label
_atom_site_type_symbol
_atom_site_description
_atom_site_fract_x
_atom_site_fract_y
_atom_site_fract_z
_atom_type_partial_charge
O1    O     O_R   0.500020 0.316790 0.614690 -0.578282
O2    O     O_R   0.500000 0.316760 0.385350 -0.640230
C1    C     C_R   0.509956 0.260915 0.498908 0.899120
O3    O     O_R   0.316770 0.500020 0.614690 -0.593548
O4    O     O_R   0.316760 0.499980 0.385350 -0.575198
C2    C     C_R   0.264790 0.526177 0.499836 0.971467
Zn1   Zn    Zn3+2 0.500010 0.500020 0.653130 0.967953
Zn2   Zn    Zn3+2 0.499990 0.499980 0.346870 0.994809
O5    O     O_R   0.500000 0.683240 0.614650 -0.669569
O6    O     O_R   0.499980 0.683210 0.385310 -0.602124
O7    O     O_R   0.683240 0.500020 0.614650 -0.667292
O8    O     O_R   0.683230 0.499980 0.385310 -0.634133
C3    C     C_R   0.512808 0.739739 0.499190 0.860337
C4    C     C_R   0.741803 0.496425 0.501577 0.826539
C5    C     C_R   0.131541 0.590341 0.752083 -0.095559
H1    H     H_    0.219445 0.645164 0.754830 0.153728
C6    C     C_R   0.081355 0.549928 0.873853 -0.225323
H2    H     H_    0.133543 0.570813 0.966570 0.126632
C7    C     C_R   0.971129 0.474773 0.874409 0.082382
C8    C     C_R   0.903652 0.453598 0.751731 -0.130050
H3    H     H_    0.818878 0.394767 0.753580 0.186797
C9    C     C_R   0.948907 0.505046 0.628507 0.051603
C10   C     C_R   0.072078 0.555833 0.628196 0.098556
C11   C     C_R   0.134760 0.564200 0.503646 -0.152442
C12   C     C_R   0.064752 0.579739 0.383687 -0.036882
H4    H     H_    0.881718 0.563726 0.293427 0.172072
C13   C     C_R   0.936585 0.550370 0.385506 -0.289425
C14   C     C_R   0.878430 0.508232 0.504972 -0.108646
C15   C     C_R   0.539391 0.063174 0.609973 -0.008189
C16   C     C_R   0.534749 0.131053 0.492563 -0.195295
C17   C     C_R   0.558542 0.068538 0.368898 -0.084404
C18   C     C_R   0.555214 0.937102 0.368557 -0.067191
C19   C     C_R   0.540229 0.871706 0.493762 -0.174909
C20   C     C_R   0.550766 0.940383 0.611710 -0.028373
C21   C     C_3   0.554146 0.935437 0.763437 -0.244181
C22   C     C_3   0.537809 0.076413 0.758721 -0.209029
H5    H     H_    0.472677 0.881522 0.806477 0.197312
H6    H     H_    0.443687 0.100287 0.793138 0.182410
C23   C     C_R   0.395100 0.459241 0.069993 0.203605
N1    N     N_R   0.499160 0.499140 0.142800 -0.120915
C24   C     C_R   0.596236 0.554644 0.075414 0.016481
H7    H     H_    0.673584 0.597497 0.133691 0.156879
C25   C     C_R   0.595676 0.557924 0.931688 0.050066
N2    N     N_R   0.499160 0.499180 0.857150 -0.153846
C26   C     C_R   0.396067 0.455399 0.927086 0.150526
C27   C     C_3   0.343213 0.324201 0.931421 -0.212226
C28   C     C_3   0.331618 0.335479 0.083702 -0.560588
H8    H     H_    0.413631 0.258434 0.905684 0.225551
H9    H     H_    0.233907 0.342671 0.120589 0.177855
H10   H     H_    0.388955 0.269749 0.141409 0.265707
C29   C     C_2   0.118103 0.638026 0.260074 0.405763
H11   H     H_    0.061420 0.639144 0.167855 0.057508
O9    O     O_2   0.221138 0.692894 0.261862 -0.526156
C30   C     C_2   0.680460 0.901920 0.819481 0.433273
H12   H     H_    0.754835 0.876565 0.752241 0.058240
O10   O     O_2   0.701782 0.907915 0.941192 -0.494968
C31   C     C_2   0.648349 0.158759 0.806920 0.589339
H13   H     H_    0.741567 0.147702 0.766439 0.020708
O11   O     O_2   0.634101 0.239325 0.890291 -0.518289
C32   C     C_2   0.697579 0.630309 0.865888 0.431181
H14   H     H_    0.687354 0.660592 0.762914 0.103302
O12   O     O_2   0.792838 0.664150 0.929081 -0.594528
C33   C     C_2   0.220492 0.298530 0.857251 0.436875
H15   H     H_    0.133654 0.284864 0.912253 0.062732
O13   O     O_2   0.218135 0.287047 0.734381 -0.545072
C34   C     C_2   0.928582 0.420978 0.004442 0.395462
H16   H     H_    0.987518 0.432559 0.094769 0.019899
O14   O     O_2   0.828067 0.362963 0.012903 -0.529614
C35   C     C_2   0.602252 0.138936 0.247247 0.458638
H17   H     H_    0.665903 0.219606 0.259590 0.101055
O15   O     O_2   0.566943 0.109324 0.133179 -0.489694
C36   C     C_2   0.577856 0.870322 0.240892 0.626959
H18   H     H_    0.662358 0.818627 0.231261 0.022694
O16   O     O_2   0.498987 0.867462 0.149329 -0.485841

loop_
_geom_bond_atom_site_label_1
_geom_bond_atom_site_label_2
_geom_bond_distance
_ccdc_geom_bond_type
O4    Zn2   1.989994 S    
C34   O14   1.218070 D    
C10   C11   1.410014 A    
C12   C29   1.483335 S    
C3    C19   1.446434 S    
C15   C16   1.373467 A    
C1    C16   1.444072 S    
C24   H7    1.081833 S    
C30   H12   1.086131 S    
C18   C36   1.482848 S    
C17   C18   1.422077 A    
C21   C22   1.544805 S    
Zn2   O8    1.976574 S    
C27   C33   1.498756 S    
C23   C26   1.412100 A    
C13   C14   1.407490 A    
C2    C11   1.460480 S    
C18   C19   1.431939 A    
C36   H18   1.085066 S    
C22   H6    1.103728 S    
C6    H2    1.080495 S    
C31   H13   1.086297 S    
C28   H9    1.112359 S    
C9    C14   1.421000 A    
Zn1   N2    2.014878 S    
C11   C12   1.401402 A    
C21   C30   1.501986 S    
Zn1   O7    1.989993 S    
C24   C25   1.419603 A    
C15   C22   1.476478 S    
H4    C13   1.084325 S    
O4    C2    1.304190 A    
C25   C32   1.468087 S    
O3    Zn1   1.976575 S    
C5    C6    1.386509 A    
C32   O12   1.221311 D    
N1    C24   1.354578 A    
C6    C7    1.395228 A    
O8    C4    1.297385 A    
C19   C20   1.382627 A    
C28   H10   1.108418 S    
O2    C1    1.278484 A    
O1    Zn1   2.020483 S    
C25   N2    1.382715 A    
C35   H17   1.085561 S    
C33   O13   1.219507 D    
O7    C4    1.289459 A    
C30   O10   1.220270 D    
C31   O11   1.216493 D    
O3    C2    1.289396 A    
C35   O15   1.219360 D    
C5    H1    1.083370 S    
C5    C10   1.409546 A    
C4    C14   1.451030 S    
C29   H11   1.083011 S    
C27   H8    1.089641 S    
C17   C35   1.491886 S    
C34   H16   1.084546 S    
C8    H3    1.079534 S    
C21   H5    1.112265 S    
C7    C34   1.479112 S    
C36   O16   1.221008 D    
C20   C21   1.499036 S    
C27   C28   1.516520 S    
O2    Zn2   2.019670 S    
C23   N1    1.361608 A    
Zn1   O5    2.019670 S    
O5    C3    1.299734 A    
C9    C10   1.396074 A    
C32   H14   1.073273 S    
C22   C31   1.511864 S    
Zn2   N1    2.015068 S    
O1    C1    1.302334 A    
C26   C27   1.504423 S    
C23   C28   1.479697 S    
C15   C20   1.340665 A    
O6    C3    1.283037 A    
Zn2   O6    2.020484 S    
C16   C17   1.428961 A    
N2    C26   1.371251 A    
C7    C8    1.410060 A    
C8    C9    1.420345 A    
C33   H15   1.083228 S    
C29   O9    1.221209 D    
C12   C13   1.384438 A    
