data_mof_unit_27608.cif
_audit_creation_date              2012-12-11T16:05:01-0500
_audit_creation_method            fapswitch 2.2
_symmetry_space_group_name_H-M    P1
_symmetry_Int_Tables_number       1
_space_group_crystal_system       triclinic
_cell_length_a                    10.605874
_cell_length_b                    10.587488
_cell_length_c                    16.864298
_cell_angle_alpha                 98.50765
_cell_angle_beta                  98.527951
_cell_angle_gamma                 61.882001
_cell_volume                      1645.09686318

loop_
_atom_site_label
_atom_site_type_symbol
_atom_type_description
_atom_site_fract_x
_atom_site_fract_y
_atom_site_fract_z
_atom_type_partial_charge
C1    C     C_R   0.351421 0.783014 0.401926 0.552735
C2    C     C_3   0.687563 0.318959 0.236705 -0.133358
C3    C     C_3   0.746306 0.387139 0.309345 0.050078
C4    C     C_3   0.900809 0.288418 0.289948 -0.114602
C5    C     C_3   0.890009 0.403354 0.239677 -0.106022
C6    C     C_3   0.734841 0.502850 0.260119 -0.123041
C7    C     C_3   0.676685 0.434764 0.185684 -0.145565
C8    C     C_3   0.831252 0.335484 0.166328 0.057652
C9    C     C_3   0.434443 0.827158 0.222391 -0.119406
C10   C     C_3   0.368706 0.741605 0.251688 -0.117461
C11   C     C_3   0.330311 0.846762 0.327636 0.053514
C12   C     C_R   0.369279 0.345857 0.359265 0.543909
C13   C     C_3   0.397048 0.931682 0.299831 -0.121447
C14   C     C_3   0.247932 0.028775 0.257747 -0.144186
C15   C     C_3   0.182567 0.942349 0.287364 -0.128177
C16   C     C_3   0.220654 0.837345 0.211088 -0.099563
C17   C     C_3   0.286334 0.922613 0.182235 0.053997
C18   C     C_3   0.476073 0.263392 0.785713 0.155570
C19   C     C_3   0.446851 0.407141 0.758578 -0.158710
C20   C     C_3   0.375812 0.367309 0.679488 0.024460
C21   C     C_3   0.407137 0.222432 0.706863 -0.071374
C22   C     C_3   0.260091 0.297945 0.741898 -0.122526
C23   C     C_R   0.705633 0.416151 0.390662 0.567271
C24   C     C_3   0.228037 0.443001 0.713161 -0.109914
C25   C     C_3   0.298945 0.480878 0.794132 -0.161215
C26   C     C_3   0.332098 0.335889 0.821360 0.061503
C27   C     C_1   0.774585 0.364830 0.714891 -0.053253
C28   C     C_1   0.818595 0.327819 0.781604 -0.053113
C29   C     C_1   0.357407 0.765460 0.714471 -0.049365
C30   C     C_1   0.326142 0.811696 0.782109 -0.048780
C31   C     C_R   0.890560 0.311148 0.090435 0.539338
C32   C     C_R   0.318799 0.299323 0.120401 0.531874
C33   C     C_R   0.256235 0.960232 0.099392 0.562854
C34   C     C_R   0.379128 0.716090 0.631767 0.523019
C35   C     C_R   0.880194 0.301694 0.861890 0.543625
C36   C     C_R   0.310568 0.296529 0.894312 0.551072
C37   C     C_R   0.282421 0.880029 0.859793 0.553374
C38   C     C_R   0.408108 0.377711 0.601156 0.531668
C39   C     C_R   0.720887 0.408942 0.635870 0.522761
C40   C     C_1   0.341182 0.335084 0.275568 -0.070882
C41   C     C_1   0.329706 0.325319 0.204221 -0.063966
C42   C     C_3   0.843584 0.219371 0.215844 -0.116073
Cr1   Cr    Cr6+3 0.608340 0.611040 0.520430 1.010989
Cr2   Cr    Cr6+3 0.287650 0.601120 0.489350 1.017951
Cr3   Cr    Cr6+3 0.604040 0.287870 0.490280 1.011218
Cr4   Cr    Cr6+3 0.054020 0.052700 0.970850 1.003714
Cr5   Cr    Cr6+3 0.059230 0.375120 0.993390 1.019370
Cr6   Cr    Cr6+3 0.374950 0.061200 0.992340 1.033845
H1    H     H_    0.606292 0.282173 0.238007 0.130479
H2    H     H_    0.199048 0.147176 0.257339 0.101865
H3    H     H_    0.081064 0.984964 0.316113 0.123487
H4    H     H_    0.148317 0.797386 0.174727 0.136003
H5    H     H_    0.519922 0.456222 0.765273 0.084547
H6    H     H_    0.450062 0.117107 0.670275 0.137232
H7    H     H_    0.182190 0.254141 0.737004 0.128796
H8    H     H_    0.125871 0.517058 0.681083 0.149953
H9    H     H_    0.254096 0.584957 0.831738 0.134163
H10   H     H_    0.888452 0.102987 0.195586 0.124465
H11   H     H_    0.988982 0.234909 0.336595 0.125248
H12   H     H_    0.974614 0.437045 0.239684 0.128663
H13   H     H_    0.694181 0.617603 0.282905 0.123081
H14   H     H_    0.586768 0.492945 0.140788 0.115071
H15   H     H_    0.416082 0.623110 0.251343 0.105353
H16   H     H_    0.535181 0.782532 0.192569 0.125595
H17   H     H_    0.469083 0.969633 0.338335 0.138261
O1    O     O_R   0.751220 0.499230 0.435170 -0.503803
O2    O     O_R   0.297880 0.469080 0.560050 -0.501784
O3    O     O_R   0.489720 0.254590 0.564810 -0.516959
O4    O     O_R   0.725220 0.304230 0.585080 -0.494508
O5    O     O_3   0.500010 0.500010 0.500020 -0.328156
O6    O     O_R   0.171830 0.913880 0.057510 -0.525021
O7    O     O_R   0.940690 0.186050 0.054730 -0.522358
O8    O     O_R   0.920470 0.405720 0.075010 -0.517597
O9    O     O_R   0.196690 0.370460 0.084120 -0.503169
O10   O     O_R   0.412990 0.180750 0.091610 -0.519449
O11   O     O_R   0.366620 0.943130 0.065760 -0.500817
O12   O     O_R   0.477220 0.727600 0.436870 -0.517545
O13   O     O_R   0.160510 0.906330 0.879210 -0.514753
O14   O     O_R   0.930190 0.179050 0.889450 -0.505365
O15   O     O_R   0.909140 0.398170 0.896710 -0.502392
O16   O     O_R   0.186190 0.363460 0.918830 -0.503493
O17   O     O_R   0.401670 0.173200 0.913310 -0.485290
O18   O     O_R   0.356120 0.936130 0.900470 -0.483167
O19   O     O_3   0.162740 0.163010 0.985530 -0.273662
O20   O     O_R   0.258650 0.745120 0.411470 -0.507630
O21   O     O_R   0.297070 0.467240 0.395960 -0.487690
O22   O     O_R   0.488830 0.252610 0.387790 -0.520981
O23   O     O_R   0.724400 0.302390 0.420980 -0.489139
O24   O     O_R   0.752100 0.501210 0.612190 -0.493480
O25   O     O_R   0.478040 0.729440 0.600970 -0.500879
O26   O     O_R   0.259530 0.747110 0.588490 -0.498011
N1    N     N_2   0.609244 0.168117 0.828293 -0.491757
H18   H     H_    0.648553 0.220987 0.873206 0.254864
C43   C     C_3   0.716048 0.057989 0.778700 -0.273380
H19   H     H_    0.816016 0.997065 0.816977 0.164600
H20   H     H_    0.740456 0.106585 0.732863 0.151828
H21   H     H_    0.676884 0.981087 0.748157 0.153318

loop_
_geom_bond_atom_site_label_1
_geom_bond_atom_site_label_2
_ccdc_geom_bond_type
C18   C21   S    
C1    O12   A    
Cr6   O11   S    
C3    C23   S    
C19   C20   S    
C1    C11   S    
C3    C6    S    
C42   H10   S    
C32   O10   A    
C7    C8    S    
C13   H17   S    
Cr1   O24   S    
C25   H9    S    
C6    H13   S    
Cr3   O22   S    
C8    C42   S    
C32   O9    A    
C5    C6    S    
C31   O8    A    
C15   C16   S    
C9    H16   S    
C35   O15   A    
C18   C19   S    
C9    C13   S    
C34   O26   A    
C11   C15   S    
C10   H15   S    
C2    C7    S    
C28   C35   S    
C36   O17   A    
C16   C17   S    
C18   C26   S    
C32   C41   S    
Cr2   O5    S    
C15   H3    S    
C9    C10   S    
Cr4   O7    S    
C12   O22   A    
C19   H5    S    
C21   C22   S    
Cr6   O10   S    
C17   C33   S    
Cr5   O15   S    
Cr2   O21   S    
C1    O20   A    
Cr1   O25   S    
C14   H2    S    
Cr3   O4    S    
C20   C24   S    
Cr3   O23   S    
C24   C25   S    
Cr5   O8    S    
C27   C39   S    
Cr4   O13   S    
C43   H21   S    
C25   C26   S    
C29   C34   S    
Cr6   O19   S    
C30   C37   S    
C12   C40   S    
C34   O25   A    
C7    H14   S    
C29   C30   T    
C2    H1    S    
C20   C38   S    
C33   O11   A    
C36   O16   A    
Cr3   O3    S    
N1    C43   S    
C39   O4    A    
Cr5   O19   S    
C20   C21   S    
C43   H20   S    
Cr4   O6    S    
C6    C7    S    
Cr2   O26   S    
Cr4   O19   S    
C9    C17   S    
C31   O7    A    
C38   O3    A    
Cr1   O5    S    
C23   O23   A    
C22   C24   S    
Cr1   O12   S    
C3    C4    S    
C23   O1    A    
C26   C36   S    
C40   C41   T    
C5    H12   S    
Cr3   O5    S    
C8    C31   S    
C16   H4    S    
Cr5   O9    S    
C4    C5    S    
C5    C8    S    
C22   H7    S    
C24   H8    S    
C37   O13   A    
Cr6   O18   S    
C12   O21   A    
C21   H6    S    
C18   N1    S    
C2    C3    S    
C10   C16   S    
C11   C13   S    
Cr4   O14   S    
C4    C42   S    
C2    C42   S    
Cr1   O1    S    
C4    H11   S    
C35   O14   A    
N1    H18   S    
Cr6   O17   S    
Cr5   O16   S    
C43   H19   S    
C19   C25   S    
C10   C11   S    
C33   O6    A    
C38   O2    A    
C22   C26   S    
C27   C28   T    
C14   C15   S    
C37   O18   A    
Cr2   O2    S    
C13   C14   S    
C39   O24   A    
Cr2   O20   S    
C14   C17   S    
