data_mof_unit_56305.cif
_audit_creation_date              2012-12-10T17:41:04-0500
_audit_creation_method            fapswitch 2.2
_symmetry_space_group_name_H-M    P1
_symmetry_Int_Tables_number       1
_space_group_crystal_system       triclinic
_cell_length_a                    14.393819
_cell_length_b                    16.242983
_cell_length_c                    9.997873
_cell_angle_alpha                 90.146202
_cell_angle_beta                  89.998176
_cell_angle_gamma                 88.618125
_cell_volume                      2336.80085093

loop_
_atom_site_label
_atom_site_type_symbol
_atom_type_description
_atom_site_fract_x
_atom_site_fract_y
_atom_site_fract_z
_atom_type_partial_charge
C1    C     C_R   0.379400 0.880482 0.502314 0.897610
C2    C     C_R   0.703630 0.231239 0.393605 0.487155
C3    C     C_R   0.172802 0.245428 0.393355 0.494328
C4    C     C_R   0.203628 0.731241 0.393608 0.487154
C5    C     C_R   0.654814 0.791747 0.507388 -0.180064
C6    C     C_R   0.693460 0.180844 0.507262 -0.205291
C7    C     C_R   0.154815 0.291747 0.507388 -0.180064
C8    C     C_R   0.193459 0.680845 0.507263 -0.205297
C9    C     C_R   0.334293 0.005418 0.149309 -0.098476
C10   C     C_R   0.834293 0.505418 0.149309 -0.098473
C11   C     C_R   0.248664 0.004958 0.089824 -0.156739
C12   C     C_R   0.380952 0.121806 0.500928 0.899690
C13   C     C_R   0.748664 0.504958 0.089824 -0.156750
C14   C     C_R   0.242272 0.004640 0.953363 -0.138005
C15   C     C_R   0.742272 0.504641 0.953363 -0.138005
C16   C     C_R   0.322441 0.005799 0.870809 0.581432
C17   C     C_R   0.822441 0.505799 0.870809 0.581432
C18   C     C_R   0.414496 0.004539 0.930632 0.038533
C19   C     C_R   0.914496 0.504539 0.930632 0.038530
C20   C     C_R   0.416930 0.004909 0.075042 0.004151
C21   C     C_R   0.916930 0.504909 0.075042 0.004150
C22   C     C_R   0.580877 0.992103 0.070014 0.640890
C23   C     C_R   0.879401 0.380482 0.502314 0.897610
C24   C     C_R   0.080877 0.492103 0.070015 0.640890
C25   C     C_R   0.623463 0.117014 0.501353 0.881159
C26   C     C_R   0.608157 0.872531 0.500931 0.887299
C27   C     C_R   0.123463 0.617014 0.501354 0.881153
C28   C     C_R   0.108157 0.372531 0.500931 0.887300
C29   C     C_R   0.579002 0.994123 0.926220 -0.219006
C30   C     C_R   0.079002 0.494123 0.926220 -0.219006
C31   C     C_R   0.321819 0.211516 0.751412 -0.306352
C32   C     C_R   0.317015 0.801783 0.763851 -0.354739
C33   C     C_R   0.821818 0.711515 0.751413 -0.306353
C34   C     C_R   0.880952 0.621806 0.500928 0.899683
C35   C     C_R   0.817013 0.301783 0.763850 -0.354739
C36   C     C_R   0.267986 0.207955 0.868639 0.481476
C37   C     C_R   0.300369 0.760130 0.881830 0.440092
C38   C     C_R   0.767985 0.707955 0.868639 0.481475
C39   C     C_R   0.800369 0.260130 0.881829 0.440092
C40   C     C_R   0.671146 0.719352 0.857292 0.452401
C41   C     C_R   0.760428 0.182621 0.875663 0.457114
C42   C     C_R   0.171147 0.219353 0.857292 0.452400
C43   C     C_R   0.260426 0.682622 0.875664 0.457116
C44   C     C_R   0.635717 0.759686 0.743704 -0.349266
C45   C     C_R   0.249968 0.192031 0.391267 -0.349280
C46   C     C_R   0.736707 0.151323 0.748985 -0.313239
C47   C     C_R   0.135718 0.259686 0.743704 -0.349265
C48   C     C_R   0.236706 0.651324 0.748986 -0.313239
C49   C     C_R   0.690708 0.762839 0.628148 -0.018355
C50   C     C_R   0.741471 0.199629 0.629476 -0.016653
C51   C     C_R   0.190709 0.262840 0.628148 -0.018355
C52   C     C_R   0.241470 0.699630 0.629477 -0.016650
C53   C     C_R   0.277053 0.221911 0.626975 0.022505
C54   C     C_R   0.292171 0.772544 0.634957 0.046019
C55   C     C_R   0.777053 0.721911 0.626976 0.022507
C56   C     C_R   0.268441 0.792359 0.394441 -0.350747
C57   C     C_R   0.792171 0.272544 0.634957 0.046018
C58   C     C_R   0.307184 0.184742 0.504718 -0.159549
C59   C     C_R   0.312466 0.814424 0.512132 -0.141107
C60   C     C_R   0.807183 0.684742 0.504718 -0.159554
C61   C     C_R   0.812466 0.314424 0.512132 -0.141102
C62   C     C_3   0.223276 0.003139 0.678861 -0.358109
C63   C     C_3   0.723276 0.503139 0.678861 -0.358108
C64   C     C_3   0.384997 0.221731 0.024228 -0.412932
C65   C     C_3   0.405273 0.807036 0.034351 -0.385169
C66   C     C_3   0.884997 0.721729 0.024227 -0.412921
C67   C     C_R   0.749968 0.692031 0.391267 -0.349281
C68   C     C_3   0.905273 0.307036 0.034349 -0.385171
C69   C     C_3   0.542877 0.642132 0.903369 -0.357043
C70   C     C_3   0.797981 0.137129 0.090629 -0.136317
C71   C     C_3   0.042879 0.142131 0.903370 -0.357041
C72   C     C_3   0.297976 0.637132 0.090632 -0.136316
C73   C     C_3   0.655249 0.791202 0.184768 -0.181904
C74   C     C_3   0.583888 0.281295 0.266769 -0.239468
C75   C     C_3   0.155250 0.291202 0.184768 -0.181901
C76   C     C_3   0.083866 0.781291 0.266805 -0.239482
C77   C     C_3   0.739386 0.949998 0.062350 -0.475941
C78   C     C_R   0.768444 0.292357 0.394440 -0.350757
C79   C     C_3   0.239386 0.449999 0.062351 -0.475943
C80   C     C_R   0.672802 0.745428 0.393355 0.494328
H1    H     H_    0.263661 0.155803 0.302050 0.202619
H2    H     H_    0.340454 0.861143 0.783950 0.240880
H3    H     H_    0.895591 0.699038 0.757628 0.190020
H4    H     H_    0.840452 0.361144 0.783949 0.240880
H5    H     H_    0.563027 0.778446 0.740196 0.187933
H6    H     H_    0.714796 0.088616 0.747577 0.189680
H7    H     H_    0.063028 0.278446 0.740197 0.187933
H8    H     H_    0.214795 0.588617 0.747579 0.189680
H9    H     H_    0.333105 0.002798 0.255219 0.197140
H10   H     H_    0.833105 0.502798 0.255219 0.197141
H11   H     H_    0.186323 0.004046 0.150491 0.141038
H12   H     H_    0.280318 0.825676 0.302460 0.204354
H13   H     H_    0.686323 0.504046 0.150491 0.141035
H14   H     H_    0.185702 0.061861 0.699604 0.166753
H15   H     H_    0.185043 0.948099 0.711743 0.154834
H16   H     H_    0.229356 0.998646 0.568497 0.178296
H17   H     H_    0.685702 0.561861 0.699605 0.166753
H18   H     H_    0.685043 0.448100 0.711743 0.154832
H19   H     H_    0.729356 0.498647 0.568497 0.178297
H20   H     H_    0.447533 0.195293 0.973379 0.203421
H21   H     H_    0.395620 0.213763 0.133340 0.209240
H22   H     H_    0.377602 0.289132 0.004968 0.140210
H23   H     H_    0.763661 0.655803 0.302051 0.202620
H24   H     H_    0.411685 0.843073 0.127699 0.224870
H25   H     H_    0.446223 0.837144 0.954903 0.160327
H26   H     H_    0.436677 0.745962 0.057177 0.201879
H27   H     H_    0.947532 0.695287 0.973381 0.203427
H28   H     H_    0.895619 0.713764 0.133340 0.209236
H29   H     H_    0.877606 0.789129 0.004962 0.140210
H30   H     H_    0.911686 0.343074 0.127697 0.224869
H31   H     H_    0.946222 0.337145 0.954900 0.160328
H32   H     H_    0.936678 0.245963 0.057175 0.201880
H33   H     H_    0.567430 0.600769 0.821993 0.142915
H34   H     H_    0.780325 0.325672 0.302457 0.204350
H35   H     H_    0.484411 0.680913 0.865002 0.158367
H36   H     H_    0.516873 0.602114 0.983909 0.187943
H37   H     H_    0.801672 0.194261 0.149389 0.233736
H38   H     H_    0.866461 0.116528 0.050574 0.066771
H39   H     H_    0.777741 0.092220 0.167130 0.223637
H40   H     H_    0.067432 0.100769 0.821992 0.142914
H41   H     H_    0.984412 0.180912 0.865004 0.158367
H42   H     H_    0.016876 0.102112 0.983909 0.187944
H43   H     H_    0.301665 0.694264 0.149391 0.233737
H44   H     H_    0.366457 0.616530 0.050581 0.066772
H45   H     H_    0.172590 0.003229 0.914379 0.121399
H46   H     H_    0.277734 0.592223 0.167133 0.223637
H47   H     H_    0.695390 0.843263 0.223354 0.179600
H48   H     H_    0.601882 0.814845 0.113871 0.197885
H49   H     H_    0.704585 0.749517 0.133882 0.235330
H50   H     H_    0.532749 0.277597 0.349939 0.130159
H51   H     H_    0.546272 0.272411 0.171449 0.183325
H52   H     H_    0.614014 0.343701 0.262858 0.139460
H53   H     H_    0.195392 0.343263 0.223355 0.179600
H54   H     H_    0.101885 0.314846 0.113871 0.197886
H55   H     H_    0.204587 0.249518 0.133882 0.235329
H56   H     H_    0.672590 0.503230 0.914379 0.121399
H57   H     H_    0.032726 0.777561 0.349967 0.130177
H58   H     H_    0.046257 0.772422 0.171477 0.183320
H59   H     H_    0.113975 0.843704 0.262940 0.139440
H60   H     H_    0.766558 0.993883 0.988792 0.211788
H61   H     H_    0.719957 0.893505 0.007177 0.143058
H62   H     H_    0.798093 0.933797 0.130032 0.181820
H63   H     H_    0.266558 0.493886 0.988793 0.211788
H64   H     H_    0.219959 0.393507 0.007176 0.143058
H65   H     H_    0.298094 0.433800 0.130032 0.181820
H66   H     H_    0.641219 0.989625 0.866885 0.157107
H67   H     H_    0.141219 0.489624 0.866885 0.157106
H68   H     H_    0.395592 0.199038 0.757627 0.190020
N1    N     N_R   0.498810 0.000000 0.142780 -0.171715
N2    N     N_R   0.998810 0.500000 0.142780 -0.171714
N3    N     N_R   0.498740 1.000000 0.857170 -0.146089
N4    N     N_R   0.998740 0.500000 0.857170 -0.146089
O1    O     O_R   0.408390 0.908380 0.614690 -0.586646
O2    O     O_R   0.591620 0.908390 0.614640 -0.639121
O3    O     O_R   0.091620 0.591610 0.614640 -0.639747
O4    O     O_R   0.091620 0.408390 0.614640 -0.639121
O5    O     O_R   0.591610 0.091610 0.385310 -0.521952
O6    O     O_R   0.591610 0.908390 0.385310 -0.569048
O7    O     O_R   0.091610 0.591610 0.385310 -0.521956
O8    O     O_R   0.091610 0.408390 0.385310 -0.569047
O9    O     O_3   0.313727 0.004369 0.733414 -0.568437
O10   O     O_3   0.813727 0.504369 0.733414 -0.568437
O11   O     O_3   0.305075 0.178449 0.987570 -0.608427
O12   O     O_R   0.408390 0.091620 0.614690 -0.547590
O13   O     O_3   0.309922 0.801703 0.002015 -0.614000
O14   O     O_3   0.805074 0.678449 0.987571 -0.608430
O15   O     O_3   0.809922 0.301702 0.002015 -0.614005
O16   O     O_3   0.613617 0.691121 0.957369 -0.602185
O17   O     O_3   0.729321 0.141999 0.989242 -0.590313
O18   O     O_3   0.113618 0.191121 0.957369 -0.602186
O19   O     O_3   0.229318 0.642000 0.989243 -0.590314
O20   O     O_3   0.611519 0.749487 0.287951 -0.607484
O21   O     O_3   0.653009 0.218658 0.277909 -0.560706
O22   O     O_3   0.111520 0.249487 0.287950 -0.607484
O23   O     O_R   0.908390 0.408380 0.614690 -0.586646
O24   O     O_3   0.153003 0.718665 0.277914 -0.560706
O25   O     O_3   0.664502 0.983985 0.140121 -0.568288
O26   O     O_3   0.164502 0.483984 0.140121 -0.568292
O27   O     O_R   0.908390 0.591620 0.614690 -0.547588
O28   O     O_R   0.408370 0.908380 0.385360 -0.662963
O29   O     O_R   0.408370 0.091620 0.385360 -0.654864
O30   O     O_R   0.908370 0.408380 0.385360 -0.662963
O31   O     O_R   0.908370 0.591620 0.385360 -0.654864
O32   O     O_R   0.591620 0.091610 0.614640 -0.639749
Zn1   Zn    Zn3+2 0.500010 0.000000 0.653130 0.966128
Zn2   Zn    Zn3+2 0.000010 0.500000 0.653130 0.966128
Zn3   Zn    Zn3+2 0.499980 0.000000 0.346870 0.997584
Zn4   Zn    Zn3+2 0.999980 0.500000 0.346870 0.997583

loop_
_geom_bond_atom_site_label_1
_geom_bond_atom_site_label_2
_ccdc_geom_bond_type
C44   C49   A    
C33   C55   A    
C63   O10   S    
C38   C40   A    
C69   H36   S    
C22   C29   A    
C74   H52   S    
C71   H42   S    
C36   C42   A    
C77   H60   S    
C66   H27   S    
C4    C8    A    
O6    Zn3   S    
O29   Zn3   S    
C75   H54   S    
C67   H23   S    
C30   H67   S    
C79   H65   S    
O27   Zn2   S    
C2    C6    A    
C76   H57   S    
C20   N1    A    
C64   H22   S    
C69   H33   S    
C14   H45   S    
C71   H40   S    
C19   C21   A    
C70   O17   S    
C63   H18   S    
C3    C7    A    
C1    C59   S    
C2    O21   S    
N2    Zn4   S    
C1    O28   A    
C75   H55   S    
C6    C25   S    
C23   O23   A    
C70   H37   S    
C27   O7    A    
C65   O13   S    
C28   O8    A    
O32   Zn1   S    
N3    Zn1   S    
C68   H32   S    
C65   H25   S    
C77   H62   S    
C63   H19   S    
C42   O18   S    
C17   C19   A    
O30   Zn4   S    
C79   H63   S    
C79   H64   S    
C60   C67   A    
C36   O11   S    
C41   C46   A    
C48   H8    S    
C43   C48   A    
C70   H39   S    
C40   C44   A    
C25   O32   A    
C12   C58   S    
C22   N1    A    
C10   C13   A    
C74   H51   S    
C72   H44   S    
C75   O22   S    
C34   C60   S    
C5    C49   A    
C34   O27   A    
C78   H34   S    
C55   C60   A    
C64   O11   S    
C5    C80   A    
C3    O22   S    
C32   C54   A    
C52   C54   A    
C24   C30   A    
C54   C59   A    
C10   C21   A    
C27   O3    A    
C64   H21   S    
O2    Zn1   S    
C73   H49   S    
C45   C58   A    
C71   O18   S    
C66   O14   S    
C72   O19   S    
C76   O24   S    
C23   O30   A    
C39   C41   A    
O12   Zn1   S    
C9    H9    S    
C29   H66   S    
C43   O19   S    
C37   O13   S    
C15   H56   S    
C49   C55   A    
C41   O17   S    
C3    C45   A    
C77   O25   S    
C7    C28   S    
C13   H13   S    
C51   C53   A    
C68   H31   S    
C47   H7    S    
O7    Zn4   S    
C37   C43   A    
C35   C39   A    
C2    C78   A    
O28   Zn3   S    
C29   N3    A    
C9    C11   A    
C9    C20   A    
C30   N4    A    
C12   O29   A    
C38   O14   S    
C13   C15   A    
C23   C61   S    
C61   C78   A    
C53   C58   A    
C19   N4    A    
C79   O26   S    
C34   O31   A    
C68   H30   S    
C32   C37   A    
C31   C53   A    
C73   O20   S    
C1    O1    A    
C33   H3    S    
C24   N2    A    
C74   O21   S    
C31   H68   S    
N4    Zn2   S    
N1    Zn3   S    
C76   H58   S    
C62   H14   S    
C72   H43   S    
C24   O26   S    
C14   C16   A    
C26   O2    A    
C80   O20   S    
C18   N3    A    
C65   H26   S    
C76   H59   S    
C15   C17   A    
C8    C52   A    
C69   H35   S    
C6    C50   A    
C50   C57   A    
C71   H41   S    
C45   H1    S    
C67   C80   A    
O5    Zn3   S    
C66   H28   S    
O3    Zn2   S    
C47   C51   A    
C35   H4    S    
C75   H53   S    
C57   C61   A    
O4    Zn2   S    
C16   O9    S    
C73   H48   S    
C32   H2    S    
C46   C50   A    
C33   C38   A    
C56   C59   A    
C35   C57   A    
C74   H50   S    
C64   H20   S    
C7    C51   A    
C63   H17   S    
C73   H47   S    
O31   Zn4   S    
O23   Zn2   S    
C25   O5    A    
C21   N2    A    
O1    Zn1   S    
C12   O12   A    
C70   H38   S    
C11   C14   A    
C26   O6    A    
C18   C20   A    
C42   C47   A    
C66   H29   S    
C39   O15   S    
C77   H61   S    
C40   O16   S    
C69   O16   S    
C17   O10   S    
C5    C26   S    
C62   O9    S    
C68   O15   S    
C11   H11   S    
C48   C52   A    
C10   H10   S    
C16   C18   A    
C4    O24   S    
C72   H46   S    
C28   O4    A    
C8    C27   S    
O8    Zn4   S    
C31   C36   A    
C65   H24   S    
C22   O25   S    
C62   H16   S    
C62   H15   S    
C56   H12   S    
C4    C56   A    
C44   H5    S    
C46   H6    S    
