data_mof_unit_27496.cif
_audit_creation_date              2012-12-10T17:35:04-0500
_audit_creation_method            fapswitch 2.2
_symmetry_space_group_name_H-M    P1
_symmetry_Int_Tables_number       1
_space_group_crystal_system       triclinic
_cell_length_a                    12.513845
_cell_length_b                    13.145771
_cell_length_c                    13.810451
_cell_angle_alpha                 109.231883
_cell_angle_beta                  74.117907
_cell_angle_gamma                 116.940041
_cell_volume                      1891.29930351

loop_
_atom_site_label
_atom_site_type_symbol
_atom_type_description
_atom_site_fract_x
_atom_site_fract_y
_atom_site_fract_z
_atom_type_partial_charge
C1    C     C_R   0.143720 0.715220 0.510268 0.782299
C2    C     C_1   0.966664 0.497640 0.791022 -0.169520
C3    C     C_R   0.726981 0.949345 0.401234 0.293961
C4    C     C_R   0.774427 0.158123 0.469764 -0.247885
C5    C     C_R   0.183502 0.933312 0.570666 0.234551
C6    C     C_R   0.266781 0.050983 0.591082 0.271016
C7    C     C_R   0.390919 0.078541 0.564956 -0.304101
C8    C     C_R   0.436196 0.991297 0.510587 0.097671
C9    C     C_R   0.351704 0.874466 0.477621 0.037944
C10   C     C_R   0.563050 0.017019 0.484016 0.065249
C11   C     C_R   0.602480 0.925881 0.425521 -0.031543
C12   C     C_R   0.981759 0.501572 0.686030 0.805364
C13   C     C_R   0.517814 0.815460 0.384509 -0.135670
C14   C     C_R   0.395902 0.792903 0.404895 -0.199932
C15   C     C_R   0.652403 0.130333 0.513660 -0.330218
C16   C     C_R   0.810535 0.066113 0.407504 0.350606
C17   C     C_R   0.225514 0.842256 0.516282 -0.226596
C18   C     C_R   0.612235 0.619649 0.699895 -0.294574
C19   C     C_R   0.288799 0.405488 0.337934 0.470471
C20   C     C_R   0.410808 0.458691 0.298172 -0.335806
C21   C     C_R   0.496192 0.512320 0.363779 -0.027252
C22   C     C_R   0.461487 0.502862 0.466426 0.002523
C23   C     C_R   0.856530 0.284643 0.485005 0.907108
C24   C     C_R   0.340341 0.492321 0.509434 0.109842
C25   C     C_R   0.548892 0.528788 0.529699 -0.059382
C26   C     C_R   0.522434 0.572187 0.636687 0.057841
C27   C     C_R   0.410862 0.579686 0.678715 -0.283356
C28   C     C_R   0.328000 0.557865 0.615066 0.275476
C29   C     C_R   0.659893 0.510642 0.492292 0.548795
C30   C     C_R   0.726401 0.619477 0.657662 0.005344
C31   C     C_R   0.016281 0.495533 0.313480 0.874502
C32   C     C_1   0.026909 0.493564 0.207580 -0.093704
C33   C     C_2   0.041027 0.492313 0.013572 -0.177079
C34   C     C_2   0.948186 0.492254 0.983885 -0.102012
C35   C     C_1   0.956334 0.494769 0.879184 -0.009965
C36   C     C_1   0.034418 0.492584 0.118805 0.047108
Cu1   Cu    Cu3+1 0.899780 0.525060 0.522890 1.018954
Cu2   Cu    Cu3+1 0.100220 0.474940 0.477110 1.010312
H1    H     H_    0.866585 0.491582 0.038118 0.196080
H2    H     H_    0.337361 0.710953 0.360658 0.167768
H3    H     H_    0.794674 0.656872 0.707635 0.149260
H4    H     H_    0.398230 0.621992 0.760242 0.162636
H5    H     H_    0.595110 0.659311 0.781699 0.153806
H6    H     H_    0.589298 0.555898 0.332680 0.251356
H7    H     H_    0.439994 0.453168 0.215898 0.160583
H8    H     H_    0.122788 0.493475 0.959372 0.145417
H9    H     H_    0.545596 0.747586 0.331014 0.196960
H10   H     H_    0.628814 0.200707 0.566130 0.183831
H11   H     H_    0.449250 0.170368 0.584885 0.149505
N1    N     N_R   0.748810 0.563010 0.557590 -0.226396
N2    N     N_R   0.250540 0.437620 0.443020 -0.201197
O1    O     O_R   0.025040 0.682470 0.528790 -0.578816
O2    O     O_R   0.194310 0.640150 0.490130 -0.586059
O3    O     O_R   0.903380 0.524130 0.659910 -0.603577
O4    O     O_R   0.072660 0.481800 0.621240 -0.544401
O5    O     O_R   0.805690 0.359850 0.509870 -0.558166
O6    O     O_R   0.974960 0.317530 0.471210 -0.501382
O7    O     O_R   0.927340 0.518200 0.378760 -0.473665
O8    O     O_R   0.096620 0.475870 0.340090 -0.608318
S1    S     S_3+6 0.671139 0.409136 0.365976 0.013824
O9    O     O_2   0.546069 0.327071 0.339937 -0.356329
O10   O     O_2   0.736945 0.479466 0.285345 -0.267206
O11   O     O_3   0.741189 0.320472 0.348082 -0.495005
H12   H     H_    0.676597 0.240529 0.346045 0.363966
N3    N     N_2   0.206893 0.326111 0.266600 -0.325316
H13   H     H_    0.201128 0.367567 0.217727 0.242460
C37   C     C_3   0.236560 0.226767 0.203733 -0.548249
H14   H     H_    0.163638 0.163575 0.156522 0.248204
H15   H     H_    0.247083 0.181316 0.253347 0.256174
H16   H     H_    0.321825 0.255522 0.148999 0.177855
N4    N     N_2   0.282002 0.646195 0.639934 -0.355438
H17   H     H_    0.337794 0.711082 0.600827 0.266443
C38   C     C_3   0.248551 0.697943 0.747853 -0.700042
H18   H     H_    0.183796 0.736328 0.752914 0.218430
H19   H     H_    0.329902 0.769654 0.780969 0.213627
H20   H     H_    0.205271 0.630948 0.794291 0.231326
S2    S     S_3+6 0.945970 0.094342 0.318701 0.036667
O12   O     O_2   0.962405 0.188611 0.270537 -0.284942
O13   O     O_2   0.048845 0.135019 0.377232 -0.312355
O14   O     O_3   0.942599 0.974584 0.222690 -0.470777
H21   H     H_    0.024476 0.974906 0.210650 0.368847
S3    S     S_3+6 0.776827 0.836045 0.381591 0.017662
O15   O     O_2   0.763806 0.759196 0.273733 -0.243652
O16   O     O_2   0.906612 0.885388 0.398014 -0.263715
O17   O     O_3   0.689989 0.754689 0.467607 -0.580205
H22   H     H_    0.705447 0.809299 0.536417 0.342108
N5    N     N_2   0.058522 0.910259 0.606335 -0.398614
H23   H     H_    0.999459 0.854829 0.553832 0.302749
C39   C     C_3   0.016093 0.896095 0.711484 -0.622813
H24   H     H_    0.022347 0.817128 0.718221 0.208637
H25   H     H_    0.920162 0.885861 0.733691 0.217748
H26   H     H_    0.070865 0.974837 0.765996 0.240851
N6    N     N_2   0.225321 0.142868 0.642085 -0.433725
H27   H     H_    0.284560 0.214735 0.687491 0.239942
C40   C     C_3   0.183251 0.176756 0.574769 -0.540004
H28   H     H_    0.148691 0.245452 0.621079 0.215771
H29   H     H_    0.108285 0.100202 0.536907 0.277832
H30   H     H_    0.258867 0.212928 0.514481 0.223694

loop_
_geom_bond_atom_site_label_1
_geom_bond_atom_site_label_2
_ccdc_geom_bond_type
C2    C35   T    
N5    H23   S    
N6    H27   S    
C38   H18   S    
C19   C20   A    
C18   C26   A    
C2    C12   S    
C40   H30   S    
C7    C8    A    
S2    O12   D    
C26   C27   A    
S1    O11   S    
C32   C36   T    
C31   O7    A    
C16   S2    S    
C10   C15   A    
C5    C6    A    
C5    C17   A    
C21   H6    S    
C33   C36   S    
S1    O10   D    
C34   C35   S    
C31   O8    A    
C1    O2    A    
Cu1   O5    S    
Cu2   O4    S    
C40   H28   S    
C8    C9    A    
N3    C37   S    
C22   C25   A    
C30   H3    S    
C18   C30   A    
C39   H25   S    
Cu1   O7    S    
C24   N2    A    
C30   N1    A    
N6    C40   S    
C21   C22   A    
C33   H8    S    
C38   H19   S    
C15   H10   S    
C29   N1    A    
S2    O13   D    
C25   C29   A    
O11   H12   S    
C37   H14   S    
C24   C28   A    
C23   O5    A    
C7    H11   S    
N4    C38   S    
Cu1   O1    S    
Cu2   N2    S    
C25   C26   A    
O17   H22   S    
C34   H1    S    
S1    O9    D    
C37   H15   S    
C4    C16   A    
C9    C14   A    
Cu1   Cu2   S    
Cu2   O6    S    
C31   C32   S    
C29   S1    S    
C6    N6    S    
C3    S3    S    
C33   C34   D    
C39   H26   S    
Cu1   O3    S    
C9    C17   A    
S3    O15   D    
S3    O16   D    
N5    C39   S    
C38   H20   S    
C22   C24   A    
C28   N4    S    
C13   H9    S    
S2    O14   S    
C23   O6    A    
C20   H7    S    
O14   H21   S    
C40   H29   S    
C6    C7    A    
S3    O17   S    
C1    C17   S    
C37   H16   S    
C4    C15   A    
C39   H24   S    
N4    H17   S    
C18   H5    S    
Cu1   N1    S    
C11   C13   A    
C27   H4    S    
Cu2   O2    S    
C19   N3    S    
C1    O1    A    
C12   O4    A    
C3    C11   A    
C10   C11   A    
C14   H2    S    
Cu2   O8    S    
C5    N5    S    
C19   N2    A    
C20   C21   A    
C8    C10   A    
N3    H13   S    
C27   C28   A    
C4    C23   S    
C13   C14   A    
C12   O3    A    
C3    C16   A    
