data_mof_unit_49177.cif
_audit_creation_date              2012-12-10T18:57:50-0500
_audit_creation_method            fapswitch 2.2
_symmetry_space_group_name_H-M    P1
_symmetry_Int_Tables_number       1
_space_group_crystal_system       triclinic
_cell_length_a                    10.750608
_cell_length_b                    9.935687
_cell_length_c                    8.887887
_cell_angle_alpha                 89.831571
_cell_angle_beta                  91.886137
_cell_angle_gamma                 88.415629
_cell_volume                      948.472629235

loop_
_atom_site_label
_atom_site_type_symbol
_atom_type_description
_atom_site_fract_x
_atom_site_fract_y
_atom_site_fract_z
_atom_type_partial_charge
C1    C     C_R   0.259620 0.502092 0.509697 0.880294
C2    C     C_R   0.055929 0.625032 0.472405 -0.115318
C3    C     C_R   0.871436 0.493338 0.456630 -0.155983
C4    C     C_R   0.124434 0.505840 0.516021 -0.157292
C5    C     C_R   0.561354 0.069769 0.612741 -0.038724
C6    C     C_R   0.441083 0.930146 0.385388 -0.016935
C7    C     C_R   0.439485 0.074456 0.386909 0.024213
C8    C     C_R   0.560894 0.925764 0.612575 0.010626
C9    C     C_2   0.128661 0.264979 0.612163 1.013902
C10   C     C_2   0.861083 0.730039 0.356768 1.039357
C11   C     C_2   0.884896 0.240652 0.453589 0.979769
C12   C     C_R   0.738687 0.497958 0.482641 0.904602
C13   C     C_2   0.109728 0.761588 0.477880 0.995068
C14   C     C_2   0.630370 0.141538 0.733453 0.545710
C15   C     C_2   0.376175 0.857269 0.262618 0.487758
C16   C     C_2   0.365679 0.152137 0.272191 0.552326
C17   C     C_2   0.629373 0.849544 0.732557 0.607590
C18   C     C_R   0.499562 0.500140 0.218941 0.930358
C19   C     C_R   0.500417 0.499860 0.781052 0.948084
C20   C     C_1   0.499865 0.500194 0.065485 -0.076372
C21   C     C_1   0.500170 0.499810 0.934515 -0.112310
C22   C     C_R   0.064202 0.381949 0.534659 -0.122515
C23   C     C_R   0.930789 0.614981 0.430561 -0.087476
C24   C     C_R   0.940211 0.373260 0.487086 -0.121386
H1    H     H_    0.229209 0.198184 0.794368 0.376324
H2    H     H_    0.789918 0.917740 0.375706 0.339095
H3    H     H_    0.782414 0.133365 0.304287 0.349841
H4    H     H_    0.135869 0.937430 0.370730 0.362602
H5    H     H_    0.683635 0.228491 0.707290 0.116863
H6    H     H_    0.321616 0.771110 0.287765 0.112277
H7    H     H_    0.283020 0.208601 0.303547 0.069655
H8    H     H_    0.585625 0.831821 0.838838 0.103711
N1    N     N_R   0.500000 0.857200 0.500000 -0.160389
N2    N     N_R   0.500000 0.142800 0.500000 -0.174004
O1    O     O_R   0.316770 0.614620 0.499990 -0.637721
O2    O     O_R   0.185353 0.283193 0.754217 -0.762177
O3    O     O_2   0.808144 0.713970 0.234472 -0.599932
O4    O     O_R   0.849986 0.853246 0.430862 -0.700591
O5    O     O_2   0.887063 0.150874 0.548079 -0.581317
O6    O     O_R   0.824853 0.222626 0.313371 -0.748382
O7    O     O_2   0.157601 0.802250 0.595334 -0.538552
O8    O     O_R   0.100504 0.845416 0.351073 -0.797813
O9    O     O_2   0.627050 0.105470 0.864676 -0.537377
O10   O     O_2   0.386567 0.889063 0.131024 -0.509015
O11   O     O_2   0.398297 0.156110 0.142023 -0.486996
O12   O     O_R   0.683230 0.385380 0.500010 -0.650658
O13   O     O_2   0.736652 0.810878 0.715862 -0.502142
O14   O     O_R   0.683230 0.614620 0.500010 -0.586558
O15   O     O_R   0.316770 0.385380 0.499990 -0.643456
O16   O     O_R   0.500010 0.614640 0.285340 -0.637926
O17   O     O_R   0.499990 0.385360 0.714660 -0.622868
O18   O     O_R   0.499990 0.614640 0.714660 -0.634609
O19   O     O_R   0.500010 0.385360 0.285340 -0.596437
O20   O     O_2   0.136872 0.155657 0.549972 -0.620817
Zn1   Zn    Zn3+2 0.500000 0.653120 0.500000 1.001002
Zn2   Zn    Zn3+2 0.500000 0.346880 0.500000 0.983022

loop_
_geom_bond_atom_site_label_1
_geom_bond_atom_site_label_2
_ccdc_geom_bond_type
C16   O11   D    
N1    Zn1   S    
O14   Zn1   S    
C2    C4    A    
C6    N1    A    
N2    Zn2   S    
C6    C7    A    
C9    O20   D    
C10   C23   S    
C5    C8    A    
O15   Zn2   S    
C4    C22   A    
C3    C23   A    
C8    C17   S    
O18   Zn1   S    
C12   O14   A    
H3    O6    S    
C10   O4    S    
C1    C4    S    
C5    N2    A    
C13   O7    D    
C5    C14   S    
C16   H7    S    
C11   O5    D    
C18   O16   A    
C3    C24   A    
C10   O3    D    
H4    O8    S    
C13   O8    S    
C19   C21   S    
C15   O10   D    
C18   C20   S    
C8    N1    A    
C11   O6    S    
C7    N2    A    
C22   C24   A    
C9    C22   S    
C14   H5    S    
O1    Zn1   S    
C9    O2    S    
C19   O17   A    
C11   C24   S    
C20   C21   T    
C1    O1    A    
C15   H6    S    
C12   O12   A    
O17   Zn2   S    
O19   Zn2   S    
O12   Zn2   S    
C2    C23   A    
C17   H8    S    
C2    C13   S    
C7    C16   S    
C3    C12   S    
H1    O2    S    
C18   O19   A    
C6    C15   S    
C1    O15   A    
C19   O18   A    
H2    O4    S    
O16   Zn1   S    
C17   O13   D    
C14   O9    D    
