data_mof_unit_33293.cif
_audit_creation_date              2012-12-11T17:45:21-0500
_audit_creation_method            fapswitch 2.2
_symmetry_space_group_name_H-M    P1
_symmetry_Int_Tables_number       1
_space_group_crystal_system       triclinic
_cell_length_a                    15.148335
_cell_length_b                    14.896062
_cell_length_c                    14.93471
_cell_angle_alpha                 108.840363
_cell_angle_beta                  109.687096
_cell_angle_gamma                 108.614363
_cell_volume                      2633.98568692

loop_
_atom_site_label
_atom_site_type_symbol
_atom_type_description
_atom_site_fract_x
_atom_site_fract_y
_atom_site_fract_z
_atom_type_partial_charge
C1    C     C_R   0.905911 0.192172 0.988335 -0.124271
C2    C     C_R   0.318001 0.805220 0.327075 0.059221
C3    C     C_R   0.323999 0.495211 0.028281 0.080743
C4    C     C_R   0.046048 0.495521 0.325386 0.052730
C5    C     C_R   0.711034 0.409852 0.018563 0.323964
C6    C     C_R   0.097582 0.593321 0.794555 -0.208769
C7    C     C_R   0.789862 0.196695 0.702162 -0.040341
C8    C     C_R   0.923601 0.735540 0.012816 -0.103343
C9    C     C_R   0.022265 0.745247 0.930735 -0.109222
C10   C     C_R   0.699541 0.204147 0.792323 -0.070415
C11   C     C_R   0.796193 0.589899 0.104622 0.242599
C12   C     C_R   0.312387 0.771611 0.226031 -0.145532
C13   C     C_R   0.006918 0.414710 0.701032 0.356047
C14   C     C_R   0.708906 0.499568 0.082361 -0.063203
C15   C     C_R   0.075021 0.506988 0.703638 0.004713
C16   C     C_R   0.694283 0.142158 0.698425 -0.003639
C17   C     C_R   0.940056 0.765088 0.937837 0.038340
C18   C     C_R   0.809749 0.170442 0.201898 -0.088107
C19   C     C_R   0.880533 0.263343 0.302093 -0.073660
C20   C     C_R   0.989692 0.293705 0.351137 0.110914
C21   C     C_R   0.026461 0.226861 0.304176 -0.122445
C22   C     C_R   0.954434 0.132286 0.205434 -0.131014
C23   C     C_R   0.222893 0.405814 0.962013 -0.097510
C24   C     C_R   0.846179 0.104363 0.155077 -0.164539
C25   C     C_R   0.092299 0.413970 0.545078 -0.142648
C26   C     C_R   0.117629 0.511636 0.627386 0.018199
C27   C     C_R   0.171332 0.606845 0.623228 -0.064115
C28   C     C_R   0.170488 0.594856 0.525368 0.258442
C29   C     C_R   0.096776 0.495717 0.429997 -0.008770
C30   C     C_R   0.065388 0.402248 0.442185 -0.018173
C31   C     C_R   0.213700 0.800182 0.704179 -0.119102
C32   C     C_R   0.281785 0.907474 0.785390 -0.130571
C33   C     C_R   0.366255 0.933078 0.881698 -0.056941
C34   C     C_R   0.051145 0.586388 0.314729 -0.033327
C35   C     C_R   0.383759 0.850962 0.895895 -0.101026
C36   C     C_R   0.318173 0.743442 0.813007 -0.155021
C37   C     C_R   0.232597 0.717366 0.716496 0.171448
C38   C     C_R   0.191003 0.017129 0.375331 -0.118437
C39   C     C_R   0.287527 0.014318 0.410053 -0.124749
C40   C     C_R   0.319386 0.983400 0.489940 0.103292
C41   C     C_R   0.257104 0.961950 0.539363 -0.190683
C42   C     C_R   0.159277 0.961994 0.502310 -0.069988
C43   C     C_R   0.125913 0.988816 0.419822 0.033445
C44   C     C_R   0.503019 0.031473 0.606929 -0.181161
C45   C     C_R   0.313452 0.587753 0.050401 -0.130521
C46   C     C_R   0.600332 0.040078 0.613499 0.063937
C47   C     C_R   0.600315 0.963969 0.527323 0.015395
C48   C     C_R   0.504336 0.872337 0.447839 -0.113860
C49   C     C_R   0.410993 0.878349 0.431234 0.070075
C50   C     C_R   0.409928 0.959822 0.510982 0.034944
C51   C     C_R   0.642414 0.061436 0.431814 -0.166671
C52   C     C_R   0.685427 0.081714 0.367738 0.465631
C53   C     C_R   0.757311 0.044827 0.356120 -0.062419
C54   C     C_R   0.781463 0.983570 0.405166 -0.034131
C55   C     C_R   0.734522 0.959613 0.466254 -0.122699
C56   C     C_R   0.979843 0.407668 0.220940 -0.078090
C57   C     C_R   0.666384 0.000527 0.481196 0.013627
C58   C     C_3   0.521002 0.383740 0.040130 -0.311727
C59   C     C_3   0.414028 0.380847 0.019716 -0.418286
C60   C     C_3   0.622944 0.579405 0.180158 -0.458496
C61   C     C_3   0.561601 0.528140 0.982450 0.192862
C62   C     C_3   0.606290 0.497360 0.072015 0.194518
C63   C     C_3   0.425709 0.494524 0.047391 0.223715
C64   C     C_3   0.515905 0.575308 0.167075 0.182800
C65   C     C_3   0.456604 0.527441 0.969544 -0.520789
C66   C     C_R   0.086444 0.080815 0.699074 0.385900
C67   C     C_R   0.217489 0.764972 0.313314 -0.036298
C68   C     C_R   0.007187 0.019672 0.714973 -0.247427
C69   C     C_R   0.036664 0.012865 0.811423 0.059414
C70   C     C_R   0.145188 0.057722 0.885493 -0.115313
C71   C     C_R   0.223535 0.112408 0.865465 -0.227252
C72   C     C_R   0.194295 0.124244 0.772445 -0.215691
C73   C     C_R   0.942302 0.863223 0.833206 -0.212855
C74   C     C_R   0.896126 0.824287 0.889064 0.073186
C75   C     C_R   0.828772 0.863320 0.913755 0.043402
C76   C     C_R   0.828691 0.952773 0.902015 -0.233492
C77   C     C_R   0.905335 0.013407 0.883698 0.056505
C78   C     C_R   0.002258 0.200161 0.905167 -0.130340
C79   C     C_R   0.955595 0.961771 0.837886 0.046560
C80   C     C_R   0.652791 0.771523 0.899080 -0.106358
C81   C     C_R   0.590757 0.767179 0.950131 -0.196200
C82   C     C_R   0.639550 0.815119 0.063240 0.312750
C83   C     C_R   0.749742 0.859563 0.124622 -0.099832
C84   C     C_R   0.812182 0.866671 0.074447 -0.233810
C85   C     C_R   0.764463 0.824490 0.961370 0.073727
C86   C     C_R   0.939346 0.131100 0.927056 0.049024
H1    H     H_    0.152715 0.677029 0.829610 0.135956
H2    H     H_    0.821875 0.160694 0.656156 0.165317
H3    H     H_    0.056659 0.756512 0.880306 0.101893
H4    H     H_    0.647286 0.179804 0.823998 0.153016
H5    H     H_    0.789479 0.033306 0.078077 0.145759
H6    H     H_    0.726964 0.150101 0.158853 0.208496
H7    H     H_    0.852441 0.316330 0.336929 0.181131
H8    H     H_    0.377385 0.799164 0.209887 0.147663
H9    H     H_    0.110883 0.250845 0.340740 0.139453
H10   H     H_    0.983560 0.083669 0.166146 0.123706
H11   H     H_    0.078464 0.343478 0.555461 0.210213
H12   H     H_    0.149250 0.782096 0.629481 0.121393
H13   H     H_    0.270546 0.970617 0.771788 0.134263
H14   H     H_    0.418731 0.016512 0.944739 0.148709
H15   H     H_    0.449372 0.871343 0.970370 0.182002
H16   H     H_    0.332278 0.679955 0.823699 0.124441
H17   H     H_    0.049281 0.986998 0.389672 0.158728
H18   H     H_    0.201649 0.321410 0.924980 0.116826
H19   H     H_    0.165159 0.038108 0.311742 0.115858
H20   H     H_    0.335058 0.031263 0.371389 0.128590
H21   H     H_    0.280379 0.937190 0.600197 0.155520
H22   H     H_    0.108171 0.938440 0.535645 0.146391
H23   H     H_    0.499871 0.093043 0.666922 0.144636
H24   H     H_    0.503163 0.811053 0.382860 0.157775
H25   H     H_    0.585435 0.088577 0.438884 0.152603
H26   H     H_    0.792730 0.061151 0.307892 0.150302
H27   H     H_    0.834607 0.952514 0.393900 0.162673
H28   H     H_    0.749104 0.907897 0.499537 0.134817
H29   H     H_    0.548805 0.363192 0.106051 0.224153
H30   H     H_    0.355717 0.325238 0.932428 0.176207
H31   H     H_    0.383863 0.348554 0.067043 0.210719
H32   H     H_    0.660079 0.562848 0.246735 0.238147
H33   H     H_    0.620659 0.610967 0.007745 0.128328
H34   H     H_    0.390859 0.470838 0.884315 0.226561
H35   H     H_    0.375820 0.669159 0.091143 0.151549
H36   H     H_    0.465152 0.608437 0.985578 0.183495
H37   H     H_    0.677093 0.662972 0.203268 0.205360
H38   H     H_    0.525384 0.657589 0.188413 0.137364
H39   H     H_    0.255395 0.169243 0.758576 0.173986
H40   H     H_    0.168909 0.051465 0.959296 0.130732
H41   H     H_    0.307067 0.145978 0.922414 0.153575
H42   H     H_    0.982621 0.826776 0.799330 0.131293
H43   H     H_    0.776102 0.981524 0.918661 0.128765
H44   H     H_    0.963338 0.325559 0.193738 0.136746
H45   H     H_    0.614403 0.740848 0.812061 0.159510
H46   H     H_    0.505445 0.729905 0.901925 0.148732
H47   H     H_    0.788130 0.894157 0.211603 0.157828
H48   H     H_    0.898224 0.908436 0.124256 0.146819
H49   H     H_    0.194202 0.782469 0.373907 0.132256
H50   H     H_    0.027799 0.182150 0.846747 0.131969
N1    N     N_R   0.947080 0.293830 0.002870 -0.044145
N2    N     N_R   0.054040 0.556820 0.847890 -0.059218
N3    N     N_R   0.848290 0.293830 0.791110 -0.043232
N4    N     N_R   0.995680 0.706170 0.053910 -0.036673
N5    N     N_R   0.052920 0.706170 0.997130 -0.046818
N6    N     N_R   0.791050 0.293830 0.847890 -0.038224
N7    N     N_R   0.846330 0.556820 0.053910 -0.077912
N8    N     N_R   0.997640 0.443180 0.791110 -0.069019
N9    N     N_R   0.208950 0.706170 0.152110 -0.043154
N10   N     N_R   0.153670 0.443180 0.946090 -0.049008
N11   N     N_R   0.002360 0.556820 0.208890 -0.043758
N12   N     N_R   0.210070 0.556820 0.002870 -0.043156
N13   N     N_R   0.945960 0.443180 0.152110 -0.039913
N14   N     N_R   0.151710 0.706170 0.208890 -0.048846
N15   N     N_R   0.004320 0.293830 0.946090 -0.047523
N16   N     N_R   0.789930 0.443180 0.997130 -0.071035
Ni1   Ni    Ni4+2 0.869690 0.369690 0.000000 0.265270
Ni2   Ni    Ni4+2 0.130310 0.630310 0.000000 0.228958
Ni3   Ni    Ni4+2 0.000970 0.369690 0.869780 0.254001
Ni4   Ni    Ni4+2 0.999030 0.630310 0.130220 0.270395
H51   H     H_    0.842200 0.160300 0.004696 0.128918
H52   H     H_    0.857727 0.723732 0.027467 0.158100
Br1   Br    Br    0.873452 0.728286 0.232109 -0.694384
Br2   Br    Br    0.915295 0.274429 0.580106 -0.613957
Br3   Br    Br    0.282021 0.704315 0.525978 -0.600476
Br4   Br    Br    0.639157 0.156106 0.295636 -0.557574
H53   H     H_    0.082323 0.665481 0.380019 0.126452
H54   H     H_    0.506182 0.320314 0.964078 0.214638
Br5   Br    Br    0.482716 0.541399 0.271575 -0.530896
Br6   Br    Br    0.539682 0.435532 0.840683 -0.576493
Br7   Br    Br    0.049163 0.118073 0.586492 -0.634102
H55   H     H_    0.923727 0.987101 0.658581 0.148231
Br8   Br    Br    0.558280 0.829276 0.134778 -0.750284
Br9   Br    Br    0.673725 0.280236 0.031340 -0.676174

loop_
_geom_bond_atom_site_label_1
_geom_bond_atom_site_label_2
_ccdc_geom_bond_type
C58   C62   S    
C39   H20   S    
C66   C68   A    
C63   C65   S    
C40   C41   A    
C61   H33   S    
C45   N12   A    
C41   C42   A    
N2    Ni2   S    
C3    C23   A    
C35   C36   A    
C58   H54   S    
C81   C82   A    
C11   Br1   S    
C20   C30   S    
C53   C54   A    
C84   H48   S    
C26   C27   A    
C29   C30   A    
C5    N16   A    
C66   Br7   S    
C83   C84   A    
C18   C24   A    
C36   H16   S    
C36   C37   A    
N11   N13   A    
C27   C37   S    
C18   C19   A    
C38   C39   A    
C11   C14   A    
N5    Ni2   S    
C31   H12   S    
C44   C50   A    
C14   C62   S    
C54   H27   S    
C1    C86   A    
C60   C62   S    
C61   Br6   S    
C10   N6    A    
C13   N8    A    
C49   C50   A    
N13   Ni1   S    
C33   C35   A    
C6    C15   A    
C46   C47   A    
C75   C85   S    
C66   C72   A    
N10   Ni3   S    
C7    H2    S    
C59   H30   S    
C28   Br3   S    
C5    Br9   S    
C60   H32   S    
C70   C71   A    
C51   C57   A    
N15   Ni3   S    
C13   Br2   S    
C4    C29   S    
C19   H7    S    
C44   H23   S    
C78   C86   A    
C82   Br8   S    
C2    C12   A    
C59   H31   S    
C80   H45   S    
N14   Ni4   S    
C21   C22   A    
C4    C56   A    
C67   N14   A    
C12   H8    S    
C61   C62   S    
N12   Ni2   S    
C25   C26   A    
C64   Br5   S    
C44   C46   A    
C78   N15   A    
N10   N12   A    
C77   C79   A    
C73   C74   A    
N4    N5    A    
C23   N10   A    
C4    C34   A    
C74   C75   A    
C51   C52   A    
C76   C77   A    
C34   H53   S    
C16   C46   S    
C39   C40   A    
C9    N5    A    
C68   C69   A    
C15   C26   S    
C21   H9    S    
C45   H35   S    
C58   C59   S    
C64   H38   S    
C3    C45   A    
C6    H1    S    
C31   C37   A    
C23   H18   S    
N7    N16   A    
C12   N9    A    
C6    N2    A    
C60   H37   S    
C67   H49   S    
C75   C76   A    
C80   C85   A    
C2    C49   S    
C47   C57   S    
C34   N11   A    
C47   C48   A    
N3    Ni3   S    
C76   H43   S    
C73   C79   A    
N1    Ni1   S    
C65   H36   S    
C84   C85   A    
N11   Ni4   S    
C5    C14   A    
N4    Ni4   S    
N9    Ni2   S    
C68   H55   S    
C53   H26   S    
C25   H11   S    
C48   C49   A    
C77   C86   S    
C2    C67   A    
C55   C57   A    
C8    H52   S    
C22   C24   A    
C69   C79   S    
C42   C43   A    
C9    H3    S    
C24   H5    S    
C1    N1    A    
C52   C53   A    
C9    C17   A    
C25   C30   A    
C54   C55   A    
C28   C29   A    
C51   H25   S    
C41   H21   S    
C17   C74   S    
C22   H10   S    
C31   C32   A    
C7    C16   A    
N9    N14   A    
C80   C81   A    
C35   H15   S    
C32   H13   S    
C55   H28   S    
C3    C63   S    
C73   H42   S    
C59   C63   S    
C8    C17   A    
C71   H41   S    
C81   H46   S    
C60   C64   S    
C72   H39   S    
C8    N4    A    
C33   H14   S    
C18   H6    S    
C32   C33   A    
C19   C20   A    
C13   C15   A    
C56   N13   A    
C38   C43   A    
C38   H19   S    
N2    N8    A    
C7    N3    A    
C70   H40   S    
N7    Ni4   S    
C58   H29   S    
C78   H50   S    
N8    Ni3   S    
C40   C50   S    
C1    H51   S    
N3    N6    A    
C65   H34   S    
N6    Ni1   S    
C69   C70   A    
C43   H17   S    
C83   H47   S    
C11   N7    A    
C63   C64   S    
C61   C65   S    
C71   C72   A    
C20   C21   A    
C10   H4    S    
C82   C83   A    
C27   C28   A    
N1    N15   A    
C10   C16   A    
N16   Ni1   S    
C48   H24   S    
C42   H22   S    
C56   H44   S    
C52   Br4   S    
