data_mof_unit_34539.cif
_audit_creation_date              2012-12-11T15:55:42-0500
_audit_creation_method            fapswitch 2.2
_symmetry_space_group_name_H-M    P1
_symmetry_Int_Tables_number       1
_space_group_crystal_system       triclinic
_cell_length_a                    6.935401
_cell_length_b                    14.556792
_cell_length_c                    16.087035
_cell_angle_alpha                 90.049076
_cell_angle_beta                  89.897404
_cell_angle_gamma                 90.060984
_cell_volume                      1624.09772888

loop_
_atom_site_label
_atom_site_type_symbol
_atom_type_description
_atom_site_fract_x
_atom_site_fract_y
_atom_site_fract_z
_atom_type_partial_charge
O1    O     O_R   0.505680 0.583900 0.413320 -0.540369
O2    O     O_R   0.176010 0.594950 0.586080 -0.543309
O3    O     O_R   0.005680 0.416100 0.586680 -0.535569
C1    C     C_R   0.344988 0.617105 0.615108 0.686324
O4    O     O_R   0.175960 0.594930 0.413930 -0.543236
O5    O     O_R   0.005640 0.416080 0.413300 -0.540650
C2    C     C_R   0.345155 0.617227 0.385041 0.686949
O6    O     O_R   0.505720 0.583920 0.586700 -0.541601
O7    O     O_3   0.339190 0.441320 0.500000 -0.368606
V1    V     V_3+5 0.064350 0.510890 0.500000 1.398587
O8    O     O_R   0.675920 0.405050 0.413920 -0.543454
C3    C     C_R   0.845025 0.382730 0.385038 0.686174
O9    O     O_R   0.675960 0.405070 0.586070 -0.544953
C4    C     C_R   0.844480 0.383507 0.614987 0.706616
V2    V     V_3+5 0.564340 0.489110 0.500000 1.394532
O10   O     O_3   0.839370 0.558680 0.500000 -0.370948
C5    C     C_R   0.011579 0.259559 0.695779 0.036154
C6    C     C_R   0.852753 0.316110 0.683406 -0.092595
C7    C     C_R   0.701333 0.306518 0.741926 -0.194568
H1    H     H_    0.576564 0.350807 0.738500 0.121029
C8    C     C_R   0.713947 0.242054 0.808019 -0.202358
H2    H     H_    0.598207 0.238801 0.853092 0.128850
C9    C     C_R   0.877839 0.184991 0.817470 -0.139294
C10   C     C_R   0.023382 0.197126 0.758655 0.098388
C11   C     C_3   0.223951 0.170168 0.736045 0.269971
C12   C     C_3   0.208368 0.240030 0.664040 -0.455736
H3    H     H_    0.326501 0.188398 0.786401 0.050320
H4    H     H_    0.205476 0.208489 0.601077 0.185225
H5    H     H_    0.304902 0.300284 0.670567 0.147798
C13   C     C_R   0.046883 0.224424 0.217679 -0.157270
H6    H     H_    0.187621 0.205853 0.193808 0.116284
C14   C     C_R   0.035798 0.287965 0.282925 -0.152333
H7    H     H_    0.168538 0.316542 0.307129 0.118745
C15   C     C_R   0.856226 0.314318 0.316262 -0.046394
C16   C     C_R   0.688062 0.275290 0.282515 -0.156889
H8    H     H_    0.547327 0.293849 0.306397 0.116641
C17   C     C_R   0.699149 0.211746 0.217270 -0.152133
H9    H     H_    0.566410 0.183156 0.193078 0.118503
C18   C     C_R   0.878712 0.185455 0.183881 -0.045464
C19   C     C_R   0.188044 0.725262 0.717190 -0.168144
H10   H     H_    0.047616 0.708186 0.692221 0.120438
C20   C     C_R   0.199050 0.788440 0.782727 -0.151415
H11   H     H_    0.066605 0.818442 0.805869 0.124660
C21   C     C_R   0.378371 0.813246 0.817166 -0.046745
C22   C     C_R   0.546112 0.772522 0.784670 -0.160267
H12   H     H_    0.686584 0.789832 0.809453 0.116858
C23   C     C_R   0.535131 0.709475 0.719055 -0.148558
H13   H     H_    0.667680 0.679880 0.695608 0.119026
C24   C     C_R   0.355980 0.685021 0.684306 -0.048077
C25   C     C_R   0.188254 0.724587 0.282629 -0.156102
H14   H     H_    0.047540 0.705998 0.306575 0.116829
C26   C     C_R   0.199266 0.788112 0.217422 -0.151672
H15   H     H_    0.066527 0.816637 0.193342 0.118722
C27   C     C_R   0.378750 0.814472 0.183927 -0.046344
C28   C     C_R   0.546922 0.775561 0.217610 -0.155775
H16   H     H_    0.687633 0.794163 0.193669 0.116853
C29   C     C_R   0.535910 0.712034 0.282821 -0.151880
H17   H     H_    0.668644 0.683518 0.306914 0.118748
C30   C     C_R   0.356413 0.685619 0.316267 -0.047190
O11   O     O_R   0.229200 0.915950 0.913350 -0.535493
O12   O     O_R   0.559090 0.905000 0.086080 -0.543401
O13   O     O_R   0.729280 0.083880 0.086680 -0.541288
C31   C     C_R   0.389938 0.882748 0.115052 0.684948
O14   O     O_R   0.558920 0.904980 0.913920 -0.546843
O15   O     O_R   0.729110 0.083860 0.913300 -0.544405
C32   C     C_R   0.389802 0.882290 0.885361 0.694313
O16   O     O_R   0.229360 0.915970 0.086730 -0.541301
O17   O     O_3   0.395680 0.058580 0.000030 -0.371870
V3    V     V_3+5 0.670570 0.989070 0.999990 1.393066
O18   O     O_R   0.058820 0.094950 0.913870 -0.538508
C33   C     C_R   0.890013 0.116798 0.885191 0.715664
O19   O     O_R   0.058990 0.094970 0.086020 -0.544929
C34   C     C_R   0.889900 0.117172 0.114995 0.682515
V4    V     V_3+5 0.170560 0.010930 0.999930 1.410917
O20   O     O_3   0.895590 0.941310 0.999960 -0.370639
O21   O     O_3   0.233970 0.078725 0.707184 -0.560746
C35   C     C_3   0.429878 0.054389 0.696772 0.091685
H18   H     H_    0.492356 0.036474 0.758345 0.124972
H19   H     H_    0.516533 0.111233 0.668692 0.128481
C36   C     C_3   0.443973 0.971482 0.638877 -0.302079
H20   H     H_    0.356804 0.914055 0.664255 0.217344
H21   H     H_    0.384595 0.989926 0.576975 0.194678
C37   C     C_3   0.652748 0.940237 0.628503 -0.815746
H22   H     H_    0.739924 0.995331 0.598895 0.237255
H23   H     H_    0.657715 0.878151 0.588407 0.229887
H24   H     H_    0.716664 0.923091 0.689803 0.232195

loop_
_geom_bond_atom_site_label_1
_geom_bond_atom_site_label_2
_ccdc_geom_bond_type
C28   H16   S    
C4    C6    S    
C21   C32   S    
C7    H1    S    
C1    O6    A    
C23   C24   A    
C35   H18   S    
C21   C22   A    
C5    C12   S    
C7    C8    A    
C6    C7    A    
O5    C3    A    
C13   H6    S    
C29   C30   A    
C27   C31   S    
O17   V4    S    
C19   C24   A    
C15   C16   A    
C22   C23   A    
O12   C31   A    
O8    V2    S    
C37   H22   S    
O17   V3    S    
O18   V4    S    
C25   C26   A    
C9    C10   A    
O13   C34   A    
O18   C33   A    
O1    V2    S    
O7    V1    S    
C19   C20   A    
O11   C32   A    
O9    C4    A    
C20   C21   A    
C36   C37   S    
C2    C30   S    
C26   C27   A    
C25   H14   S    
C35   H19   S    
C8    C9    A    
C31   O16   A    
C5    C10   A    
V4    O20   S    
C9    C33   S    
C10   C11   S    
O19   V4    S    
O4    C2    A    
C36   H20   S    
C11   C12   S    
C22   H12   S    
O13   V3    S    
C16   H8    S    
C14   C15   A    
O2    C1    A    
C17   H9    S    
C23   H13   S    
C5    C6    A    
O16   V4    S    
O14   V3    S    
O21   C35   S    
O3    C4    A    
C36   H21   S    
C19   H10   S    
C37   H23   S    
O6    V2    S    
C28   C29   A    
C20   H11   S    
C25   C30   A    
C3    C15   S    
O2    V1    S    
C26   H15   S    
C35   C36   S    
O12   V3    S    
C27   C28   A    
C16   C17   A    
O1    C2    A    
O19   C34   A    
O5    V1    S    
O8    C3    A    
C11   H3    S    
C12   H4    S    
C1    C24   S    
C11   O21   S    
C14   H7    S    
O9    V2    S    
O7    V2    S    
O4    V1    S    
C17   C18   A    
O3    V1    S    
O15   C33   A    
C13   C14   A    
C29   H17   S    
O15   V3    S    
O11   V4    S    
C13   C18   A    
V3    O20   S    
C18   C34   S    
C37   H24   S    
C12   H5    S    
V1    O10   S    
C8    H2    S    
V2    O10   S    
O14   C32   A    
