data_mof_unit_42290.cif
_audit_creation_date              2012-10-26T19:03:18-0400
_audit_creation_method            fapswitch 2.2
_symmetry_space_group_name_H-M    P1
_symmetry_Int_Tables_number       1
_space_group_crystal_system       triclinic
_cell_length_a                    10.973065
_cell_length_b                    13.059825
_cell_length_c                    11.818626
_cell_angle_alpha                 97.753651
_cell_angle_beta                  91.790031
_cell_angle_gamma                 92.606331
_cell_volume                      1675.26749517

loop_
_atom_site_label
_atom_site_type_symbol
_atom_type_description
_atom_site_fract_x
_atom_site_fract_y
_atom_site_fract_z
_atom_type_partial_charge
Br1   Br    Br    0.322256 0.045531 0.743743 -0.336325
Br2   Br    Br    0.279713 0.280759 0.957790 -0.344287
Br3   Br    Br    0.707298 0.720697 0.054493 -0.362372
Br4   Br    Br    0.163184 0.285012 0.626591 -0.427781
Br5   Br    Br    0.851332 0.381174 0.910861 -0.299433
Br6   Br    Br    0.852660 0.611911 0.300901 -0.405085
C1    C     C_R   0.503091 0.300532 0.479746 0.586943
C2    C     C_R   0.595837 0.139557 0.385963 -0.004762
C3    C     C_R   0.466254 0.134967 0.548847 -0.075704
C4    C     C_R   0.262909 0.502645 0.502047 0.627689
C5    C     C_R   0.478846 0.029069 0.546144 0.027174
C6    C     C_R   0.549919 0.976782 0.460742 0.034517
C7    C     C_R   0.545678 0.867675 0.445970 0.003158
C8    C     C_R   0.425641 0.866991 0.617557 0.002921
C9    C     C_R   0.419032 0.974697 0.625615 0.151319
C10   C     C_R   0.395356 0.389968 0.030131 0.119906
C11   C     C_R   0.400318 0.405295 0.150193 0.163129
C12   C     C_R   0.064079 0.465358 0.591265 -0.007508
C13   C     C_R   0.541854 0.548263 0.153832 0.106112
C14   C     C_R   0.536349 0.540230 0.032847 -0.004815
C15   C     C_R   0.467261 0.457160 0.969593 -0.020815
C16   C     C_R   0.498554 0.700050 0.519495 0.577067
C17   C     C_R   0.473771 0.443450 0.848282 0.106869
C18   C     C_R   0.591363 0.600096 0.852580 0.152258
C19   C     C_R   0.601421 0.610506 0.973454 0.137712
C20   C     C_R   0.737105 0.498369 0.498035 0.612911
C21   C     C_R   0.123911 0.424573 0.680146 0.077716
C22   C     C_R   0.065361 0.433755 0.784153 0.071381
C23   C     C_R   0.128735 0.507076 0.505305 0.033741
C24   C     C_R   0.938784 0.410727 0.779024 0.193749
C25   C     C_R   0.878477 0.403757 0.671224 0.046254
C26   C     C_R   0.935670 0.453726 0.584377 0.003843
C27   C     C_2   0.128230 0.612087 0.340243 0.352641
C28   C     C_2   0.655002 0.194631 0.297965 0.271998
C29   C     C_2   0.451735 0.339595 0.788678 0.330539
C30   C     C_2   0.664977 0.673429 0.795529 0.366554
C31   C     C_2   0.319201 0.339463 0.210359 0.368850
C32   C     C_2   0.135972 0.477197 0.889488 0.336876
C33   C     C_2   0.778339 0.324470 0.643573 0.316745
C34   C     C_R   0.063855 0.550822 0.419802 0.023321
C35   C     C_2   0.584525 0.810622 0.337384 0.309303
C36   C     C_2   0.354865 0.811629 0.697988 0.301972
C37   C     C_2   0.730750 0.994336 0.333100 0.313038
C38   C     C_R   0.935705 0.542818 0.413917 0.122122
C39   C     C_R   0.870746 0.493756 0.495298 0.059127
C40   C     C_R   0.490416 0.813150 0.528116 -0.019632
C41   C     C_R   0.520519 0.189650 0.469107 0.020291
C42   C     C_R   0.619727 0.035174 0.389511 0.009277
Cu1   Cu    Cu3+1 0.509250 0.507730 0.615930 1.015010
Cu2   Cu    Cu3+1 0.490750 0.492270 0.384070 1.087646
H1    H     H_    0.408944 0.175794 0.609841 0.198223
H2    H     H_    0.653919 0.754448 0.338351 0.168125
H3    H     H_    0.359831 0.839683 0.788776 0.147993
H4    H     H_    0.753577 0.011895 0.249009 0.138519
H5    H     H_    0.597934 0.608132 0.204479 0.190057
H6    H     H_    0.101163 0.602201 0.250187 0.194249
H7    H     H_    0.653597 0.157942 0.209891 0.111018
H8    H     H_    0.376374 0.323871 0.728820 0.166614
H9    H     H_    0.630167 0.748050 0.784564 0.105028
H10   H     H_    0.349879 0.266883 0.232965 0.119671
H11   H     H_    0.231806 0.499030 0.884181 0.090325
H12   H     H_    0.713334 0.308934 0.706775 0.180964
N1    N     N_R   0.523180 0.519350 0.790130 -0.304818
N2    N     N_R   0.476820 0.480650 0.209890 -0.284877
O1    O     O_R   0.506570 0.354460 0.582000 -0.541081
O2    O     O_2   0.709806 0.278377 0.323140 -0.399151
O3    O     O_2   0.516024 0.270026 0.809541 -0.460059
O4    O     O_2   0.768746 0.654269 0.768414 -0.447118
O5    O     O_2   0.213431 0.361394 0.225483 -0.434709
O6    O     O_2   0.088871 0.492421 0.982020 -0.393300
O7    O     O_2   0.772960 0.270810 0.550794 -0.456561
O8    O     O_2   0.537703 0.826228 0.246611 -0.460201
O9    O     O_2   0.286553 0.736919 0.662892 -0.447394
O10   O     O_2   0.800563 0.943767 0.382885 -0.429463
O11   O     O_R   0.490940 0.341410 0.386200 -0.517404
O12   O     O_R   0.327470 0.506530 0.597920 -0.496094
O13   O     O_R   0.311840 0.493480 0.402120 -0.468240
O14   O     O_R   0.509060 0.658590 0.613800 -0.519970
O15   O     O_R   0.493430 0.645540 0.418000 -0.501428
O16   O     O_R   0.688160 0.506520 0.597880 -0.502264
O17   O     O_R   0.672530 0.493470 0.402080 -0.441624
O18   O     O_2   0.209431 0.676600 0.375594 -0.438186

loop_
_geom_bond_atom_site_label_1
_geom_bond_atom_site_label_2
_ccdc_geom_bond_type
C32   O6    D    
C10   C15   A    
Cu1   N1    S    
C31   O5    D    
Cu2   N2    S    
C26   C39   A    
C13   C14   A    
C3    H1    S    
C6    C42   A    
C30   H9    S    
Cu2   O15   S    
C28   O2    D    
C7    C35   S    
C8    C40   A    
C18   C30   S    
Cu1   O1    S    
C29   H8    S    
C16   O15   A    
C36   H3    S    
C24   C25   A    
C14   C19   A    
Cu1   O14   S    
C20   C39   S    
C4    O12   A    
C10   C11   A    
C28   H7    S    
Br1   C9    S    
C22   C32   S    
Br2   C10   S    
C27   O18   D    
C35   H2    S    
C8    C36   S    
C32   H11   S    
C27   H6    S    
C17   N1    A    
Br6   C38   S    
C5    C9    A    
C4    O13   A    
C27   C34   S    
Br3   C19   S    
C18   C19   A    
C16   O14   A    
C1    O11   A    
C20   O16   A    
C1    C41   S    
C2    C42   A    
C1    O1    A    
C37   H4    S    
C25   C26   A    
C29   O3    D    
C13   N2    A    
Cu1   O12   S    
C12   C23   A    
C2    C28   S    
C6    C7    A    
C3    C5    A    
C35   O8    D    
C16   C40   S    
C3    C41   A    
C18   N1    A    
C17   C29   S    
C15   C17   A    
C12   C26   A    
C11   C31   S    
Cu2   O13   S    
Br4   C21   S    
C38   C39   A    
Br5   C24   S    
C37   C42   S    
C13   H5    S    
C33   H12   S    
C36   O9    D    
C12   C21   A    
C5    C6    A    
C30   O4    D    
C20   O17   A    
Cu1   O16   S    
C22   C24   A    
C2    C41   A    
C11   N2    A    
Cu2   O11   S    
C4    C23   S    
C7    C40   A    
C37   O10   D    
C23   C34   A    
C25   C33   S    
C31   H10   S    
C34   C38   A    
C14   C15   A    
Cu1   Cu2   S    
C21   C22   A    
C33   O7    D    
C8    C9    A    
Cu2   O17   S    
