data_mof_unit_44159.cif
_audit_creation_date              2012-12-10T17:09:53-0500
_audit_creation_method            fapswitch 2.2
_symmetry_space_group_name_H-M    P1
_symmetry_Int_Tables_number       1
_space_group_crystal_system       triclinic
_cell_length_a                    10.766357
_cell_length_b                    12.960918
_cell_length_c                    11.74461
_cell_angle_alpha                 99.457842
_cell_angle_beta                  92.903867
_cell_angle_gamma                 91.362262
_cell_volume                      1613.6543674

loop_
_atom_site_label
_atom_site_type_symbol
_atom_type_description
_atom_site_fract_x
_atom_site_fract_y
_atom_site_fract_z
_atom_type_partial_charge
C1    C     C_R   0.497933 0.299440 0.479044 0.945069
C2    C     C_R   0.067332 0.604294 0.542126 -0.012031
C3    C     C_R   0.129288 0.509621 0.506277 -0.150073
C4    C     C_R   0.062510 0.415773 0.467147 -0.286684
C5    C     C_R   0.933404 0.412647 0.462494 0.480369
C6    C     C_R   0.870800 0.505079 0.496053 -0.154227
C7    C     C_R   0.513520 0.812753 0.532037 -0.026432
C8    C     C_R   0.488741 0.186092 0.468545 -0.327074
C9    C     C_R   0.376777 0.022504 0.392248 0.377803
C10   C     C_R   0.399090 0.128994 0.389742 0.306539
C11   C     C_R   0.563551 0.136298 0.543444 0.362362
C12   C     C_R   0.262949 0.505108 0.501978 0.901515
C13   C     C_R   0.547520 0.027891 0.539626 0.000732
C14   C     C_R   0.453443 0.971198 0.463932 -0.084933
C15   C     C_R   0.438800 0.863370 0.459863 -0.163420
C16   C     C_R   0.603503 0.868596 0.608992 -0.254434
C17   C     C_R   0.623253 0.974803 0.610411 -0.139802
C18   C     C_R   0.357445 0.427959 0.030018 -0.300692
C19   C     C_R   0.375382 0.430539 0.149575 -0.042815
C20   C     C_R   0.562100 0.532075 0.154063 0.685935
C21   C     C_R   0.551212 0.525515 0.031369 -0.145721
C22   C     C_R   0.447444 0.473078 0.968334 -0.082154
C23   C     C_R   0.503710 0.700254 0.520919 0.831259
C24   C     C_R   0.437089 0.467356 0.845349 0.555724
C25   C     C_R   0.621795 0.574631 0.851659 0.622451
C26   C     C_R   0.640575 0.571710 0.971313 -0.421001
C27   C     C_R   0.737095 0.498968 0.498609 0.866710
C28   C     C_R   0.129889 0.701072 0.590319 0.479010
C29   C     C_R   0.063755 0.793909 0.606033 -0.221433
C30   C     C_R   0.935874 0.791621 0.584232 -0.252313
C31   C     C_R   0.871786 0.696513 0.549105 -0.107554
C32   C     C_R   0.935822 0.601980 0.529296 -0.011457
Cu1   Cu    Cu3+1 0.509250 0.507730 0.615930 1.031923
Cu2   Cu    Cu3+1 0.490750 0.492270 0.384070 0.984187
H1    H     H_    0.885860 0.863681 0.597463 0.156721
N1    N     N_R   0.523180 0.519350 0.790130 -0.270186
N2    N     N_R   0.476820 0.480650 0.209890 -0.218885
O1    O     O_R   0.506570 0.354460 0.582000 -0.576598
O2    O     O_R   0.490940 0.341410 0.386200 -0.570916
O3    O     O_R   0.327470 0.506530 0.597920 -0.509160
O4    O     O_R   0.311840 0.493480 0.402120 -0.606275
O5    O     O_R   0.509060 0.658590 0.613800 -0.547296
O6    O     O_R   0.493430 0.645540 0.418000 -0.596563
O7    O     O_R   0.688160 0.506520 0.597880 -0.530379
O8    O     O_R   0.672530 0.493470 0.402080 -0.554776
H2    H     H_    0.111214 0.343939 0.442119 0.168638
H3    H     H_    0.698032 0.014342 0.667134 0.161631
O9    O     O_3   0.323953 0.179697 0.318806 -0.566466
C33   C     C_3   0.365108 0.158126 0.205370 -0.250350
H4    H     H_    0.356226 0.073303 0.169159 0.184720
H5    H     H_    0.462865 0.186900 0.201864 0.153994
H6    H     H_    0.305641 0.199577 0.148880 0.155543
O10   O     O_3   0.662002 0.192000 0.608751 -0.536040
C34   C     C_3   0.636829 0.211492 0.727410 -0.284365
H7    H     H_    0.558643 0.162978 0.751708 0.114904
H8    H     H_    0.617468 0.295394 0.753683 0.197918
H9    H     H_    0.721489 0.195580 0.778718 0.163899
O11   O     O_3   0.334398 0.418009 0.781286 -0.549549
C35   C     C_3   0.334861 0.308223 0.777371 -0.320613
H10   H     H_    0.348110 0.269144 0.687849 0.188590
H11   H     H_    0.406188 0.280526 0.836441 0.116482
H12   H     H_    0.242196 0.281329 0.800272 0.168138
O12   O     O_3   0.705507 0.626130 0.791995 -0.533593
C36   C     C_3   0.756779 0.719692 0.858244 -0.372385
H13   H     H_    0.834810 0.702912 0.917247 0.169949
H14   H     H_    0.685151 0.766829 0.906398 0.145107
H15   H     H_    0.797354 0.767927 0.798997 0.189364
H16   H     H_    0.273022 0.390501 0.987206 0.178985
H17   H     H_    0.725283 0.604868 0.017308 0.195775
H18   H     H_    0.305936 0.394058 0.194623 0.168408
O13   O     O_3   0.658779 0.589922 0.218581 -0.576311
C37   C     C_3   0.634760 0.697995 0.229866 -0.290155
H19   H     H_    0.679614 0.738274 0.312985 0.187429
H20   H     H_    0.533822 0.715560 0.230540 0.159231
H21   H     H_    0.677070 0.732877 0.160326 0.139699
O14   O     O_3   0.254407 0.706080 0.625332 -0.607072
C38   C     C_3   0.264538 0.717371 0.747316 -0.256339
H22   H     H_    0.215223 0.651705 0.778525 0.174592
H23   H     H_    0.229481 0.793769 0.788647 0.133254
H24   H     H_    0.363962 0.715742 0.776184 0.196458
H25   H     H_    0.111993 0.868060 0.638044 0.142137
H26   H     H_    0.771934 0.697694 0.535256 0.125542
O15   O     O_3   0.867868 0.317971 0.433908 -0.561301
C39   C     C_3   0.865550 0.286452 0.313051 -0.310720
H27   H     H_    0.825159 0.347179 0.266499 0.171439
H28   H     H_    0.805298 0.214676 0.289743 0.184788
H29   H     H_    0.960037 0.266925 0.283630 0.161593
H30   H     H_    0.369652 0.818028 0.400621 0.182075
H31   H     H_    0.661814 0.829194 0.664697 0.149644
O16   O     O_3   0.282695 0.967889 0.320801 -0.580701
C40   C     C_3   0.171059 0.978130 0.378919 -0.283422
H32   H     H_    0.142441 0.060978 0.395029 0.192161
H33   H     H_    0.179123 0.946823 0.461648 0.149387
H34   H     H_    0.096243 0.931742 0.323406 0.184881

loop_
_geom_bond_atom_site_label_1
_geom_bond_atom_site_label_2
_ccdc_geom_bond_type
C6    C32   A    
C21   C26   A    
Cu2   N2    S    
C39   H29   S    
C4    H2    S    
O10   C34   S    
C24   N1    A    
C23   O5    A    
C30   H1    S    
Cu1   O5    S    
C28   C29   A    
C39   H28   S    
C30   C31   A    
C5    O15   S    
C18   H16   S    
C1    C8    S    
Cu1   N1    S    
C23   O6    A    
C2    C32   A    
C18   C19   A    
C25   O12   S    
C3    C12   S    
C19   N2    A    
C27   O7    A    
C31   C32   A    
C16   C17   A    
C33   H5    S    
C20   O13   S    
C9    C10   A    
C11   O10   S    
C6    C27   S    
C27   O8    A    
C7    C15   A    
C16   H31   S    
C21   C22   A    
Cu2   O4    S    
C37   H21   S    
C38   H23   S    
C34   H8    S    
C35   H11   S    
Cu1   O3    S    
Cu2   O2    S    
C36   H15   S    
C39   H27   S    
C37   H20   S    
C40   H32   S    
C4    C5    A    
C25   C26   A    
C38   H22   S    
C36   H14   S    
C12   O3    A    
C9    C14   A    
C29   H25   S    
C29   C30   A    
C40   H33   S    
O15   C39   S    
C33   H6    S    
Cu1   Cu2   S    
Cu2   O8    S    
O14   C38   S    
C31   H26   S    
C1    O1    A    
C24   O11   S    
O9    C33   S    
C10   O9    S    
C22   C24   A    
C3    C4    A    
C28   O14   S    
C12   O4    A    
C38   H24   S    
C34   H7    S    
C7    C16   A    
C35   H12   S    
C18   C22   A    
Cu1   O7    S    
Cu2   O6    S    
C17   H3    S    
C37   H19   S    
C9    O16   S    
Cu1   O1    S    
C13   C17   A    
C36   H13   S    
C2    C3    A    
O11   C35   S    
O13   C37   S    
C40   H34   S    
C20   N2    A    
C11   C13   A    
O16   C40   S    
C5    C6    A    
C8    C11   A    
C7    C23   S    
C1    O2    A    
C25   N1    A    
O12   C36   S    
C35   H10   S    
C20   C21   A    
C8    C10   A    
C33   H4    S    
C26   H17   S    
C14   C15   A    
C19   H18   S    
C2    C28   A    
C13   C14   A    
C15   H30   S    
C34   H9    S    
