data_mof_unit_57327.cif
_audit_creation_date              2012-12-11T21:05:54-0500
_audit_creation_method            fapswitch 2.2
_symmetry_space_group_name_H-M    P1
_symmetry_Int_Tables_number       1
_space_group_crystal_system       triclinic
_cell_length_a                    36.467668
_cell_length_b                    39.446487
_cell_length_c                    8.396671
_cell_angle_alpha                 90.0
_cell_angle_beta                  93.781693
_cell_angle_gamma                 89.999853
_cell_volume                      12052.4904089

loop_
_atom_site_label
_atom_site_type_symbol
_atom_type_description
_atom_site_fract_x
_atom_site_fract_y
_atom_site_fract_z
_atom_type_partial_charge
Ba1   Ba    Ba6+2 0.000060 0.523150 0.844950 1.671638
Ba2   Ba    Ba6+2 0.000060 0.476850 0.344950 1.671602
Ba3   Ba    Ba6+2 0.500060 0.023150 0.844950 1.671709
Ba4   Ba    Ba6+2 0.500060 0.976850 0.344950 1.671674
C1    C     C_3   0.987181 0.691243 0.644164 -0.314422
C2    C     C_2   0.908970 0.634849 0.293386 -0.082559
C3    C     C_R   0.631466 0.814064 0.695690 0.590775
C4    C     C_2   0.091453 0.634625 0.396103 -0.083028
C5    C     C_2   0.091449 0.365373 0.896098 -0.083192
C6    C     C_2   0.591458 0.134622 0.396114 -0.083033
C7    C     C_2   0.591450 0.865372 0.896087 -0.082969
C8    C     C_3   0.057995 0.612676 0.415919 -0.105924
C9    C     C_3   0.057986 0.387317 0.915897 -0.106556
C10   C     C_3   0.557998 0.112676 0.415924 -0.105966
C11   C     C_3   0.557995 0.887324 0.915911 -0.105745
C12   C     C_1   0.081135 0.575257 0.210656 0.037208
C13   C     C_2   0.408970 0.865152 0.793382 -0.082619
C14   C     C_1   0.081132 0.424743 0.710662 0.037092
C15   C     C_1   0.581134 0.075258 0.210650 0.037243
C16   C     C_1   0.581137 0.924744 0.710659 0.037246
C17   C     C_2   0.107059 0.597283 0.176509 -0.088164
C18   C     C_2   0.107061 0.402720 0.676534 -0.088343
C19   C     C_2   0.607055 0.097284 0.176491 -0.088118
C20   C     C_2   0.607064 0.902721 0.676529 -0.088144
C21   C     C_2   0.113517 0.628594 0.275622 0.227021
C22   C     C_2   0.113519 0.371408 0.775642 0.227049
C23   C     C_2   0.613517 0.128594 0.275616 0.227030
C24   C     C_2   0.408971 0.134849 0.293386 -0.082590
C25   C     C_2   0.613518 0.871406 0.775627 0.227058
C26   C     C_R   0.739734 0.283769 0.053312 0.020032
C27   C     C_R   0.739737 0.716227 0.553416 0.020032
C28   C     C_R   0.239739 0.783778 0.053495 0.020031
C29   C     C_R   0.239741 0.216230 0.553436 0.020034
C30   C     C_R   0.777379 0.274137 0.059191 0.049753
C31   C     C_R   0.777380 0.725863 0.559225 0.049744
C32   C     C_R   0.277380 0.774137 0.059215 0.049746
C33   C     C_R   0.277384 0.225866 0.559228 0.049743
C34   C     C_R   0.787970 0.240341 0.100205 0.020282
C35   C     C_3   0.942391 0.387171 0.773827 -0.104850
C36   C     C_R   0.787971 0.759663 0.600179 0.020286
C37   C     C_R   0.287968 0.740332 0.100075 0.020284
C38   C     C_R   0.287975 0.259668 0.600166 0.020284
C39   C     C_3   0.896041 0.522662 0.142837 0.295487
C40   C     C_3   0.896038 0.477340 0.642836 0.295460
C41   C     C_3   0.396038 0.022661 0.142832 0.295500
C42   C     C_3   0.396039 0.977339 0.642835 0.295502
C43   C     C_R   0.730827 0.317781 0.012222 -0.098957
C44   C     C_R   0.730835 0.682200 0.512591 -0.098956
C45   C     C_R   0.230840 0.817808 0.012724 -0.098956
C46   C     C_3   0.942395 0.612834 0.273821 -0.105650
C47   C     C_R   0.230839 0.182205 0.512572 -0.098957
C48   C     C_R   0.852182 0.256196 0.070149 -0.063285
C49   C     C_R   0.852176 0.743826 0.569802 -0.063291
C50   C     C_R   0.352172 0.756168 0.069669 -0.063298
C51   C     C_R   0.352181 0.243827 0.569842 -0.063294
C52   C     C_R   0.269525 0.681869 0.176086 -0.098950
C53   C     C_R   0.269534 0.318130 0.676213 -0.098944
C54   C     C_R   0.769522 0.181862 0.175945 -0.098952
C55   C     C_R   0.769534 0.818116 0.676388 -0.098949
C56   C     C_R   0.242656 0.658358 0.210375 -0.058834
C57   C     C_3   0.442397 0.887165 0.773823 -0.105851
C58   C     C_R   0.242665 0.341641 0.710500 -0.058829
C59   C     C_R   0.742653 0.158350 0.210201 -0.058828
C60   C     C_R   0.742665 0.841626 0.710680 -0.058831
C61   C     C_R   0.825864 0.232241 0.104886 -0.099915
C62   C     C_R   0.825859 0.767778 0.604593 -0.099918
C63   C     C_R   0.325854 0.732215 0.104442 -0.099924
C64   C     C_R   0.325864 0.267780 0.604621 -0.099918
C65   C     C_3   0.862482 0.545643 0.132410 -0.337016
C66   C     C_3   0.862477 0.454361 0.632409 -0.336971
C67   C     C_3   0.362479 0.045642 0.132386 -0.337025
C68   C     C_3   0.442395 0.112833 0.273820 -0.105752
C69   C     C_3   0.362480 0.954359 0.632402 -0.337020
C70   C     C_3   0.104067 0.477027 0.046991 0.295654
C71   C     C_3   0.104071 0.522971 0.546983 0.295675
C72   C     C_3   0.604070 0.977028 0.046989 0.295638
C73   C     C_3   0.604069 0.022972 0.546984 0.295670
C74   C     C_3   0.137496 0.453892 0.059626 -0.335266
C75   C     C_3   0.137499 0.546106 0.559651 -0.335276
C76   C     C_3   0.637499 0.953893 0.059642 -0.335263
C77   C     C_3   0.637498 0.046108 0.559649 -0.335284
C78   C     C_3   0.003594 0.658550 0.585089 0.324362
C79   C     C_1   0.919106 0.424506 0.978916 0.036105
C80   C     C_3   0.003738 0.341346 0.084928 0.323339
C81   C     C_3   0.503637 0.158579 0.585006 0.324155
C82   C     C_3   0.503541 0.841485 0.085150 0.324752
C83   C     C_R   0.822206 0.356008 0.947152 0.591987
C84   C     C_R   0.822210 0.643982 0.447327 0.591989
C85   C     C_R   0.322212 0.856021 0.947386 0.591998
C86   C     C_R   0.322213 0.143986 0.447319 0.591979
C87   C     C_1   0.919112 0.575496 0.478918 0.036039
C88   C     C_1   0.419114 0.924504 0.978918 0.036006
C89   C     C_3   0.987206 0.308729 0.144239 -0.314259
C90   C     C_1   0.419112 0.075496 0.478915 0.036055
C91   C     C_2   0.893224 0.402431 0.012944 -0.087982
C92   C     C_2   0.893234 0.597574 0.512966 -0.088058
C93   C     C_2   0.393237 0.902425 0.012975 -0.088080
C94   C     C_2   0.393236 0.097575 0.512972 -0.088027
C95   C     C_2   0.886851 0.371127 0.913728 0.226924
C96   C     C_2   0.886852 0.628873 0.413723 0.226959
C97   C     C_2   0.386853 0.871127 0.913726 0.226962
C98   C     C_2   0.386854 0.128874 0.413730 0.227015
C99   C     C_R   0.804775 0.298592 0.023629 -0.079630
C100  C     C_3   0.487181 0.191246 0.644174 -0.314235
C101  C     C_R   0.804776 0.701408 0.523652 -0.079639
C102  C     C_R   0.304775 0.798593 0.023645 -0.079636
C103  C     C_R   0.304780 0.201411 0.523656 -0.079637
C104  C     C_R   0.794825 0.332195 0.982888 -0.034325
C105  C     C_R   0.794829 0.667796 0.483077 -0.034331
C106  C     C_R   0.294832 0.832208 0.983138 -0.034335
C107  C     C_R   0.294833 0.167800 0.483068 -0.034328
C108  C     C_R   0.757695 0.341294 0.977984 -0.058820
C109  C     C_R   0.757704 0.658685 0.478380 -0.058815
C110  C     C_R   0.257708 0.841323 0.978504 -0.058821
C111  C     C_3   0.487173 0.808763 0.144138 -0.314489
C112  C     C_R   0.257707 0.158690 0.478350 -0.058818
C113  C     C_R   0.842158 0.289454 0.028950 -0.028994
C114  C     C_R   0.842155 0.710556 0.528791 -0.028956
C115  C     C_R   0.342153 0.789441 0.028725 -0.028949
C116  C     C_R   0.342160 0.210558 0.528810 -0.028959
C117  C     C_3   0.996831 0.658626 0.104355 0.324476
C118  C     C_3   0.997077 0.341545 0.603997 0.326107
C119  C     C_3   0.496775 0.158667 0.104481 0.324159
C120  C     C_3   0.496771 0.841331 0.604437 0.324088
C121  C     C_2   0.941760 0.420076 0.863696 -0.266901
C122  C     C_R   0.868903 0.313755 0.993283 0.590741
C123  C     C_2   0.941766 0.579927 0.363689 -0.266738
C124  C     C_2   0.441765 0.920074 0.863682 -0.266710
C125  C     C_2   0.441763 0.079925 0.363675 -0.266642
C126  C     C_2   0.058476 0.579786 0.325836 -0.267222
C127  C     C_2   0.058467 0.420208 0.825821 -0.267220
C128  C     C_2   0.558475 0.079787 0.325836 -0.267149
C129  C     C_2   0.558474 0.920213 0.825826 -0.267229
C130  C     C_R   0.212395 0.759337 0.088588 0.020286
C131  C     C_R   0.212398 0.240670 0.588548 0.020288
C132  C     C_R   0.712393 0.259336 0.088541 0.020288
C133  C     C_R   0.868900 0.686256 0.493111 0.590674
C134  C     C_R   0.712392 0.740670 0.588480 0.020286
C135  C     C_R   0.260624 0.715894 0.135224 0.020029
C136  C     C_R   0.260632 0.284107 0.635305 0.020031
C137  C     C_R   0.760624 0.215895 0.135219 0.020027
C138  C     C_R   0.760629 0.784100 0.635363 0.020030
C139  C     C_R   0.222984 0.725535 0.129498 0.049746
C140  C     C_R   0.222989 0.274469 0.629520 0.049741
C141  C     C_R   0.722982 0.225535 0.129472 0.049745
C142  C     C_R   0.722984 0.774466 0.629512 0.049747
C143  C     C_R   0.174506 0.767450 0.084122 -0.099914
C144  C     C_R   0.368898 0.813741 0.993057 0.590654
C145  C     C_R   0.174508 0.232558 0.584047 -0.099920
C146  C     C_R   0.674508 0.267458 0.084228 -0.099912
C147  C     C_R   0.674500 0.732566 0.583862 -0.099910
C148  C     C_R   0.148190 0.743501 0.118940 -0.063325
C149  C     C_R   0.148192 0.256507 0.618877 -0.063323
C150  C     C_R   0.648192 0.243510 0.119084 -0.063329
C151  C     C_R   0.648184 0.756517 0.618675 -0.063325
C152  C     C_R   0.158211 0.710236 0.160020 -0.028987
C153  C     C_R   0.158215 0.289771 0.660000 -0.028947
C154  C     C_R   0.658212 0.210240 0.160071 -0.028989
C155  C     C_R   0.368904 0.186258 0.493130 0.590669
C156  C     C_R   0.658209 0.789774 0.659893 -0.029001
C157  C     C_R   0.195589 0.701084 0.165126 -0.079636
C158  C     C_R   0.195594 0.298920 0.665151 -0.079646
C159  C     C_R   0.695588 0.201084 0.165104 -0.079638
C160  C     C_R   0.695590 0.798917 0.665138 -0.079634
C161  C     C_R   0.205533 0.667473 0.205732 -0.034337
C162  C     C_R   0.205540 0.332529 0.705807 -0.034353
C163  C     C_R   0.705531 0.167469 0.205644 -0.034331
C164  C     C_R   0.705538 0.832520 0.705885 -0.034334
C165  C     C_3   0.013240 0.691304 0.045057 -0.314001
C166  C     C_2   0.908976 0.365146 0.793420 -0.082364
C167  C     C_3   0.013260 0.308726 0.545110 -0.314354
C168  C     C_3   0.513243 0.191309 0.045100 -0.313873
C169  C     C_3   0.513230 0.808685 0.545049 -0.313872
C170  C     C_R   0.178153 0.643668 0.241604 0.591939
C171  C     C_R   0.178159 0.356334 0.741677 0.591969
C172  C     C_R   0.678151 0.143664 0.241519 0.591930
C173  C     C_R   0.678158 0.856325 0.741749 0.591933
C174  C     C_R   0.131468 0.685945 0.195815 0.590749
C175  C     C_R   0.131473 0.314061 0.695800 0.590710
C176  C     C_R   0.631470 0.185949 0.195873 0.590738
H1    H     H_    0.980722 0.641023 0.547782 0.016922
H2    H     H_    0.869964 0.428772 0.678402 0.079271
H3    H     H_    0.623664 0.907110 0.575801 0.101413
H4    H     H_    0.836469 0.207471 0.135250 0.068099
H5    H     H_    0.836461 0.792563 0.634703 0.068096
H6    H     H_    0.336455 0.707429 0.134516 0.068099
H7    H     H_    0.336467 0.292562 0.634779 0.068094
H8    H     H_    0.963894 0.437785 0.846307 0.073314
H9    H     H_    0.963901 0.562220 0.346309 0.073343
H10   H     H_    0.463898 0.937782 0.846291 0.073347
H11   H     H_    0.463894 0.062215 0.346274 0.073316
H12   H     H_    0.036252 0.562176 0.343184 0.073709
H13   H     H_    0.369965 0.071230 0.178397 0.079272
H14   H     H_    0.036242 0.437817 0.843158 0.073775
H15   H     H_    0.536249 0.062179 0.343173 0.073690
H16   H     H_    0.536249 0.937821 0.843166 0.073695
H17   H     H_    0.019704 0.641095 0.141671 0.017385
H18   H     H_    0.020056 0.359110 0.639536 0.018653
H19   H     H_    0.519618 0.141144 0.142238 0.017012
H20   H     H_    0.519619 0.858851 0.642165 0.017128
H21   H     H_    0.981265 0.665538 0.209054 -0.041693
H22   H     H_    0.981790 0.334841 0.709835 -0.043779
H23   H     H_    0.481140 0.165627 0.208890 -0.041331
H24   H     H_    0.369966 0.928771 0.678408 0.079285
H25   H     H_    0.481140 0.834374 0.708864 -0.041196
H26   H     H_    0.032889 0.685719 0.953228 0.165607
H27   H     H_    0.032843 0.314123 0.452774 0.164990
H28   H     H_    0.532918 0.185676 0.953430 0.165724
H29   H     H_    0.532892 0.814311 0.453321 0.165792
H30   H     H_    0.991140 0.708334 0.995112 0.096111
H31   H     H_    0.991032 0.291741 0.495927 0.096484
H32   H     H_    0.491176 0.208348 0.994913 0.096049
H33   H     H_    0.491158 0.791644 0.494943 0.095996
H34   H     H_    0.905848 0.519862 0.269423 0.005782
H35   H     H_    0.851614 0.548039 0.006192 0.133781
H36   H     H_    0.905844 0.480141 0.769425 0.005770
H37   H     H_    0.405842 0.019861 0.269423 0.005776
H38   H     H_    0.405845 0.980139 0.769423 0.005786
H39   H     H_    0.917714 0.534578 0.074760 0.077340
H40   H     H_    0.917711 0.465422 0.574761 0.077330
H41   H     H_    0.417714 0.034578 0.074768 0.077307
H42   H     H_    0.417713 0.965422 0.574763 0.077332
H43   H     H_    0.851607 0.451966 0.506188 0.133789
H44   H     H_    0.351616 0.048040 0.006163 0.133777
H45   H     H_    0.351614 0.951962 0.506182 0.133779
H46   H     H_    0.094788 0.479958 0.919901 0.005845
H47   H     H_    0.094801 0.520037 0.419883 0.005829
H48   H     H_    0.594796 0.979961 0.919894 0.005820
H49   H     H_    0.980921 0.358849 0.046626 0.016354
H50   H     H_    0.594798 0.020039 0.419885 0.005821
H51   H     H_    0.082024 0.465201 0.113215 0.076567
H52   H     H_    0.082023 0.534798 0.613175 0.076508
H53   H     H_    0.582024 0.965202 0.113198 0.076515
H54   H     H_    0.582022 0.034798 0.613185 0.076505
H55   H     H_    0.159586 0.464546 0.989633 0.136635
H56   H     H_    0.159596 0.535449 0.489703 0.136632
H57   H     H_    0.659592 0.964548 0.989669 0.136638
H58   H     H_    0.659595 0.035451 0.489694 0.136633
H59   H     H_    0.130080 0.428384 0.012470 0.078978
H60   H     H_    0.480786 0.141057 0.547372 0.016617
H61   H     H_    0.130087 0.571613 0.512462 0.078896
H62   H     H_    0.630085 0.928385 0.012473 0.078903
H63   H     H_    0.630084 0.071614 0.512462 0.078864
H64   H     H_    0.147813 0.451328 0.186501 0.134082
H65   H     H_    0.147806 0.548674 0.686540 0.134092
H66   H     H_    0.647811 0.951328 0.186523 0.134088
H67   H     H_    0.647806 0.048675 0.686539 0.134089
H68   H     H_    0.019183 0.665433 0.480440 -0.041428
H69   H     H_    0.019484 0.334348 0.980920 -0.040036
H70   H     H_    0.519276 0.165501 0.480554 -0.041209
H71   H     H_    0.480650 0.859017 0.048201 0.017149
H72   H     H_    0.519073 0.834645 0.980274 -0.041930
H73   H     H_    0.972273 0.704487 0.542834 0.121866
H74   H     H_    0.972301 0.295470 0.042947 0.121868
H75   H     H_    0.472291 0.204504 0.542838 0.121755
H76   H     H_    0.472263 0.795527 0.042790 0.121881
H77   H     H_    0.967522 0.685686 0.735981 0.165579
H78   H     H_    0.967527 0.314385 0.235846 0.166000
H79   H     H_    0.467499 0.185649 0.735859 0.165681
H80   H     H_    0.467523 0.814283 0.236043 0.165430
H81   H     H_    0.028157 0.704573 0.146285 0.121711
H82   H     H_    0.840787 0.534965 0.204547 0.136946
H83   H     H_    0.028210 0.295498 0.646373 0.121874
H84   H     H_    0.528143 0.204590 0.146341 0.121616
H85   H     H_    0.528142 0.795409 0.646271 0.121659
H86   H     H_    0.876590 0.406780 0.113595 0.101540
H87   H     H_    0.876610 0.593230 0.613656 0.101610
H88   H     H_    0.376616 0.906767 0.113677 0.101637
H89   H     H_    0.376612 0.093232 0.613664 0.101589
H90   H     H_    0.749106 0.366898 0.947210 0.123093
H91   H     H_    0.749118 0.633069 0.447801 0.123092
H92   H     H_    0.249125 0.866940 0.947970 0.123095
H93   H     H_    0.840783 0.465039 0.704557 0.136941
H94   H     H_    0.249121 0.133076 0.447744 0.123094
H95   H     H_    0.095260 0.657335 0.468361 0.090893
H96   H     H_    0.095258 0.342662 0.968351 0.090843
H97   H     H_    0.595269 0.157330 0.468389 0.090886
H98   H     H_    0.595253 0.842658 0.968324 0.090856
H99   H     H_    0.119641 0.751306 0.113588 0.116839
H100  H     H_    0.119643 0.248703 0.613497 0.116835
H101  H     H_    0.619647 0.251321 0.113844 0.116840
H102  H     H_    0.619633 0.748719 0.613206 0.116833
H103  H     H_    0.163902 0.792229 0.053918 0.068088
H104  H     H_    0.340782 0.034964 0.204505 0.136951
H105  H     H_    0.163903 0.207780 0.553816 0.068084
H106  H     H_    0.663908 0.292246 0.054191 0.068087
H107  H     H_    0.663894 0.707795 0.553528 0.068086
H108  H     H_    0.703171 0.327384 0.005092 0.068883
H109  H     H_    0.703185 0.672582 0.505737 0.068884
H110  H     H_    0.203191 0.827429 0.005904 0.068886
H111  H     H_    0.203188 0.172589 0.505673 0.068884
H112  H     H_    0.905240 0.342438 0.721094 0.090919
H113  H     H_    0.905223 0.657551 0.221021 0.090877
H114  H     H_    0.405220 0.842453 0.721005 0.090871
H115  H     H_    0.340784 0.965037 0.704533 0.136947
H116  H     H_    0.405223 0.157550 0.221017 0.090825
H117  H     H_    0.880735 0.248402 0.075682 0.116893
H118  H     H_    0.880725 0.751631 0.575133 0.116895
H119  H     H_    0.380719 0.748360 0.074962 0.116899
H120  H     H_    0.380731 0.251630 0.575203 0.116890
H121  H     H_    0.297174 0.672251 0.182965 0.068892
H122  H     H_    0.297185 0.327746 0.683123 0.068889
H123  H     H_    0.797169 0.172237 0.182676 0.068893
H124  H     H_    0.797187 0.827724 0.683414 0.068891
H125  H     H_    0.009276 0.708283 0.694045 0.096174
H126  H     H_    0.869968 0.571231 0.178408 0.079280
H127  H     H_    0.009235 0.291658 0.194451 0.095862
H128  H     H_    0.509253 0.208289 0.694269 0.096137
H129  H     H_    0.509294 0.791733 0.193890 0.096262
H130  H     H_    0.251241 0.632745 0.240991 0.123092
H131  H     H_    0.251251 0.367252 0.741155 0.123086
H132  H     H_    0.751236 0.132731 0.240720 0.123092
H133  H     H_    0.751254 0.867232 0.741425 0.123089
H134  H     H_    0.123652 0.592898 0.075756 0.101476
H135  H     H_    0.123658 0.407108 0.575796 0.101490
H136  H     H_    0.623643 0.092902 0.075720 0.101490
N1    N     N_R   0.858810 0.346597 0.951668 -0.424964
N2    N     N_R   0.858810 0.653403 0.451665 -0.424951
N3    N     N_R   0.358810 0.846597 0.951667 -0.424943
N4    N     N_R   0.358813 0.153405 0.451673 -0.424956
N5    N     N_R   0.141558 0.653097 0.237360 -0.424903
N6    N     N_R   0.141562 0.346906 0.737386 -0.424888
N7    N     N_R   0.641558 0.153097 0.237349 -0.424906
N8    N     N_R   0.641559 0.846904 0.737365 -0.424913
O1    O     O_2   0.072110 0.546320 0.923350 -0.455671
O2    O     O_3   0.973424 0.356159 0.483297 -0.561394
O3    O     O_3   0.473459 0.143838 0.983229 -0.561070
O4    O     O_3   0.473451 0.856162 0.483203 -0.561139
O5    O     O_3   0.958050 0.483830 0.034350 -0.497307
O6    O     O_3   0.958050 0.516170 0.534350 -0.497303
O7    O     O_3   0.458050 0.983830 0.034350 -0.497311
O8    O     O_3   0.458050 0.016170 0.534350 -0.497317
O9    O     O_2   0.813394 0.385005 0.910371 -0.595875
O10   O     O_2   0.813399 0.614976 0.410686 -0.595869
O11   O     O_2   0.313404 0.885030 0.910797 -0.595873
O12   O     O_2   0.072110 0.453680 0.423350 -0.455714
O13   O     O_2   0.313402 0.114981 0.410667 -0.595872
O14   O     O_2   0.099064 0.694004 0.188778 -0.623355
O15   O     O_2   0.099069 0.306003 0.688733 -0.623483
O16   O     O_2   0.599067 0.194012 0.188900 -0.623343
O17   O     O_2   0.599059 0.806013 0.688542 -0.623319
O18   O     O_2   0.901312 0.305710 0.000519 -0.623181
O19   O     O_2   0.901305 0.694311 0.500186 -0.623291
O20   O     O_2   0.401303 0.805683 0.000096 -0.623325
O21   O     O_2   0.401310 0.194312 0.500214 -0.623290
O22   O     O_2   0.186961 0.614664 0.278279 -0.595921
O23   O     O_2   0.572110 0.046320 0.923350 -0.455680
O24   O     O_2   0.186967 0.385336 0.778393 -0.595903
O25   O     O_2   0.686958 0.114657 0.278131 -0.595928
O26   O     O_2   0.686967 0.885323 0.778540 -0.595917
O27   O     O_3   0.042000 0.516250 0.155330 -0.496747
O28   O     O_3   0.042000 0.483750 0.655330 -0.496725
O29   O     O_3   0.542000 0.016250 0.155330 -0.496752
O30   O     O_3   0.542000 0.983750 0.655330 -0.496746
O31   O     O_3   0.012540 0.574900 0.645500 -0.465360
O32   O     O_3   0.012540 0.425100 0.145500 -0.465182
O33   O     O_3   0.512540 0.074900 0.645500 -0.465302
O34   O     O_2   0.572110 0.953680 0.423350 -0.455676
O35   O     O_3   0.512540 0.925100 0.145500 -0.465427
O36   O     O_2   0.079097 0.598057 0.741580 -0.481832
O37   O     O_2   0.079095 0.401941 0.241551 -0.481860
O38   O     O_2   0.579095 0.098060 0.741592 -0.481847
O39   O     O_2   0.579097 0.901940 0.241575 -0.481806
O40   O     O_3   0.113977 0.508663 0.111475 -0.627180
O41   O     O_3   0.113978 0.491336 0.611488 -0.627157
O42   O     O_3   0.613978 0.008664 0.111481 -0.627175
O43   O     O_3   0.613978 0.991336 0.611482 -0.627192
O44   O     O_3   0.026950 0.643775 0.706353 -0.560946
O45   O     O_3   0.886088 0.509066 0.579276 -0.626883
O46   O     O_3   0.026942 0.356226 0.206421 -0.560937
O47   O     O_3   0.526945 0.143774 0.706351 -0.560846
O48   O     O_3   0.526950 0.856224 0.206324 -0.560965
O49   O     O_2   0.928110 0.546600 0.766510 -0.455247
O50   O     O_2   0.928110 0.453400 0.266510 -0.455215
O51   O     O_2   0.428110 0.046600 0.766510 -0.455253
O52   O     O_2   0.428110 0.953400 0.266510 -0.455260
O53   O     O_3   0.987780 0.574950 0.044470 -0.465042
O54   O     O_3   0.987780 0.425050 0.544470 -0.465365
O55   O     O_3   0.487780 0.074950 0.044470 -0.464959
O56   O     O_3   0.886090 0.490936 0.079283 -0.626912
O57   O     O_3   0.487780 0.925050 0.544470 -0.464965
O58   O     O_2   0.921225 0.598172 0.948513 -0.481453
O59   O     O_2   0.921217 0.401835 0.448534 -0.481392
O60   O     O_2   0.421231 0.098179 0.948494 -0.481457
O61   O     O_2   0.421227 0.901826 0.448514 -0.481469
O62   O     O_3   0.386089 0.009065 0.579277 -0.626892
O63   O     O_3   0.386089 0.990935 0.079273 -0.626875
O64   O     O_3   0.973446 0.643838 0.983218 -0.561171
P1    P     P_3+3 0.075650 0.535480 0.098240 0.993854
P2    P     P_3+3 0.955011 0.393028 0.562272 0.969388
P3    P     P_3+3 0.455022 0.106983 0.062255 0.969581
P4    P     P_3+3 0.455020 0.893018 0.562254 0.969529
P5    P     P_3+3 0.045347 0.393115 0.127567 0.969006
P6    P     P_3+3 0.045353 0.606879 0.627570 0.969007
P7    P     P_3+3 0.545353 0.893122 0.127560 0.969000
P8    P     P_3+3 0.545352 0.106880 0.627571 0.969061
P9    P     P_3+3 0.075650 0.464520 0.598240 0.993809
P10   P     P_3+3 0.575650 0.035480 0.098240 0.993861
P11   P     P_3+3 0.575650 0.964520 0.598240 0.993857
P12   P     P_3+3 0.924520 0.535770 0.591580 0.993265
P13   P     P_3+3 0.924520 0.464230 0.091580 0.993290
P14   P     P_3+3 0.424520 0.035770 0.591580 0.993258
P15   P     P_3+3 0.424520 0.964230 0.091580 0.993246
P16   P     P_3+3 0.955018 0.606980 0.062255 0.969509

loop_
_geom_bond_atom_site_label_1
_geom_bond_atom_site_label_2
_ccdc_geom_bond_type
C35   C121  S    
O30   P11   S    
C72   H48   S    
C138  C142  A    
C5    H96   S    
C37   C63   A    
C10   C128  S    
C78   H1    S    
C85   O11   D    
C8    C126  S    
C121  H8    S    
C42   H38   S    
C67   H104  S    
C86   C107  A    
C10   P8    S    
C40   O45   S    
C150  C154  A    
C15   P10   S    
O3    P3    S    
C120  H25   S    
C91   C95   S    
O4    P4    S    
C117  O64   S    
C53   C136  A    
C77   H58   S    
C153  C175  A    
C33   C38   A    
C5    C9    S    
C44   H109  S    
C13   C57   S    
C87   C92   D    
C152  C174  A    
C148  C152  A    
C64   H7    S    
C42   O62   S    
C149  C153  A    
C40   C66   S    
C147  C151  A    
C113  C122  A    
C54   H123  S    
C137  C141  A    
Ba1   O5    S    
C89   H127  S    
C17   H134  S    
C66   H93   S    
C99   C113  A    
C126  H12   S    
C5    C22   D    
C32   C102  A    
C160  C164  A    
C72   O42   S    
O58   P16   D    
C89   H74   S    
C91   H86   S    
C122  O18   D    
O7    P15   S    
C115  C144  A    
C94   C98   S    
C38   C136  A    
C57   P4    S    
C100  H79   S    
C168  H84   S    
C169  H33   S    
C47   H111  S    
O61   P4    D    
C120  O4    S    
C52   H121  S    
C165  H81   S    
C66   H43   S    
C167  H83   S    
C87   C123  D    
C84   C105  A    
O57   P4    S    
Ba2   O27   S    
C26   C132  A    
C27   C44   A    
C101  C114  A    
C77   H67   S    
C53   H122  S    
C156  C160  A    
C103  C116  A    
C82   O48   S    
C82   H71   S    
Ba4   O7    S    
C80   H69   S    
C40   H36   S    
C47   C112  A    
C70   H51   S    
C175  N6    Am   
C147  H107  S    
C75   H56   S    
C41   O63   S    
C50   C63   A    
C119  H23   S    
C134  C147  A    
O56   P13   S    
C56   C161  A    
Ba2   O6    S    
C78   H68   S    
C71   H47   S    
C31   C36   A    
Ba2   O32   S    
C118  O2    S    
C56   H130  S    
C1    C78   S    
C54   C137  A    
Ba3   O33   S    
C176  N7    Am   
C129  H16   S    
C12   P1    S    
C85   C106  A    
O36   P6    D    
C124  H10   S    
C80   C89   S    
C75   H61   S    
C42   H42   S    
C71   O41   S    
C117  H21   S    
C175  O15   D    
C21   N5    S    
O52   P15   D    
C18   H135  S    
C46   C123  S    
Ba4   P15   S    
C71   C75   S    
C153  C158  A    
C139  C157  A    
C157  C161  A    
C48   C61   A    
C78   O44   S    
C6    C23   D    
C12   C17   D    
C41   C67   S    
C60   H133  S    
C40   H40   S    
C144  N3    Am   
Ba3   O8    S    
Ba3   P10   S    
C17   C21   S    
C149  H100  S    
C28   C32   A    
C119  H19   S    
C111  H129  S    
C43   H108  S    
C172  N7    Am   
O46   P5    S    
C1    H73   S    
C95   N1    S    
C145  C149  A    
C135  C139  A    
O31   P6    S    
C65   H126  S    
C171  O24   D    
C106  C110  A    
C7    H98   S    
C119  C168  S    
O23   P10   D    
C48   C113  A    
C59   C163  A    
C130  C139  A    
C39   C65   S    
C50   C115  A    
C84   N2    Am   
C45   H110  S    
C3    O17   D    
C7    C11   S    
C49   H118  S    
Ba1   O28   S    
O33   P8    S    
C88   C93   D    
C94   H89   S    
Ba2   O12   S    
C26   C30   A    
C70   O40   S    
O64   P16   S    
O44   P6    S    
C55   C138  A    
Ba3   P14   S    
C6    C10   S    
Ba2   P9    S    
C49   C114  A    
C141  C159  A    
C161  C170  A    
C142  C160  A    
C39   O56   S    
C2    C46   S    
C82   C111  S    
C2    C96   D    
C76   H57   S    
C31   C101  A    
C148  H99   S    
O35   P7    S    
C34   C61   A    
C4    C8    S    
Ba1   O31   S    
Ba4   P11   S    
C1    H77   S    
C118  H18   S    
C154  C159  A    
C58   C162  A    
C152  C157  A    
C18   C22   S    
C34   C137  A    
C76   H66   S    
O34   P11   D    
C24   H116  S    
C167  H27   S    
Ba3   Ba4   S    
Ba4   O35   S    
C15   C128  D    
C101  C105  A    
O1    P1    D    
C67   H44   S    
C14   C18   D    
C103  C107  A    
C169  H29   S    
C109  H91   S    
C110  H92   S    
C122  N1    Am   
C30   C99   A    
O45   P12   S    
C16   P11   S    
C81   H60   S    
C41   H41   S    
O40   P1    S    
C70   H46   S    
C88   P15   S    
C28   C130  A    
C134  C142  A    
C165  H30   S    
C92   C96   S    
C73   H54   S    
Ba3   O55   S    
C6    H97   S    
C71   H52   S    
O29   P10   S    
C118  C167  S    
C59   H132  S    
C146  H106  S    
C39   H34   S    
C42   C69   S    
C61   H4    S    
C9    P5    S    
C74   H59   S    
C170  O22   D    
C102  C115  A    
O62   P14   S    
C117  C165  S    
C169  H85   S    
C51   C64   A    
C14   C127  D    
C2    H113  S    
C68   C125  S    
C95   C166  D    
C133  O19   D    
C130  C143  A    
C162  C171  A    
C123  H9    S    
C100  H75   S    
C75   H65   S    
C33   C103  A    
C174  N5    Am   
C166  H112  S    
C67   H13   S    
C90   C94   D    
C164  C173  A    
O27   P1    S    
C87   P12   S    
C20   C25   S    
O54   P2    S    
C80   O46   S    
C158  C162  A    
C66   H2    S    
C111  H76   S    
C128  H15   S    
C107  C112  A    
C173  N8    Am   
C12   C126  D    
C45   C110  A    
O8    P14   S    
C36   C62   A    
C20   H3    S    
C4    C21   D    
Ba3   O30   S    
C32   C37   A    
C24   C68   S    
C79   C121  D    
C51   C116  A    
C82   H72   S    
Ba4   O8    S    
C72   C76   S    
O60   P3    D    
C108  H90   S    
C165  H26   S    
C52   C135  A    
Ba4   O52   S    
C3    C156  A    
C29   C33   A    
C104  C108  A    
O5    P13   S    
C155  O21   D    
C143  H103  S    
C171  N6    Am   
C73   C77   S    
C83   N1    Am   
C9    C127  S    
C27   C134  A    
C80   H49   S    
C81   C100  S    
Ba4   O57   S    
Ba1   O6    S    
C27   C31   A    
C172  O25   D    
C3    N8    Am   
C79   P13   S    
C39   H39   S    
C136  C140  A    
Ba4   O34   S    
C65   H82   S    
C29   C47   A    
Ba3   O7    S    
C120  H20   S    
C144  O20   D    
C154  C176  A    
C118  H22   S    
C85   N3    Am   
C60   C164  A    
C86   N4    Am   
C1    H125  S    
Ba1   P1    S    
C119  O3    S    
C76   H62   S    
C57   C124  S    
C11   P7    S    
O39   P7    D    
C74   H64   S    
C37   C135  A    
C4    H95   S    
O32   P5    S    
C8    P6    S    
O37   P5    D    
C89   H78   S    
C22   N6    S    
C52   C56   A    
C174  O14   D    
C70   C74   S    
C62   H5    S    
O55   P3    S    
O2    P2    S    
C150  H101  S    
C50   H119  S    
C96   N2    S    
C84   O10   D    
C44   C109  A    
C97   N3    S    
C98   N4    S    
C36   C138  A    
C25   N8    S    
C41   H37   S    
C15   C19   D    
C65   H35   S    
O59   P2    D    
C53   C58   A    
Ba1   O49   S    
O51   P14   D    
C55   C60   A    
C100  H128  S    
Ba2   O5    S    
Ba3   O51   S    
C35   C166  S    
C111  H80   S    
C43   C108  A    
C125  H11   S    
O42   P10   S    
Ba1   Ba2   S    
C46   P16   S    
C13   C97   D    
O28   P9    S    
C14   P9    S    
C83   C104  A    
C16   C20   D    
C74   H55   S    
C116  C155  A    
O63   P15   S    
C99   C104  A    
C19   C23   S    
C29   C131  A    
C114  C133  A    
C132  C141  A    
C63   H6    S    
O43   P11   S    
O48   P7    S    
C92   H87   S    
C81   H70   S    
Ba1   P12   S    
C38   C64   A    
C19   H136  S    
C88   C124  D    
C13   H114  S    
C28   C45   A    
C69   H24   S    
Ba1   O53   S    
C90   C125  D    
C23   N7    S    
C73   H50   S    
C26   C43   A    
C168  H28   S    
O49   P12   D    
C176  O16   D    
C83   O9    D    
C120  C169  S    
C58   H131  S    
C131  C145  A    
C35   P2    S    
C48   H117  S    
C90   P14   S    
C86   O13   D    
C159  C163  A    
C173  O26   D    
C167  H31   S    
C93   H88   S    
O38   P8    D    
C79   C91   D    
Ba2   O50   S    
O53   P16   S    
Ba2   P13   S    
C112  H94   S    
C49   C62   A    
C117  H17   S    
C72   H53   S    
C131  C140  A    
C16   C129  D    
C127  H14   S    
C133  N2    Am   
C170  N5    Am   
Ba3   O23   S    
C55   H124  S    
C102  C106  A    
C54   C59   A    
C73   O43   S    
O6    P12   S    
C140  C158  A    
C151  C156  A    
C30   C34   A    
C145  H105  S    
O50   P13   D    
C168  H32   S    
C132  C146  A    
C11   C129  S    
C105  C109  A    
C77   H63   S    
C69   H115  S    
C151  H102  S    
C143  C148  A    
Ba4   O29   S    
C69   H45   S    
Ba2   O54   S    
C93   C97   S    
C24   C98   D    
C51   H120  S    
C81   O47   S    
O47   P8    S    
C7    C25   D    
O12   P9    D    
C146  C150  A    
C68   P3    S    
O41   P9    S    
C155  N4    Am   
Ba1   O1    S    
C163  C172  A    
