data_mof_unit_18820.cif
_audit_creation_date              2012-12-11T19:42:21-0500
_audit_creation_method            fapswitch 2.2
_symmetry_space_group_name_H-M    P1
_symmetry_Int_Tables_number       1
_space_group_crystal_system       triclinic
_cell_length_a                    8.234588
_cell_length_b                    15.108937
_cell_length_c                    27.040734
_cell_angle_alpha                 98.885742
_cell_angle_beta                  92.980712
_cell_angle_gamma                 80.890617
_cell_volume                      3280.68913966

loop_
_atom_site_label
_atom_site_type_symbol
_atom_type_description
_atom_site_fract_x
_atom_site_fract_y
_atom_site_fract_z
_atom_type_partial_charge
Ba1   Ba    Ba6+2 0.860050 0.456430 0.522530 1.701658
Ba2   Ba    Ba6+2 0.329780 0.543490 0.477460 1.685250
C1    C     C_3   0.631186 0.143151 0.651779 -0.335812
C2    C     C_R   0.906692 0.590780 0.181126 0.573045
C3    C     C_2   0.752864 0.559105 0.273621 -0.104563
C4    C     C_3   0.160438 0.262389 0.655049 0.292082
C5    C     C_3   0.731046 0.587208 0.329098 -0.021001
C6    C     C_1   0.982656 0.482809 0.342461 0.019952
C7    C     C_2   0.024841 0.479611 0.294952 -0.106150
C8    C     C_2   0.902055 0.517096 0.256844 0.197989
C9    C     C_R   0.027872 0.509433 0.103250 -0.079526
C10   C     C_R   0.064603 0.431094 0.126553 -0.036957
C11   C     C_R   0.143189 0.351242 0.098740 -0.059219
C12   C     C_3   0.650758 0.229229 0.631699 0.328938
C13   C     C_R   0.948245 0.589569 0.130939 -0.024864
C14   C     C_2   0.840557 0.526628 0.360101 -0.276614
C15   C     C_2   0.343681 0.472553 0.642087 -0.389087
C16   C     C_3   0.122158 0.242771 0.706288 -0.310354
C17   C     C_R   0.184289 0.423599 0.972758 0.019522
C18   C     C_R   0.079972 0.587150 0.979311 0.020275
C19   C     C_R   0.151803 0.504550 0.950720 0.050573
C20   C     C_R   0.252993 0.343000 0.942167 -0.099060
C21   C     C_R   0.289879 0.342155 0.892323 -0.060519
C22   C     C_R   0.260253 0.421491 0.870331 -0.030159
C23   C     C_3   0.472949 0.696157 0.633237 0.691997
C24   C     C_R   0.191678 0.502976 0.899511 -0.078121
C25   C     C_R   0.164123 0.583060 0.877576 -0.040277
C26   C     C_R   0.203520 0.580522 0.826944 0.589248
C27   C     C_R   0.297128 0.420757 0.819627 0.580037
C28   C     C_3   0.217146 0.265241 0.412497 0.298059
C29   C     C_2   0.455245 0.472541 0.729301 -0.104478
C30   C     C_3   0.493540 0.479144 0.676000 0.035549
C31   C     C_1   0.202875 0.518295 0.658707 0.059303
C32   C     C_2   0.164498 0.524415 0.706881 0.336622
C33   C     C_2   0.298803 0.497273 0.745183 0.131510
C34   C     C_3   0.416074 0.742948 0.684758 -0.224500
C35   C     C_R   0.146786 0.425695 0.024179 0.019868
C36   C     C_R   0.070001 0.507714 0.052208 0.050104
C37   C     C_R   0.034410 0.588117 0.029759 0.020086
C38   C     C_R   0.183302 0.348433 0.048925 -0.098490
C39   C     C_R   0.910801 0.667579 0.107969 -0.059162
C40   C     C_3   0.238559 0.162829 0.397371 -0.358400
C41   C     C_R   0.057131 0.666484 0.956253 -0.098796
C42   C     C_R   0.098206 0.664304 0.906729 -0.057080
C43   C     C_R   0.952408 0.667016 0.058729 -0.101011
C44   C     C_R   0.838537 0.829655 0.461884 -0.006625
C45   C     C_3   0.039727 0.731424 0.343189 0.344015
C46   C     C_R   0.772790 0.923011 0.466060 -0.048710
C47   C     C_R   0.641940 0.111215 0.478326 -0.031660
C48   C     C_R   0.783214 0.076344 0.450109 -0.032225
C49   C     C_R   0.849102 0.984508 0.444954 -0.051230
C50   C     C_R   0.578192 0.205244 0.486620 0.042314
C51   C     C_R   0.435622 0.235248 0.514086 -0.296027
C52   C     C_3   0.991579 0.743897 0.593781 0.237761
C53   C     C_R   0.611825 0.802965 0.509046 0.001937
C54   C     C_R   0.546356 0.895634 0.514430 -0.051243
C55   C     C_R   0.625685 0.955877 0.492459 0.043028
C56   C     C_3   0.057348 0.752873 0.290770 -0.275622
C57   C     C_R   0.405316 0.929988 0.542223 0.013144
C58   C     C_R   0.339663 0.020663 0.547250 -0.078742
C59   C     C_R   0.415553 0.081862 0.526147 -0.058629
C60   C     C_R   0.561448 0.049807 0.499061 0.042423
C61   C     C_R   0.350263 0.174431 0.532025 -0.016784
C62   C     C_R   0.750900 0.770184 0.480489 0.112695
C63   C     C_3   0.031408 0.839203 0.612918 -0.292795
C64   C     C_3   0.695867 0.342054 0.372073 0.298018
C65   C     C_3   0.697666 0.319404 0.315286 -0.360009
C66   C     C_2   0.920077 0.911847 0.590472 0.808328
C67   C     C_3   0.499340 0.786388 0.369120 0.464853
C68   C     C_3   0.464481 0.877867 0.350124 0.217298
C69   C     C_R   0.021754 0.434037 0.177126 0.598101
H1    H     H_    0.748789 0.212793 0.603477 0.095496
H2    H     H_    0.599093 0.401301 0.382178 0.071877
H3    H     H_    0.751302 0.111963 0.666735 0.146188
H4    H     H_    0.798824 0.263095 0.303924 0.136759
H5    H     H_    0.716494 0.379385 0.298572 0.067746
H6    H     H_    0.578398 0.298884 0.300746 0.134626
H7    H     H_    0.532092 0.254584 0.613613 -0.059289
H8    H     H_    0.586084 0.094503 0.621251 0.130004
H9    H     H_    0.364157 0.670886 0.612918 -0.070189
H10   H     H_    0.320165 0.802205 0.681154 0.058157
H11   H     H_    0.363756 0.694971 0.704393 0.075939
H12   H     H_    0.326732 0.141755 0.366490 0.139616
H13   H     H_    0.521320 0.766708 0.707549 0.126830
H14   H     H_    0.540538 0.158688 0.682102 0.122235
H15   H     H_    0.129688 0.303524 0.734572 0.119885
H16   H     H_    0.124542 0.668052 0.347649 0.081107
H17   H     H_    0.910941 0.721349 0.347228 -0.039364
H18   H     H_    0.167120 0.786143 0.288827 0.185801
H19   H     H_    0.072923 0.689050 0.263962 0.098998
H20   H     H_    0.946664 0.798788 0.279893 0.120277
H21   H     H_    0.635368 0.767468 0.370911 -0.205888
H22   H     H_    0.451703 0.794122 0.407504 0.035441
H23   H     H_    0.286211 0.128048 0.429493 0.048237
H24   H     H_    0.544875 0.924684 0.370937 -0.038812
H25   H     H_    0.086857 0.328137 0.649458 0.089744
H26   H     H_    0.494505 0.868492 0.309903 0.094523
H27   H     H_    0.148956 0.450939 0.283643 0.130909
H28   H     H_    0.174339 0.289828 0.115481 0.123183
H29   H     H_    0.555231 0.455912 0.755699 0.114022
H30   H     H_    0.341781 0.278241 0.870851 0.121337
H31   H     H_    0.278491 0.278402 0.955320 0.069857
H32   H     H_    0.244752 0.284158 0.031041 0.069826
H33   H     H_    0.657384 0.584672 0.247989 0.118543
H34   H     H_    0.118263 0.141538 0.384685 0.131675
H35   H     H_    0.848180 0.730245 0.128117 0.123646
H36   H     H_    0.009466 0.732455 0.975585 0.069911
H37   H     H_    0.292922 0.267686 0.654390 -0.026174
H38   H     H_    0.077238 0.727260 0.891215 0.124423
H39   H     H_    0.915582 0.729947 0.044369 0.070346
H40   H     H_    0.811748 0.530704 0.399140 0.122669
H41   H     H_    0.347303 0.423508 0.608117 0.068565
H42   H     H_    0.846383 0.119198 0.431930 0.097796
H43   H     H_    0.959800 0.962430 0.423846 0.104790
H44   H     H_    0.230523 0.041893 0.568965 0.151594
H45   H     H_    0.858030 0.745869 0.585837 -0.012057
H46   H     H_    0.342570 0.887585 0.560491 0.100272
H47   H     H_    0.385325 0.306573 0.519159 0.067715
H48   H     H_    0.995672 0.225926 0.705989 0.149966
H49   H     H_    0.211178 0.184869 0.716690 0.118760
H50   H     H_    0.338276 0.285893 0.423152 0.002283
H51   H     H_    0.134327 0.283924 0.444775 0.066326
H52   H     H_    0.724635 0.897855 0.629094 0.284468
H53   H     H_    0.589039 0.576600 0.611047 0.290768
H54   H     H_    0.285529 0.941728 0.391557 0.304386
H55   H     H_    0.989638 0.542552 0.754282 0.309651
H56   H     H_    0.060378 0.716332 0.559161 0.038467
H57   H     H_    0.862259 0.661381 0.500969 0.290838
H58   H     H_    0.018845 0.854937 0.654227 0.095252
H59   H     H_    0.161472 0.841065 0.605293 0.065606
H60   H     H_    0.817323 0.358752 0.386089 0.007654
N1    N     N_R   0.944107 0.513620 0.204285 -0.421222
N2    N     N_R   0.264310 0.499363 0.797947 -0.430601
O1    O     O_2   0.906480 0.548660 0.619050 -0.378832
O2    O     O_2   0.178903 0.825094 0.471847 -0.483089
O3    O     O_3   0.080085 0.803489 0.378396 -0.577943
O4    O     O_3   0.138490 0.548590 0.558870 -0.514755
O5    O     O_3   0.572560 0.389960 0.472890 -0.491153
O6    O     O_2   0.345660 0.723580 0.528500 -0.486042
O7    O     O_3   0.534978 0.758753 0.608869 -0.657038
O8    O     O_2   0.402125 0.546555 0.323509 -0.511694
O9    O     O_3   0.423832 0.721029 0.336918 -0.603727
O10   O     O_2   0.051460 0.365213 0.196572 -0.594323
O11   O     O_2   0.358539 0.349957 0.794799 -0.606068
O12   O     O_3   0.663862 0.266429 0.391740 -0.638710
O13   O     O_2   0.837938 0.661448 0.204315 -0.622655
O14   O     O_2   0.184118 0.650736 0.808691 -0.572596
O15   O     O_3   0.686300 0.382310 0.585700 -0.497447
O16   O     O_2   0.836102 0.433389 0.671624 -0.442044
O17   O     O_3   0.036623 0.692700 0.632471 -0.602528
O18   O     O_3   0.694185 0.293136 0.671517 -0.604004
O19   O     O_2   0.844040 0.276390 0.471470 -0.471256
O20   O     O_3   0.101510 0.335500 0.560330 -0.504170
O21   O     O_2   0.011833 0.176204 0.526192 -0.459344
O22   O     O_2   0.974804 0.954144 0.561927 -0.580440
O23   O     O_3   0.119829 0.192139 0.618501 -0.599106
O24   O     O_R   0.755787 0.934963 0.603901 -0.762857
O25   O     O_3   0.598787 0.625025 0.639749 -0.711174
O26   O     O_3   0.298779 0.916067 0.355644 -0.696016
O27   O     O_3   0.004933 0.557892 0.720770 -0.653836
O28   O     O_3   0.801655 0.678566 0.470432 -0.713625
O29   O     O_2   0.283210 0.451310 0.380920 -0.466654
O30   O     O_3   0.051220 0.451340 0.441120 -0.492847
O31   O     O_3   0.503410 0.617620 0.414290 -0.440716
O32   O     O_3   0.151157 0.306060 0.371447 -0.624348
O33   O     O_3   0.617150 0.609960 0.527100 -0.452230
O34   O     O_3   0.088210 0.664420 0.439670 -0.451526
P1    P     P_3+3 0.071950 0.575820 0.612140 1.068837
P2    P     P_3+3 0.664370 0.290050 0.457240 0.973650
P3    P     P_3+3 0.146726 0.218973 0.559010 0.946303
P4    P     P_3+3 0.117760 0.424110 0.387850 0.993167
P5    P     P_3+3 0.046449 0.781473 0.438291 0.998242
P6    P     P_3+3 0.675993 0.398657 0.650992 0.995645
P7    P     P_3+3 0.531657 0.724215 0.543879 0.969032
P8    P     P_3+3 0.514118 0.613856 0.349842 0.967439

loop_
_geom_bond_atom_site_label_1
_geom_bond_atom_site_label_2
_ccdc_geom_bond_type
O32   P4    S    
C27   N2    Am   
C53   C54   A    
C7    H27   S    
O18   P6    S    
C45   O3    S    
C1    H14   S    
C23   H9    S    
C65   H6    S    
C19   C24   A    
C66   O22   D    
C1    H8    S    
C33   N2    S    
C63   H59   S    
C55   C60   A    
C52   O17   S    
C52   C63   S    
C24   C25   A    
C16   H15   S    
O31   P8    S    
Ba2   O6    S    
C17   C19   A    
C22   C24   A    
C68   O26   S    
C35   C38   A    
C67   H22   S    
C36   C37   A    
C32   C33   S    
C54   C55   A    
O21   P3    D    
Ba1   O19   S    
Ba1   Ba2   S    
O23   P3    S    
C59   C61   A    
C1    H3    S    
C22   C27   A    
C27   O11   D    
C64   O12   S    
C17   C35   A    
C69   N1    Am   
C9    C13   A    
C25   C42   A    
C46   C49   A    
O29   P4    D    
C28   H51   S    
C34   H11   S    
C6    C7    D    
C11   C38   A    
C52   H45   S    
O20   P3    S    
C21   C22   A    
C67   H21   S    
O30   P4    S    
C56   H20   S    
Ba2   O33   S    
O16   P6    D    
C6    P4    S    
Ba2   P4    S    
C37   C43   A    
C42   H38   S    
C47   C50   A    
C64   C65   S    
C3    H33   S    
C2    O13   D    
C57   C58   A    
C6    C14   D    
C40   H23   S    
O5    P2    S    
Ba2   O29   S    
C67   C68   S    
C15   C31   D    
C40   H34   S    
C31   C32   D    
C44   C46   A    
C58   H44   S    
C4    C16   S    
O12   P2    S    
O33   P7    S    
C49   H43   S    
C39   H35   S    
C26   N2    Am   
Ba2   O5    S    
O3    P5    S    
C46   C55   A    
C17   C20   A    
C13   C39   A    
C2    N1    Am   
Ba2   O31   S    
C3    C5    S    
C18   C37   A    
C43   H39   S    
C61   P3    S    
H52   O24   S    
Ba1   P1    S    
C67   O9    S    
C29   H29   S    
C64   H2    S    
H53   O25   S    
C58   C59   A    
C45   H16   S    
C11   H28   S    
C9    C36   A    
C41   C42   A    
C53   P7    S    
C35   C36   A    
C29   C30   S    
C28   H50   S    
C34   H10   S    
C63   C66   S    
O17   P1    S    
C53   C62   A    
C23   O7    S    
Ba2   O30   S    
H54   O26   S    
C48   C49   A    
C52   H56   S    
C41   H36   S    
O2    P5    D    
C18   C19   A    
Ba1   O20   S    
C56   H19   S    
O34   P5    S    
C1    C12   S    
O7    P7    S    
C5    C14   S    
C10   C69   A    
C4    H25   S    
C12   O18   S    
O1    P1    D    
C31   P1    S    
C65   H4    S    
Ba1   O1    S    
C15   H41   S    
C16   H49   S    
C25   C26   A    
C18   C41   A    
Ba1   O4    S    
C50   C51   A    
C69   O10   D    
C64   H60   S    
C7    C8    S    
C26   O14   D    
C4    H37   S    
C47   C60   A    
C51   H47   S    
Ba2   O4    S    
C12   H1    S    
C40   H12   S    
C28   O32   S    
C62   O28   S    
Ba1   O15   S    
C50   P2    S    
C63   H58   S    
C9    C10   A    
C68   H26   S    
O9    P8    S    
H55   O27   S    
C30   P6    S    
O15   P6    S    
C20   H31   S    
C54   C57   A    
C48   H42   S    
C45   H17   S    
C2    C13   A    
C68   H24   S    
C5    P8    S    
C3    C8    D    
C45   C56   S    
O19   P2    D    
C51   C61   A    
C21   H30   S    
Ba1   O33   S    
C34   H13   S    
C16   H48   S    
Ba1   P2    S    
H57   O28   S    
C44   P5    S    
C29   C33   D    
C12   H7    S    
C59   C60   A    
C56   H18   S    
C8    N1    S    
C23   C34   S    
C10   C11   A    
Ba1   O30   S    
C57   H46   S    
C47   C48   A    
C44   C62   A    
C23   O25   S    
O8    P8    D    
C15   C30   S    
C39   C43   A    
C20   C21   A    
C28   C40   S    
O6    P7    D    
C65   H5    S    
Ba2   O34   S    
O4    P1    S    
C4    O23   S    
Ba1   O5    S    
C66   O24   S    
C14   H40   S    
C38   H32   S    
C32   O27   S    
