data_mof_unit_34767.cif
_audit_creation_date              2013-03-05T15:45:14-0500
_audit_creation_method            fapswitch 2.2
_symmetry_space_group_name_H-M    P1
_symmetry_Int_Tables_number       1
_space_group_crystal_system       triclinic
_cell_length_a                    8.198458
_cell_length_b                    12.618758
_cell_length_c                    19.068265
_cell_angle_alpha                 94.388254
_cell_angle_beta                  94.373039
_cell_angle_gamma                 97.782191
_cell_volume                      1941.29261023

loop_
_atom_site_label
_atom_site_type_symbol
_atom_site_description
_atom_site_fract_x
_atom_site_fract_y
_atom_site_fract_z
_atom_type_partial_charge
P1    P     P_3+3 0.986780 0.745970 0.554690 0.475669
O1    O     O_2   0.160820 0.763040 0.533820 -0.371293
O2    O     O_3   0.890970 0.628600 0.535400 -0.401665
O3    O     O_3   0.385950 0.698560 0.408070 -0.389196
O4    O     O_2   0.300332 0.886308 0.450695 -0.400472
O5    O     O_3   0.017485 0.778502 0.645972 -0.572801
O6    O     O_3   0.378990 0.871283 0.320844 -0.526547
H1    H     H_    0.337353 0.713614 0.276582 0.150143
C1    C     C_3   0.391319 0.823007 0.198149 -0.964419
H2    H     H_    0.259633 0.832171 0.185997 0.292022
H3    H     H_    0.469459 0.900410 0.192571 0.252263
P2    P     P_3+3 0.341450 0.417130 0.341310 0.465390
P3    P     P_3+3 0.933251 0.641325 0.281247 0.450147
O7    O     O_2   0.172860 0.449730 0.330520 -0.367493
O8    O     O_3   0.962080 0.644700 0.373110 -0.384435
O9    O     O_2   0.059508 0.575373 0.249121 -0.391617
O10   O     O_3   0.308616 0.277662 0.322635 -0.560637
O11   O     O_3   0.987425 0.771319 0.256744 -0.516089
C2    C     C_3   0.929109 0.845374 0.304377 0.467348
H4    H     H_    0.029739 0.877294 0.345961 0.134319
H5    H     H_    0.819944 0.810769 0.330493 0.026723
C3    C     C_3   0.878714 0.937412 0.264598 -1.035692
H6    H     H_    0.845470 0.000947 0.302250 0.249457
H7    H     H_    0.981628 0.971948 0.234980 0.275503
C4    C     C_3   0.759794 0.318003 0.321767 0.443521
H8    H     H_    0.648513 0.344489 0.342471 0.096893
H9    H     H_    0.865222 0.383913 0.331489 0.127180
C5    C     C_3   0.726830 0.288927 0.242565 -0.996385
H10   H     H_    0.616551 0.226597 0.231381 0.271169
H11   H     H_    0.704397 0.360472 0.215168 0.226978
H12   H     H_    0.835393 0.257572 0.221601 0.267559
Ba1   Ba    Ba6+2 0.160910 0.552960 0.466220 1.548416
C6    C     C_3   0.037325 0.688048 0.681683 0.277836
H13   H     H_    0.142373 0.650624 0.663035 0.080517
H14   H     H_    0.923602 0.628999 0.673126 0.132384
C7    C     C_3   0.071562 0.725384 0.760320 -0.064413
H15   H     H_    0.203227 0.761398 0.771358 0.175003
H16   H     H_    0.994542 0.788690 0.774942 0.162414
C8    C     C_3   0.253273 0.228202 0.381252 0.373629
H17   H     H_    0.127690 0.246222 0.389260 0.089408
H18   H     H_    0.337353 0.254331 0.429751 0.133299
C9    C     C_3   0.247554 0.107820 0.366197 -0.897189
H19   H     H_    0.173878 0.080436 0.315426 0.261836
H20   H     H_    0.190441 0.064843 0.408607 0.213212
H21   H     H_    0.374651 0.088200 0.362541 0.277310
P4    P     P_3+3 0.823520 0.254020 0.445250 0.457687
O12   O     O_2   0.649470 0.236890 0.466160 -0.364469
O13   O     O_3   0.919320 0.371390 0.464540 -0.410630
O14   O     O_3   0.424350 0.301430 0.591880 -0.385076
O15   O     O_3   0.796093 0.226781 0.353391 -0.585824
P5    P     P_3+3 0.868877 0.355231 0.719422 0.485187
O16   O     O_3   0.382770 0.553920 0.582990 -0.391575
O17   O     O_3   0.848220 0.355290 0.626830 -0.327551
O18   O     O_2   0.751558 0.430512 0.748373 -0.390757
O19   O     O_3   0.781258 0.230148 0.743953 -0.537059
Ba2   Ba    Ba6+2 0.649260 0.447030 0.533730 1.576191
P6    P     P_3+3 0.426852 0.837748 0.406661 0.438508
C10   C     C_3   0.418523 0.790540 0.272821 0.490666
H22   H     H_    0.549748 0.778733 0.282505 0.011232
H23   H     H_    0.424506 0.760339 0.159899 0.219855
O20   O     O_3   0.427530 0.446070 0.416950 -0.405189
C11   C     C_3   0.550336 0.773055 0.630971 0.311385
H24   H     H_    0.674672 0.752914 0.621273 0.105195
H25   H     H_    0.463513 0.747972 0.583177 0.142444
C12   C     C_3   0.561011 0.893751 0.644703 -0.770030
H26   H     H_    0.650039 0.922972 0.691108 0.266614
H27   H     H_    0.602472 0.932770 0.597745 0.252042
H28   H     H_    0.437511 0.914909 0.655193 0.254638
P7    P     P_3+3 0.461711 0.585731 0.671080 0.433103
O21   O     O_2   0.637430 0.550200 0.669460 -0.366240
O22   O     O_3   0.494526 0.725028 0.690365 -0.577326
H29   H     H_    0.770407 0.907581 0.226352 0.262578
C13   C     C_3   0.903489 0.164770 0.759710 0.849619
H30   H     H_    0.025499 0.211118 0.778091 -0.034727
C14   C     C_3   0.851312 0.098739 0.820145 -1.027975
H31   H     H_    0.736382 0.042474 0.803361 0.249656
H32   H     H_    0.950256 0.051592 0.836911 0.247179
H33   H     H_    0.829396 0.152971 0.866100 0.235591
P8    P     P_3+3 0.384103 0.161820 0.591188 0.496286
C15   C     C_3   0.374427 0.198528 0.724903 0.477248
H34   H     H_    0.245036 0.209915 0.709205 -0.002887
O23   O     O_2   0.510379 0.113759 0.546772 -0.339155
O24   O     O_3   0.432071 0.126231 0.676249 -0.540268
H35   H     H_    0.454892 0.277501 0.729076 0.128745
C16   C     C_3   0.380666 0.153679 0.796772 -0.094450
H36   H     H_    0.509566 0.142296 0.813047 0.169274
H37   H     H_    0.300239 0.074647 0.793138 0.157785
C17   C     C_R   0.076827 0.183496 0.526502 -0.463000
C18   C     C_R   0.731870 0.816194 0.473973 -0.531568
C19   C     C_R   0.704613 0.996982 0.445660 -0.208220
C20   C     C_R   0.639084 0.888506 0.444123 0.222238
C21   C     C_R   0.887343 0.850146 0.509308 0.287480
C22   C     C_R   0.953363 0.961952 0.514361 -0.039224
C23   C     C_R   0.860259 0.036645 0.481903 -0.035932
C24   C     C_R   0.924030 0.148969 0.488987 0.325244
C25   C     C_R   0.172003 0.110847 0.554148 0.179063
C26   C     C_R   0.109343 0.001724 0.550367 -0.049904
H38   H     H_    0.630722 0.049334 0.419748 0.178925
H39   H     H_    0.184794 0.949619 0.575649 0.172832
H40   H     H_    0.126689 0.267859 0.530852 0.157620
H41   H     H_    0.679335 0.732502 0.472028 0.179459
C27   C     C_R   0.616316 0.544954 0.299156 -0.531367
C28   C     C_R   0.460329 0.489208 0.277170 0.334590
C29   C     C_R   0.402924 0.479632 0.205426 -0.255075
C30   C     C_R   0.503423 0.524031 0.155006 0.007221
C31   C     C_R   0.664408 0.575472 0.178115 -0.290432
C32   C     C_R   0.720689 0.584140 0.249808 0.259814
C33   C     C_R   0.488221 0.596103 0.035257 -0.175939
C34   C     C_R   0.435537 0.585096 0.963145 -0.156011
C35   C     C_R   0.336510 0.490868 0.932006 0.151671
C36   C     C_R   0.288554 0.409154 0.975620 -0.146574
C37   C     C_R   0.342183 0.419834 0.047619 -0.178714
C38   C     C_R   0.443493 0.513271 0.078453 0.180603
C39   C     C_R   0.127822 0.422667 0.828277 -0.119767
C40   C     C_R   0.080535 0.410885 0.755478 0.198650
C41   C     C_R   0.341757 0.511031 0.733525 0.296185
C42   C     C_R   0.391292 0.522065 0.805974 -0.222299
C43   C     C_R   0.285220 0.477406 0.854483 0.128791
C44   C     C_R   0.189794 0.452174 0.708590 -0.443765
H42   H     H_    0.511276 0.566538 0.824112 0.126568
H43   H     H_    0.471045 0.651304 0.932023 0.124754
H44   H     H_    0.562992 0.670198 0.057290 0.122276
H45   H     H_    0.280482 0.437214 0.189289 0.155387
H46   H     H_    0.212033 0.335608 0.954006 0.138213
H47   H     H_    0.306899 0.353570 0.078731 0.121081
H48   H     H_    0.039938 0.392480 0.864107 0.103009
H49   H     H_    0.747674 0.605943 0.140574 0.155028
H50   H     H_    0.151605 0.445306 0.652641 0.155931
H51   H     H_    0.660751 0.551518 0.354441 0.172958
O25   O     O_3   0.039820 0.639536 0.801848 -0.752442
H52   H     H_    0.918236 0.626042 0.803982 0.345877
N1    N     N_R   0.919905 0.092914 0.697757 0.201190
O26   O     O_R   0.831338 0.097802 0.638904 -0.381654
O27   O     O_R   0.019707 0.021318 0.701635 -0.478029
O28   O     O_3   0.326878 0.224930 0.846769 -0.778168
H53   H     H_    0.330854 0.190287 0.891754 0.330704

loop_
_geom_bond_atom_site_label_1
_geom_bond_atom_site_label_2
_geom_bond_distance
_ccdc_geom_bond_type
C17   C25   1.390002 A    
P7    C41   1.836512 S    
C22   C23   1.437398 A    
O3    Ba1   2.777554 S    
C13   C14   1.526726 S    
C13   H30   1.105538 S    
C2    H4    1.110404 S    
C27   H51   1.082016 S    
P3    C32   1.830564 S    
C35   C43   1.496088 S    
C39   C40   1.403598 A    
O28   H53   0.992445 S    
C8    H18   1.110716 S    
C29   H45   1.082149 S    
C16   H36   1.109788 S    
C33   C34   1.400205 A    
C4    C5    1.521379 S    
C15   C16   1.522104 S    
P3    O11   1.748713 S    
C30   C38   1.494274 S    
C5    H10   1.110801 S    
C2    H5    1.111342 S    
Ba1   O20   2.897882 S    
P1    O1    1.502388 D    
C39   H48   1.082400 S    
C31   C32   1.400355 A    
C6    C7    1.530044 S    
C41   C42   1.400897 A    
O1    Ba1   2.857771 S    
C1    C10   1.520039 S    
O10   C8    1.397183 S    
P7    O22   1.747927 S    
C35   C36   1.407393 A    
Ba1   O16   2.763803 S    
C11   H25   1.110546 S    
O16   P7    1.749893 S    
H1    C10   1.110523 S    
C4    O15   1.396012 S    
C23   C24   1.435206 A    
P4    C24   1.868698 S    
C36   C37   1.399961 A    
N1    O26   1.299576 A    
C12   H27   1.108286 S    
P2    O10   1.748639 S    
C18   C20   1.391658 A    
C1    H2    1.110138 S    
O6    C10   1.404848 S    
C15   H35   1.111957 S    
C44   H50   1.082268 S    
C17   C24   1.392355 A    
P2    Ba1   3.376635 S    
Ba1   Ba2   4.516675 S    
Ba1   O13   2.814910 S    
P7    O21   1.567466 D    
C9    H20   1.106079 S    
C15   O24   1.403713 S    
C3    H29   1.109375 S    
C29   C30   1.412551 A    
C26   H39   1.077284 S    
C19   C23   1.412819 A    
C8    C9    1.517928 S    
C16   H37   1.112895 S    
P4    O13   1.582171 S    
C27   C28   1.391236 A    
O8    Ba1   2.744776 S    
C2    C3    1.520489 S    
P2    C28   1.839822 S    
C42   H42   1.082176 S    
C33   H44   1.082534 S    
C8    H17   1.103239 S    
O11   C2    1.408593 S    
C4    H8    1.103286 S    
C31   H49   1.082512 S    
P1    Ba1   3.390564 S    
P5    C40   1.841520 S    
P1    O5    1.748545 S    
P1    O2    1.582201 S    
C9    H21   1.109149 S    
C33   C38   1.406925 A    
O3    P6    1.745599 S    
C14   H31   1.110149 S    
C11   H24   1.108879 S    
C7    O25   1.398099 S    
C1    H3    1.110213 S    
O2    Ba2   2.815513 S    
C12   H28   1.110128 S    
C25   C26   1.397427 A    
C6    H13   1.105590 S    
C27   C32   1.393411 A    
C39   C43   1.414028 A    
C18   C21   1.392546 A    
C14   H32   1.111061 S    
C37   H47   1.082299 S    
C17   H40   1.082012 S    
C16   O28   1.397158 S    
P2    O7    1.498513 D    
P1    C21   1.870365 S    
Ba2   O21   2.821273 S    
P3    O8    1.746060 S    
C3    H7    1.109747 S    
C9    H19   1.106609 S    
C22   C26   1.413559 A    
O17   Ba2   2.745295 S    
O13   Ba2   2.894630 S    
P4    O12   1.502759 D    
C7    H15   1.110808 S    
P6    C20   1.840287 S    
C11   C12   1.515004 S    
C18   H41   1.081938 S    
C36   H46   1.081246 S    
C3    H6    1.110620 S    
C5    H12   1.110841 S    
O7    Ba1   2.821232 S    
C15   H34   1.111307 S    
P8    O23   1.543381 D    
C41   C44   1.390992 A    
C37   C38   1.407114 A    
C4    H9    1.109273 S    
O14   Ba2   2.776910 S    
C30   C31   1.411742 A    
P4    O15   1.750329 S    
C40   C44   1.392916 A    
O5    C6    1.394735 S    
O4    P6    1.543585 D    
C1    H23   1.109792 S    
P5    O18   1.542881 D    
C7    H16   1.115336 S    
O25   H52   0.992740 S    
C10   H22   1.109533 S    
P8    C25   1.837559 S    
C42   C43   1.413911 A    
P8    O24   1.746183 S    
P2    O20   1.551154 S    
C34   H43   1.082254 S    
C19   C20   1.398387 A    
C5    H11   1.106483 S    
C21   C22   1.434294 A    
C6    H14   1.105073 S    
O6    P6    1.750388 S    
C11   O22   1.402961 S    
P5    O19   1.755932 S    
O2    Ba1   2.893706 S    
C14   H33   1.110856 S    
C13   N1    1.459175 S    
O19   C13   1.411026 S    
O14   P8    1.746710 S    
N1    O27   1.300919 A    
C12   H26   1.109218 S    
P3    O9    1.546385 D    
P4    Ba2   3.391247 S    
C28   C29   1.403112 A    
Ba2   O20   2.763315 S    
P5    O17   1.760831 S    
C34   C35   1.408018 A    
C19   H38   1.077133 S    
O16   Ba2   2.896917 S    
O12   Ba2   2.858387 S    
