data_mof_unit_18376.cif
_audit_creation_date              2013-03-05T15:53:05-0500
_audit_creation_method            fapswitch 2.2
_symmetry_space_group_name_H-M    P1
_symmetry_Int_Tables_number       1
_space_group_crystal_system       triclinic
_cell_length_a                    6.952832
_cell_length_b                    20.461309
_cell_length_c                    24.417872
_cell_angle_alpha                 89.654787
_cell_angle_beta                  90.488037
_cell_angle_gamma                 89.437823
_cell_volume                      3473.42717249

loop_
_atom_site_label
_atom_site_type_symbol
_atom_site_description
_atom_site_fract_x
_atom_site_fract_y
_atom_site_fract_z
_atom_type_partial_charge
O1    O     O_R   0.507320 0.423560 0.460500 -0.585036
O2    O     O_R   0.170760 0.556250 0.437010 -0.588824
O3    O     O_R   0.004030 0.576440 0.539500 -0.588742
C1    C     C_R   0.338732 0.576377 0.421068 0.975302
O4    O     O_R   0.177370 0.422820 0.454110 -0.591875
O5    O     O_R   0.010680 0.442050 0.556720 -0.589421
C2    C     C_R   0.346316 0.398900 0.443459 0.934696
O6    O     O_R   0.500680 0.557950 0.443280 -0.590882
O7    O     O_3   0.340380 0.506470 0.533650 -0.271982
V1    V     V_3+5 0.064130 0.498800 0.493760 1.175122
O8    O     O_R   0.681160 0.443750 0.562990 -0.584808
C3    C     C_R   0.850915 0.423700 0.578808 0.978487
O9    O     O_R   0.674560 0.577180 0.545890 -0.592327
C4    C     C_R   0.842700 0.601095 0.556557 0.924181
V2    V     V_3+5 0.564560 0.501200 0.506240 1.178630
O10   O     O_3   0.838180 0.493530 0.466350 -0.273350
C5    C     C_R   0.976100 0.838240 0.911148 -0.106470
C6    C     C_R   0.847846 0.661787 0.588756 -0.102959
C7    C     C_R   0.035568 0.721880 0.906244 -0.177494
C8    C     C_R   0.027908 0.779269 0.936445 -0.161052
C9    C     C_R   0.932558 0.839587 0.854771 -0.232222
C10   C     C_R   0.942435 0.781685 0.822613 0.110987
C11   C     C_R   0.994613 0.722553 0.849850 0.187371
C12   C     C_R   0.904796 0.780315 0.764621 0.043228
C13   C     C_R   0.919844 0.719816 0.735221 0.066268
C14   C     C_R   0.971597 0.662763 0.764810 -0.194636
C15   C     C_R   0.007746 0.664300 0.820767 -0.239381
C16   C     C_R   0.853222 0.837380 0.735019 -0.169013
C17   C     C_R   0.816973 0.835827 0.679062 -0.193582
C18   C     C_R   0.829827 0.777546 0.649997 0.151826
C19   C     C_R   0.882022 0.718423 0.677241 0.112924
C20   C     C_R   0.788589 0.778173 0.593617 -0.148503
C21   C     C_R   0.795985 0.720749 0.563445 -0.151853
C22   C     C_R   0.891677 0.660493 0.645111 -0.242171
H1    H     H_    0.047576 0.619115 0.841550 0.130440
H2    H     H_    0.928454 0.613468 0.662502 0.098844
H3    H     H_    0.760118 0.722223 0.520178 0.121605
H4    H     H_    0.777242 0.881016 0.658269 0.164541
H5    H     H_    0.076111 0.676769 0.926995 0.117592
H6    H     H_    0.063598 0.777766 0.979723 0.118373
H7    H     H_    0.895811 0.886620 0.837387 0.116991
H8    H     H_    0.986127 0.615617 0.745910 0.128873
H9    H     H_    0.838932 0.884543 0.753910 0.157222
H10   H     H_    0.748034 0.823276 0.572855 0.135091
C23   C     C_3   0.862512 0.308112 0.768957 -0.161897
C24   C     C_3   0.048921 0.269025 0.784231 -0.171461
H11   H     H_    0.162140 0.285641 0.813145 0.132746
H12   H     H_    0.823172 0.356974 0.785162 0.131647
H13   H     H_    0.219474 0.255833 0.700665 0.202762
C25   C     C_1   0.960585 0.121382 0.875271 -0.276136
C26   C     C_1   0.863507 0.378095 0.624379 -0.275294
C27   C     C_3   0.741853 0.244778 0.776015 -0.299393
C28   C     C_3   0.928461 0.206225 0.790734 0.048075
C29   C     C_3   0.776234 0.229280 0.715101 0.275706
C30   C     C_3   0.893891 0.291677 0.707839 0.032651
C31   C     C_3   0.958909 0.191047 0.730004 0.301640
C32   C     C_3   0.080471 0.253108 0.722547 -0.255393
C33   C     C_1   0.947168 0.159517 0.837117 0.109362
C34   C     C_1   0.876347 0.339380 0.662136 0.115049
H14   H     H_    0.601717 0.241266 0.797257 0.157057
C35   C     C_3   0.539376 0.725074 0.213772 -0.163964
C36   C     C_3   0.344914 0.692999 0.229697 -0.351606
H15   H     H_    0.286685 0.646919 0.212821 0.153297
H16   H     H_    0.643819 0.704834 0.184060 0.144010
C37   C     C_1   0.348504 0.621849 0.375078 -0.302446
C38   C     C_1   0.475861 0.878184 0.124941 -0.290886
C39   C     C_3   0.582990 0.738462 0.275390 -0.155985
C40   C     C_3   0.388763 0.707059 0.290848 0.090166
C41   C     C_3   0.482114 0.806683 0.270191 -0.313770
C42   C     C_3   0.438084 0.792648 0.209044 0.091857
C43   C     C_3   0.290323 0.774148 0.285332 0.447487
C44   C     C_3   0.247588 0.760908 0.225027 0.445728
C45   C     C_1   0.363917 0.660152 0.337016 0.075322
C46   C     C_1   0.461164 0.839784 0.162959 0.093040
H17   H     H_    0.536868 0.853193 0.287189 0.161784
H18   H     H_    0.722900 0.728733 0.296278 0.157521
C47   C     C_R   0.471804 0.161790 0.088833 -0.095507
C48   C     C_R   0.352860 0.338211 0.411258 -0.115738
C49   C     C_R   0.527895 0.277968 0.093912 -0.178612
C50   C     C_R   0.520790 0.220631 0.063661 -0.166167
C51   C     C_R   0.430552 0.160534 0.145141 -0.244562
C52   C     C_R   0.440082 0.218369 0.177362 0.109648
C53   C     C_R   0.489354 0.277364 0.150248 0.186647
C54   C     C_R   0.405041 0.219786 0.235314 0.059774
C55   C     C_R   0.419780 0.280184 0.264800 0.063996
C56   C     C_R   0.468548 0.337105 0.235328 -0.197511
C57   C     C_R   0.502132 0.335532 0.179406 -0.240328
C58   C     C_R   0.356417 0.162856 0.264796 -0.195601
C59   C     C_R   0.322960 0.164425 0.320727 -0.221309
C60   C     C_R   0.335649 0.222602 0.349880 0.164387
C61   C     C_R   0.384704 0.281606 0.322748 0.113220
C62   C     C_R   0.297261 0.222000 0.406228 -0.151619
C63   C     C_R   0.304236 0.279354 0.436465 -0.129893
C64   C     C_R   0.393997 0.339462 0.354946 -0.244955
H19   H     H_    0.539766 0.380611 0.158716 0.131902
H20   H     H_    0.428191 0.386419 0.337623 0.101016
H21   H     H_    0.270405 0.277921 0.479692 0.139437
H22   H     H_    0.285492 0.119337 0.341430 0.141440
H23   H     H_    0.566251 0.322971 0.073255 0.115543
H24   H     H_    0.554775 0.222064 0.020445 0.108329
H25   H     H_    0.396044 0.113593 0.162443 0.102837
H26   H     H_    0.482715 0.384165 0.254302 0.130680
H27   H     H_    0.342382 0.115789 0.245826 0.133201
H28   H     H_    0.259133 0.176987 0.426905 0.140587
O11   O     O_R   0.323550 0.942140 0.056770 -0.585952
O12   O     O_R   0.647080 0.077200 0.045890 -0.593052
O13   O     O_R   0.813610 0.057920 0.943260 -0.590037
C65   C     C_R   0.478179 0.101123 0.056598 0.920623
O14   O     O_R   0.653470 0.943760 0.063000 -0.586466
O15   O     O_R   0.820050 0.923540 0.960490 -0.589393
C66   C     C_R   0.485490 0.923693 0.078975 0.971094
O16   O     O_R   0.317110 0.076520 0.039540 -0.592541
O17   O     O_3   0.483830 0.993580 0.966380 -0.267278
V3    V     V_3+5 0.760140 0.001190 0.006240 1.178000
O18   O     O_R   0.149510 0.922740 0.954070 -0.588635
C67   C     C_R   0.981315 0.898894 0.943378 0.937626
O19   O     O_R   0.143120 0.056170 0.936970 -0.586973
C68   C     C_R   0.973361 0.076198 0.921129 0.977495
V4    V     V_3+5 0.259690 0.998700 0.993700 1.183010
O20   O     O_3   0.986130 0.006420 0.033620 -0.272708
N1    N     N_R   0.009606 0.127763 0.706856 0.267242
O21   O     O_R   0.032441 0.122198 0.654288 -0.317949
O22   O     O_R   0.033648 0.076821 0.738352 -0.373842
N2    N     N_R   0.627263 0.205348 0.678186 0.245212
O23   O     O_R   0.537172 0.151761 0.690025 -0.336275
O24   O     O_R   0.581723 0.237569 0.633808 -0.392272
O25   O     O_3   0.071482 0.773881 0.198948 -0.753708
H29   H     H_    0.977582 0.745400 0.217541 0.313065
O26   O     O_3   0.156870 0.799016 0.322497 -0.749637
H30   H     H_    0.117696 0.842364 0.307625 0.321825

loop_
_geom_bond_atom_site_label_1
_geom_bond_atom_site_label_2
_geom_bond_distance
_ccdc_geom_bond_type
C35   C42   1.548743 S    
C13   C19   1.438265 A    
C53   C57   1.393767 A    
C28   C33   1.481567 S    
C30   C34   1.481615 S    
C4    C6    1.474362 S    
C7    C11   1.403725 A    
C7    C8    1.391191 A    
C1    O6    1.297297 A    
C3    C26   1.449414 S    
C51   C52   1.426775 A    
C55   C61   1.438304 A    
C37   C45   1.218225 T    
C51   H25   1.076994 S    
C23   C24   1.557670 S    
C14   C15   1.387755 A    
C36   H15   1.109963 S    
O12   V3    1.995307 S    
C49   H23   1.083957 S    
C16   C17   1.387892 A    
O26   H30   0.991187 S    
O15   C67   1.298274 A    
O19   V4    1.975113 S    
O5    C3    1.296821 A    
C1    C37   1.456474 S    
C8    H6    1.083627 S    
C47   C50   1.394986 A    
C48   C63   1.395027 A    
O18   C67   1.296653 A    
C38   C46   1.218191 T    
C5    C8    1.394985 A    
H13   C32   1.110026 S    
C31   C32   1.543030 S    
C24   H11   1.110144 S    
C41   C43   1.543022 S    
C27   H14   1.110442 S    
O14   C66   1.303869 A    
O17   V4    1.702933 S    
O8    V2    1.975295 S    
C57   H19   1.084381 S    
C17   H4    1.084421 S    
C42   C46   1.488381 S    
O1    V2    1.988899 S    
C11   C15   1.393746 A    
C38   C66   1.456434 S    
C18   C20   1.403787 A    
O7    V1    2.153696 S    
O15   V3    1.990512 S    
O13   C68   1.296744 A    
C28   C31   1.532917 S    
O11   C66   1.297303 A    
O1    C2    1.298675 A    
O9    C4    1.296748 A    
C50   H24   1.083616 S    
C35   C36   1.559916 S    
C27   C29   1.542815 S    
C29   C31   1.525390 S    
C44   O25   1.397678 S    
C39   C40   1.549773 S    
C25   C33   1.214018 T    
C54   C58   1.411097 A    
C12   C13   1.438093 A    
O4    C2    1.297095 A    
C56   C57   1.387778 A    
C23   C27   1.560102 S    
C15   H1    1.084408 S    
C40   C45   1.488417 S    
C55   C56   1.411086 A    
C21   H3    1.083619 S    
C65   O16   1.298734 A    
C39   C41   1.560026 S    
C35   H16   1.109899 S    
O2    C1    1.303965 A    
O13   V3    1.961438 S    
C17   C18   1.393896 A    
C43   O26   1.397869 S    
C35   C39   1.558715 S    
C60   C62   1.403767 A    
C47   C51   1.407045 A    
V4    O20   2.149493 S    
C20   H10   1.083978 S    
C19   C22   1.426722 A    
C36   C44   1.542720 S    
C54   C55   1.438082 A    
C64   H20   1.076983 S    
C6    C22   1.406925 A    
N1    O21   1.300256 A    
O3    C4    1.298290 A    
C7    H5    1.083980 S    
O14   V3    1.966409 S    
C2    C48   1.474296 S    
C9    H7    1.077042 S    
O6    V2    1.966158 S    
C52   C54   1.438347 A    
C30   C32   1.550239 S    
C24   C32   1.559783 S    
C10   C12   1.438336 A    
C26   C34   1.214043 T    
O25   H29   0.990598 S    
C56   H26   1.076102 S    
C63   H21   1.083645 S    
C58   H27   1.076117 S    
C27   C28   1.550292 S    
C14   H8    1.076110 S    
N2    O24   1.300221 A    
O17   V3    2.153640 S    
C23   H12   1.110046 S    
C29   N2    1.457552 S    
C29   C30   1.533264 S    
C25   C68   1.449373 S    
C47   C65   1.474341 S    
C12   C16   1.411234 A    
O5    V1    1.961268 S    
O16   V4    1.993491 S    
O8    C3    1.300527 A    
C16   H9    1.076175 S    
O18   V4    1.991930 S    
C36   C40   1.550621 S    
C59   H22   1.084382 S    
C20   C21   1.391349 A    
O9    V2    1.992003 S    
C13   C14   1.411176 A    
O4    V1    1.995319 S    
O3    V1    1.990485 S    
V1    O10   1.707009 S    
O19   C68   1.300577 A    
C31   N1    1.457284 S    
C61   C64   1.426719 A    
C49   C53   1.403696 A    
C60   C61   1.419539 A    
C18   C19   1.419608 A    
O12   C65   1.297128 A    
C48   C64   1.406955 A    
C40   C43   1.532567 S    
C24   C28   1.548796 S    
C62   C63   1.391254 A    
C41   H17   1.109959 S    
C22   H2    1.076997 S    
O7    V2    1.704238 S    
C41   C42   1.550653 S    
C6    C21   1.395052 A    
C5    C9    1.407019 A    
N1    O22   1.300229 A    
C62   H28   1.083959 S    
C49   C50   1.391191 A    
C43   C44   1.526096 S    
C58   C59   1.387859 A    
C23   C30   1.548549 S    
C52   C53   1.419551 A    
C10   C11   1.419652 A    
O11   V4    1.965950 S    
C42   C44   1.533293 S    
C39   H18   1.110212 S    
C59   C60   1.393814 A    
C9    C10   1.426693 A    
V3    O20   1.706922 S    
V2    O10   2.149456 S    
C5    C67   1.474135 S    
N2    O23   1.300351 A    
O2    V1    1.966377 S    
