data_mof_unit_15402.cif
_audit_creation_date              2012-10-26T20:51:14-0400
_audit_creation_method            fapswitch 2.2
_symmetry_space_group_name_H-M    P1
_symmetry_Int_Tables_number       1
_space_group_crystal_system       triclinic
_cell_length_a                    12.98008
_cell_length_b                    10.831204
_cell_length_c                    9.56585
_cell_angle_alpha                 90.390668
_cell_angle_beta                  96.115603
_cell_angle_gamma                 90.559873
_cell_volume                      1337.10257369

loop_
_atom_site_label
_atom_site_type_symbol
_atom_type_description
_atom_site_fract_x
_atom_site_fract_y
_atom_site_fract_z
_atom_type_partial_charge
C1    C     C_R   0.497406 0.262429 0.499162 0.547816
C2    C     C_R   0.476147 0.934575 0.369295 -0.161419
C3    C     C_R   0.487647 0.870897 0.497747 0.008945
C4    C     C_R   0.300682 0.500107 0.473788 0.543225
C5    C     C_R   0.483650 0.937620 0.622306 0.023864
C6    C     C_3   0.554336 0.934969 0.755919 -0.274472
C7    C     C_3   0.551890 0.074827 0.756115 -0.256893
C8    C     C_R   0.533831 0.601429 0.079898 0.142089
C9    C     C_R   0.454868 0.406543 0.067034 0.006608
C10   C     C_R   0.454124 0.407034 0.918231 0.010162
C11   C     C_R   0.537910 0.599224 0.933462 0.169979
C12   C     C_R   0.027264 0.469687 0.559731 0.046294
C13   C     C_3   0.646242 0.652225 0.952051 -0.115346
C14   C     C_3   0.637064 0.661956 0.108757 -0.250503
C15   C     C_R   0.498203 0.737720 0.499905 0.543139
C16   C     C_R   0.699401 0.497977 0.526115 0.540402
C17   C     C_R   0.812091 0.490742 0.540284 -0.007286
C18   C     C_R   0.188096 0.503421 0.458880 0.003655
C19   C     C_R   0.026733 0.563139 0.328278 -0.132236
C20   C     C_R   0.133910 0.552755 0.337712 -0.135375
C21   C     C_R   0.134592 0.461121 0.569103 -0.128077
C22   C     C_2   0.730179 0.564590 0.920605 0.245402
C23   C     C_R   0.973149 0.522655 0.439189 0.051895
C24   C     C_R   0.866201 0.534069 0.431296 -0.116328
C25   C     C_R   0.865715 0.435320 0.658078 -0.146954
C26   C     C_R   0.973106 0.426135 0.668692 -0.140316
C27   C     C_R   0.482495 0.064778 0.621677 0.013765
C28   C     C_R   0.486152 0.129344 0.496624 0.008279
C29   C     C_R   0.475483 0.063373 0.368733 -0.159023
Cu1   Cu    Cu3+1 0.499990 0.499980 0.640670 0.965229
Cu2   Cu    Cu3+1 0.500010 0.500020 0.359330 0.945936
H1    H     H_    0.825371 0.576909 0.340275 0.109246
H2    H     H_    0.824531 0.396710 0.740247 0.171676
H3    H     H_    0.985902 0.603157 0.234935 0.109221
H4    H     H_    0.013524 0.383746 0.760829 0.112162
H5    H     H_    0.174608 0.586057 0.252031 0.129281
H6    H     H_    0.176460 0.421548 0.662086 0.115000
H7    H     H_    0.471984 0.110606 0.268929 0.129458
H8    H     H_    0.472830 0.885723 0.269709 0.131196
H9    H     H_    0.516321 0.893564 0.843528 0.132536
H10   H     H_    0.793901 0.598563 0.866467 0.092926
H11   H     H_    0.631905 0.898151 0.739961 0.129362
H12   H     H_    0.511445 0.113956 0.842832 0.133776
H13   H     H_    0.628111 0.118447 0.742667 0.154413
H14   H     H_    0.419943 0.329658 0.116736 0.105270
H15   H     H_    0.418121 0.330866 0.857086 0.104885
H16   H     H_    0.653051 0.743375 0.902519 0.061636
H17   H     H_    0.692623 0.605005 0.175388 0.175918
H18   H     H_    0.630729 0.758684 0.146260 0.092964
N1    N     N_R   0.500660 0.500930 0.148010 -0.222367
N2    N     N_R   0.500660 0.500890 0.852110 -0.211410
O1    O     O_R   0.500000 0.319640 0.618810 -0.504228
O2    O     O_R   0.500010 0.319680 0.381230 -0.509645
O3    O     O_R   0.348990 0.499960 0.599490 -0.510660
O4    O     O_R   0.349000 0.500000 0.361910 -0.507908
O5    O     O_R   0.499990 0.680320 0.618770 -0.504944
O6    O     O_R   0.500000 0.680360 0.381190 -0.513729
O7    O     O_R   0.651000 0.500000 0.638090 -0.487534
O8    O     O_R   0.651010 0.500040 0.400510 -0.499613
O9    O     O_2   0.729300 0.457172 0.958800 -0.511345

loop_
_geom_bond_atom_site_label_1
_geom_bond_atom_site_label_2
_ccdc_geom_bond_type
C29   H7    S    
C10   H15   S    
C1    C28   S    
C19   C23   A    
C23   C24   A    
C24   H1    S    
C9    H14   S    
C6    C7    S    
C7    H12   S    
C17   C24   A    
C18   C21   A    
Cu1   O3    S    
C9    C10   A    
C7    C27   S    
C19   C20   A    
C5    C27   A    
Cu1   N2    S    
C17   C25   A    
C15   O5    A    
Cu2   O6    S    
C2    C3    A    
C4    C18   S    
C16   O7    A    
C13   C14   S    
Cu2   O2    S    
C15   O6    A    
C12   C23   A    
Cu1   Cu2   S    
C12   C21   A    
C2    C29   A    
C10   N2    A    
Cu1   O7    S    
C28   C29   A    
C12   C26   A    
C13   C22   S    
C18   C20   A    
C8    C11   A    
C4    O4    A    
C22   O9    D    
C5    C6    S    
C1    O1    A    
C6    H9    S    
C22   H10   S    
C11   N2    A    
Cu2   N1    S    
C14   H18   S    
C8    N1    A    
C26   H4    S    
C11   C13   S    
C3    C15   S    
C21   H6    S    
C6    H11   S    
Cu2   O8    S    
C27   C28   A    
C13   H16   S    
C14   H17   S    
C1    O2    A    
Cu1   O1    S    
C8    C14   S    
Cu2   O4    S    
C25   C26   A    
C7    H13   S    
Cu1   O5    S    
C2    H8    S    
C19   H3    S    
C4    O3    A    
C9    N1    A    
C25   H2    S    
C16   C17   S    
C3    C5    A    
C16   O8    A    
C20   H5    S    
