data_mof_unit_61536.cif
_audit_creation_date              2013-03-05T15:54:30-0500
_audit_creation_method            fapswitch 2.2
_symmetry_space_group_name_H-M    P1
_symmetry_Int_Tables_number       1
_space_group_crystal_system       triclinic
_cell_length_a                    8.673549
_cell_length_b                    15.421007
_cell_length_c                    16.4505
_cell_angle_alpha                 98.434519
_cell_angle_beta                  93.094143
_cell_angle_gamma                 99.031842
_cell_volume                      2142.86158975

loop_
_atom_site_label
_atom_site_type_symbol
_atom_site_description
_atom_site_fract_x
_atom_site_fract_y
_atom_site_fract_z
_atom_type_partial_charge
P1    P     P_3+3 0.987090 0.708160 0.571840 0.541305
O1    O     O_2   0.162600 0.722340 0.548210 -0.333118
O2    O     O_3   0.890740 0.608910 0.545450 -0.345592
O3    O     O_3   0.394140 0.666560 0.400120 -0.345277
O4    O     O_2   0.314765 0.819900 0.452544 -0.365359
O5    O     O_3   0.977803 0.746566 0.679682 -0.576400
O6    O     O_3   0.423373 0.816998 0.311253 -0.594608
C1    C     C_3   0.559776 0.912495 0.226436 -0.954447
H1    H     H_    0.589488 0.967399 0.278982 0.244607
P2    P     P_3+3 0.349530 0.428340 0.313070 0.525142
P3    P     P_3+3 0.927184 0.609383 0.250191 0.548124
O7    O     O_2   0.182040 0.455730 0.301660 -0.331666
O8    O     O_3   0.971540 0.620730 0.357730 -0.380900
O9    O     O_2   0.045870 0.557089 0.206563 -0.293369
O10   O     O_3   0.361996 0.318064 0.269814 -0.594389
O11   O     O_3   0.962145 0.712809 0.216990 -0.541158
C2    C     C_3   0.086262 0.767790 0.265871 0.507453
H2    H     H_    0.052256 0.790545 0.328415 0.076460
C3    C     C_3   0.134324 0.849082 0.224694 -0.724934
H3    H     H_    0.212122 0.901800 0.268096 0.225841
H4    H     H_    0.194720 0.830070 0.168635 0.245751
C4    C     C_3   0.842723 0.283497 0.264516 0.292978
C5    C     C_3   0.779263 0.215208 0.187348 -0.819102
H5    H     H_    0.772133 0.146323 0.201035 0.268345
H6    H     H_    0.853071 0.223198 0.134909 0.222896
Ba1   Ba    Ba6+2 0.163640 0.544330 0.462610 1.658486
C6    C     C_3   0.029950 0.715276 0.752209 0.110935
C7    C     C_3   0.001520 0.787335 0.827139 -0.649255
H7    H     H_    0.112996 0.821194 0.862762 0.233930
C8    C     C_3   0.260504 0.247903 0.292713 0.297950
H8    H     H_    0.182616 0.270392 0.339330 0.080201
C9    C     C_3   0.170701 0.195390 0.212549 -0.764698
H9    H     H_    0.102082 0.238351 0.183087 0.187891
P4    P     P_3+3 0.823210 0.291830 0.428100 0.492150
O12   O     O_2   0.647690 0.277600 0.451760 -0.319800
O13   O     O_3   0.919560 0.391080 0.454480 -0.378403
O14   O     O_3   0.416160 0.333430 0.599820 -0.342245
O15   O     O_3   0.742080 0.266657 0.325164 -0.541684
P5    P     P_3+3 0.903231 0.385320 0.747634 0.574222
O16   O     O_3   0.378690 0.546410 0.598120 -0.421025
O17   O     O_3   0.838760 0.379260 0.642200 -0.296791
O18   O     O_2   0.780018 0.423216 0.800208 -0.296951
O19   O     O_3   0.894472 0.277351 0.771103 -0.585447
Ba2   Ba    Ba6+2 0.646540 0.455660 0.537320 1.674483
P6    P     P_3+3 0.449676 0.783124 0.409259 0.474734
C10   C     C_3   0.547576 0.822025 0.257313 0.326295
O20   O     O_3   0.431610 0.453580 0.401810 -0.397221
C11   C     C_3   0.603515 0.735889 0.664976 0.379690
C12   C     C_3   0.672593 0.835449 0.696456 -0.807831
H10   H     H_    0.800628 0.845252 0.701059 0.224047
P7    P     P_3+3 0.471235 0.582516 0.699456 0.526347
O21   O     O_2   0.628260 0.544210 0.698310 -0.278761
O22   O     O_3   0.538168 0.696447 0.729053 -0.536182
C13   C     C_3   0.769411 0.218491 0.725251 0.265792
H11   H     H_    0.664838 0.250885 0.719244 0.147849
H12   H     H_    0.804556 0.197852 0.662169 0.118874
C14   C     C_3   0.724700 0.135664 0.768728 -0.662978
P8    P     P_3+3 0.357647 0.217753 0.594674 0.493390
C15   C     C_3   0.304036 0.259503 0.749973 0.211817
H13   H     H_    0.224037 0.293569 0.715389 0.078174
O23   O     O_2   0.490951 0.175051 0.554967 -0.348480
O24   O     O_3   0.367385 0.195601 0.696878 -0.596381
C16   C     C_3   0.199424 0.215532 0.809927 -0.723235
C17   C     C_R   0.157395 0.168612 0.539326 0.196175
C18   C     C_R   0.092361 0.077356 0.530629 0.032964
C19   C     C_R   0.958716 0.892774 0.530975 -0.090593
C20   C     C_R   0.112553 0.931095 0.564515 -0.118008
C21   C     C_R   0.179342 0.017662 0.557446 -0.217772
C22   C     C_R   0.891785 0.798484 0.525901 0.179091
C23   C     C_R   0.733263 0.773521 0.496581 -0.511371
C24   C     C_R   0.912516 0.200251 0.474273 0.131944
C25   C     C_R   0.843989 0.107776 0.471508 0.015184
C26   C     C_R   0.934539 0.046352 0.500548 0.090112
C27   C     C_R   0.687793 0.074695 0.443937 -0.111957
C28   C     C_R   0.620421 0.986209 0.446019 -0.116365
C29   C     C_R   0.707901 0.924340 0.472847 0.025814
C30   C     C_R   0.867372 0.953926 0.500706 0.121647
C31   C     C_R   0.641664 0.833171 0.469214 0.229336
C32   C     C_R   0.065073 0.226946 0.512178 -0.434928
H14   H     H_    0.497608 0.966937 0.425777 0.178772
H15   H     H_    0.614327 0.117830 0.422902 0.197665
C33   C     C_R   0.609511 0.541246 0.269480 -0.359699
C34   C     C_R   0.462366 0.491599 0.241159 0.251514
C35   C     C_R   0.420490 0.472513 0.154458 -0.247815
C36   C     C_R   0.522404 0.510844 0.099322 0.102371
C37   C     C_R   0.674614 0.551124 0.129581 -0.169871
C38   C     C_R   0.720927 0.562466 0.213622 0.367485
C39   C     C_R   0.397425 0.536201 0.855667 -0.236899
C40   C     C_R   0.347705 0.532954 0.772675 0.307032
C41   C     C_R   0.294786 0.495762 0.908321 0.190281
N1    N     N_2   0.480411 0.508407 0.013340 -0.049100
N2    N     N_2   0.336510 0.498284 0.993920 -0.051315
C42   C     C_R   0.197357 0.491555 0.742363 -0.461931
H16   H     H_    0.514100 0.569393 0.878486 0.165999
C43   C     C_R   0.097461 0.447369 0.791487 0.323721
C44   C     C_R   0.145208 0.451131 0.875234 -0.288918
H17   H     H_    0.066512 0.418612 0.914635 0.188814
H18   H     H_    0.643440 0.555353 0.334949 0.175357
C45   C     C_2   0.505359 0.749960 0.182626 0.968970
O25   O     O_2   0.590877 0.746849 0.125733 -0.634987
O26   O     O_R   0.368789 0.687315 0.177883 -0.784755
H19   H     H_    0.347086 0.647669 0.122297 0.332872
H20   H     H_    0.658657 0.223819 0.167299 0.277496
C46   C     C_2   0.200167 0.715457 0.758309 0.972373
O27   O     O_2   0.273845 0.727322 0.699492 -0.581951
O28   O     O_R   0.273814 0.707437 0.834295 -0.854124
H21   H     H_    0.390919 0.726629 0.840062 0.373750
C47   C     C_2   0.951380 0.622279 0.755991 0.915813
O29   O     O_2   0.916463 0.570686 0.692073 -0.528675
O30   O     O_R   0.935100 0.589650 0.830533 -0.762144
H22   H     H_    0.014459 0.622186 0.876588 0.299427
H23   H     H_    0.962531 0.844137 0.803541 0.262400
C48   C     C_2   0.889886 0.759626 0.889461 1.147087
O31   O     O_2   0.936119 0.770755 0.962428 -0.583438
O32   O     O_R   0.734286 0.722891 0.864719 -0.761523
H24   H     H_    0.670913 0.711038 0.913089 0.325497
C49   C     C_2   0.358819 0.187099 0.325488 1.067619
O33   O     O_2   0.340840 0.165928 0.393281 -0.665906
O34   O     O_R   0.462331 0.149589 0.274336 -0.776767
H25   H     H_    0.508031 0.101149 0.297177 0.306965
H26   H     H_    0.447780 0.919576 0.194375 0.257487
C50   C     C_2   0.068212 0.110694 0.225161 1.038681
O35   O     O_2   0.053794 0.044862 0.171960 -0.594599
O36   O     O_R   0.991103 0.107140 0.297449 -0.833822
H27   H     H_    0.926048 0.046681 0.298262 0.348722
H28   H     H_    0.255670 0.178251 0.166845 0.248294
C51   C     C_2   0.703705 0.812310 0.295376 0.924455
O37   O     O_2   0.814415 0.873729 0.306241 -0.686417
O38   O     O_R   0.718487 0.731955 0.320455 -0.839674
H29   H     H_    0.818475 0.736641 0.355726 0.316155
H30   H     H_    0.652619 0.920431 0.182670 0.276320
H31   H     H_    0.696322 0.700099 0.641316 0.107467
H32   H     H_    0.512982 0.730609 0.613315 0.101333
H33   H     H_    0.647856 0.877250 0.649659 0.187668
C52   C     C_2   0.619482 0.872984 0.778886 1.266422
O39   O     O_2   0.481420 0.876135 0.787234 -0.588248
O40   O     O_R   0.728862 0.904612 0.846088 -0.769767
H34   H     H_    0.678848 0.925028 0.898254 0.363700
H35   H     H_    0.029624 0.876579 0.205809 0.296353
C53   C     C_2   0.583118 0.077323 0.721670 1.002861
O41   O     O_2   0.584137 0.051353 0.647775 -0.599490
O42   O     O_R   0.451987 0.051376 0.762545 -0.727016
H36   H     H_    0.357843 0.025359 0.723295 0.355446
C54   C     C_2   0.851789 0.078976 0.765900 1.006888
O43   O     O_2   0.909938 0.060411 0.829188 -0.556609
O44   O     O_R   0.901926 0.046187 0.690071 -0.818072
H37   H     H_    0.987124 0.009523 0.696963 0.343263
C55   C     C_2   0.691889 0.163213 0.858678 1.172690
O45   O     O_2   0.707133 0.241542 0.889325 -0.571183
O46   O     O_R   0.650886 0.097606 0.907750 -0.749527
H38   H     H_    0.646900 0.123203 0.967828 0.327614
C56   C     C_2   0.431863 0.330394 0.792891 0.959205
O47   O     O_2   0.500638 0.381495 0.752248 -0.571025
O48   O     O_R   0.469041 0.341382 0.877733 -0.719640
H39   H     H_    0.561024 0.390501 0.897325 0.366703
H40   H     H_    0.103453 0.174113 0.769489 0.213222
H41   H     H_    0.149546 0.266682 0.850052 0.185074
H42   H     H_    0.184095 0.731119 0.272364 0.187622
C57   C     C_2   0.267513 0.158264 0.864558 1.280318
O49   O     O_2   0.220475 0.078173 0.853715 -0.550533
O50   O     O_R   0.369514 0.196898 0.933237 -0.719802
H43   H     H_    0.390082 0.152512 0.970535 0.327869
C58   C     C_2   0.203505 0.894730 0.622929 1.114107
O51   O     O_2   0.161001 0.891150 0.691991 -0.617417
O52   O     O_R   0.352992 0.882074 0.604871 -0.759847
H44   H     H_    0.398983 0.851698 0.646976 0.354343
H45   H     H_    0.299532 0.040543 0.581030 0.204848
H46   H     H_    0.680705 0.704272 0.491391 0.165923
C59   C     C_2   0.129674 0.319677 0.529407 1.083792
O53   O     O_2   0.107681 0.362878 0.594093 -0.678203
O54   O     O_R   0.228809 0.356155 0.476219 -0.768181
H47   H     H_    0.287391 0.414892 0.504829 0.391222
H48   H     H_    0.757465 0.574239 0.087290 0.179179
C60   C     C_2   0.286703 0.402305 0.119980 1.083174
O55   O     O_2   0.154008 0.408903 0.137724 -0.584761
O56   O     O_R   0.312932 0.329574 0.064337 -0.742421
H49   H     H_    0.212598 0.286825 0.043890 0.326748
H50   H     H_    0.156535 0.496841 0.680718 0.217902
C61   C     C_2   0.840795 0.375745 0.247092 1.018941
O57   O     O_2   0.847152 0.392665 0.176815 -0.584551
O58   O     O_R   0.834687 0.443646 0.311652 -0.750286
H51   H     H_    0.750525 0.427341 0.349409 0.309727
H52   H     H_    0.961569 0.277766 0.284931 0.040147

loop_
_geom_bond_atom_site_label_1
_geom_bond_atom_site_label_2
_geom_bond_distance
_ccdc_geom_bond_type
P8    O24   1.764334 S    
C10   C45   1.517151 S    
O52   H44   0.991128 S    
C23   C31   1.411515 A    
C33   H18   1.082048 S    
C59   O53   1.210950 D    
P2    C34   1.863502 S    
C43   C44   1.407225 A    
C16   C57   1.508518 S    
O54   H47   1.002373 S    
C46   O28   1.403496 S    
O50   H43   1.013185 S    
C36   N1    1.434993 S    
Ba1   Ba2   4.760129 S    
C52   O39   1.220358 D    
P5    O17   1.777932 S    
O58   H51   1.009465 S    
C7    H23   1.100411 S    
O26   H19   1.013243 S    
C34   C35   1.428348 A    
O6    P6    1.780174 S    
C7    H7    1.114222 S    
C3    H4    1.109897 S    
C29   C31   1.424171 A    
C16   H40   1.091805 S    
C48   O31   1.223555 D    
P2    O10   1.766639 S    
C49   O34   1.396631 S    
C57   O49   1.221887 D    
C8    H8    1.102825 S    
P3    O9    1.547816 D    
C1    H26   1.108438 S    
C19   C22   1.467097 A    
O28   H21   1.007594 S    
C33   C38   1.403602 A    
C4    O15   1.386969 S    
C6    C46   1.473918 S    
C18   C26   1.413963 A    
C47   O29   1.214453 D    
P4    O12   1.581589 D    
C9    H28   1.113978 S    
C60   O55   1.218419 D    
C12   H33   1.106964 S    
O30   H22   1.011580 S    
C5    H20   1.113509 S    
C3    H3    1.109722 S    
P3    C38   1.853534 S    
C1    H1    1.105989 S    
C5    H5    1.110865 S    
C57   O50   1.394019 S    
P6    C31   1.880762 S    
C28   H14   1.080365 S    
O14   P8    1.764558 S    
Ba2   O20   2.820866 S    
Ba2   O21   2.820648 S    
P8    O23   1.546467 D    
C19   C20   1.418220 A    
C12   C52   1.518852 S    
C15   H13   1.113825 S    
C42   C43   1.385585 A    
C59   O54   1.376624 S    
C35   C60   1.481485 S    
C24   C32   1.404907 A    
C46   O27   1.208310 D    
P5    O18   1.542471 D    
C60   O56   1.396054 S    
O3    P6    1.768283 S    
P8    C17   1.906223 S    
C11   O22   1.395224 S    
C13   H12   1.113024 S    
O2    Ba2   2.897294 S    
C27   C28   1.403624 A    
C20   C21   1.393270 A    
O6    C10   1.432158 S    
C9    C50   1.507988 S    
C10   C51   1.499344 S    
C4    C61   1.494218 S    
P4    Ba2   3.484279 S    
C35   C36   1.425926 A    
C25   C27   1.396485 A    
N1    N2    1.251168 D    
C37   C38   1.396542 A    
C54   O43   1.223259 D    
P5    O19   1.754736 S    
C36   C37   1.399084 A    
O4    P6    1.542002 D    
P2    Ba1   3.448686 S    
P1    C22   1.948697 S    
P7    O21   1.567275 D    
C14   C53   1.504306 S    
O7    Ba1   2.820539 S    
P1    O2    1.610503 S    
C28   C29   1.412600 A    
C51   O38   1.384308 S    
C4    H52   1.087710 S    
C2    H42   1.099938 S    
C23   H46   1.082457 S    
P3    O11   1.748051 S    
C11   H32   1.110432 S    
O19   C13   1.403979 S    
C41   N2    1.428245 S    
O5    C6    1.428314 S    
O34   H25   1.007732 S    
C18   C21   1.382905 A    
C44   H17   1.083118 S    
C1    H30   1.113242 S    
C2    H2    1.108174 S    
O1    Ba1   2.897188 S    
C53   O41   1.223777 D    
O12   Ba2   2.897806 S    
P5    C43   1.853187 S    
O48   H39   1.012442 S    
P2    O7    1.584469 D    
Ba1   O20   3.036869 S    
C54   O44   1.394061 S    
O56   H49   1.014048 S    
C45   O26   1.396826 S    
C39   C41   1.413895 A    
C12   H10   1.093937 S    
P1    Ba1   3.483747 S    
C17   C32   1.398326 A    
O8    Ba1   2.836075 S    
O13   Ba2   3.024444 S    
C16   H41   1.109184 S    
C27   H15   1.070062 S    
C50   O36   1.399265 S    
C51   O37   1.223668 D    
C6    C7    1.591232 S    
O10   C8    1.394192 S    
O44   H37   1.009722 S    
C56   O48   1.394828 S    
Ba1   O13   2.896667 S    
C52   O40   1.394058 S    
C19   C30   1.447314 A    
C13   H11   1.108626 S    
C11   C12   1.558465 S    
C15   O24   1.416040 S    
P1    O5    1.796302 S    
C14   C54   1.509175 S    
C58   O52   1.382570 S    
P4    O15   1.762403 S    
O2    Ba1   3.023549 S    
C55   O46   1.399763 S    
C25   C26   1.438097 A    
O3    Ba1   2.865975 S    
C42   H50   1.074688 S    
C41   C44   1.409483 A    
C53   O42   1.387246 S    
C8    C49   1.498941 S    
O16   P7    1.782212 S    
O40   H34   1.013679 S    
C15   C16   1.534758 S    
O46   H38   1.013562 S    
C45   O25   1.225307 D    
C15   C56   1.493764 S    
C37   H48   1.083408 S    
C17   C18   1.414928 A    
C32   C59   1.432338 S    
O14   Ba2   2.865417 S    
O38   H29   1.003837 S    
C24   C25   1.449453 A    
C49   O33   1.218279 D    
C9    H9    1.102230 S    
C8    C9    1.542509 S    
C29   C30   1.415440 A    
P3    O8    1.767148 S    
Ba1   O16   2.821508 S    
O11   C2    1.394405 S    
C48   O32   1.393200 S    
C6    C47   1.499615 S    
O17   Ba2   2.836722 S    
P1    O1    1.581332 D    
C2    C3    1.523048 S    
C47   O30   1.397926 S    
P4    O13   1.610486 S    
C55   O45   1.222597 D    
C5    H6    1.111404 S    
C40   C42   1.389896 A    
C22   C23   1.406793 A    
C1    C10   1.543680 S    
C58   O51   1.219386 D    
C7    C48   1.508967 S    
C61   O57   1.224137 D    
C21   H45   1.078172 S    
C20   C58   1.440608 S    
O16   Ba2   3.035979 S    
C39   C40   1.400726 A    
C3    H35   1.109094 S    
C33   C34   1.398731 A    
C14   C55   1.532984 S    
P2    O20   1.556766 S    
O42   H36   1.004434 S    
C39   H16   1.080279 S    
C26   C30   1.453066 A    
C4    C5    1.540734 S    
C11   H31   1.101994 S    
C56   O47   1.214039 D    
P7    O22   1.749049 S    
C50   O35   1.224700 D    
P4    C24   1.940618 S    
P7    C40   1.826255 S    
O32   H24   1.013422 S    
O36   H27   1.013473 S    
C61   O58   1.387238 S    
C13   C14   1.560700 S    
