data_mof_unit_18893.cif
_audit_creation_date              2012-12-10T18:07:39-0500
_audit_creation_method            fapswitch 2.2
_symmetry_space_group_name_H-M    P1
_symmetry_Int_Tables_number       1
_space_group_crystal_system       triclinic
_cell_length_a                    11.537662
_cell_length_b                    12.591078
_cell_length_c                    13.041374
_cell_angle_alpha                 79.374134
_cell_angle_beta                  92.848042
_cell_angle_gamma                 102.642311
_cell_volume                      1816.82336009

loop_
_atom_site_label
_atom_site_type_symbol
_atom_type_description
_atom_site_fract_x
_atom_site_fract_y
_atom_site_fract_z
_atom_type_partial_charge
C1    C     C_R   0.479394 0.436118 0.692089 0.924791
C2    C     C_R   0.404533 0.642870 0.890062 -0.362592
C3    C     C_R   0.388847 0.554560 0.835643 0.490237
C4    C     C_R   0.717755 0.501167 0.500683 0.889660
C5    C     C_R   0.538380 0.524890 0.133222 -0.228147
C6    C     C_R   0.517614 0.707133 0.147412 -0.216535
C7    C     C_R   0.459240 0.391667 0.804637 -0.179086
C8    C     C_R   0.273832 0.081710 0.412428 0.362309
C9    C     C_R   0.664366 0.814464 0.603877 0.233751
C10   C     C_R   0.668971 0.894693 0.667343 0.157633
C11   C     C_R   0.588182 0.963728 0.645550 -0.174073
C12   C     C_R   0.530227 0.601871 0.195032 -0.151931
C13   C     C_R   0.502855 0.948675 0.566245 0.004590
C14   C     C_R   0.479975 0.846699 0.529685 0.093862
C15   C     C_R   0.443143 0.032497 0.516937 -0.076802
C16   C     C_R   0.518245 0.562797 0.307821 0.874367
C17   C     C_R   0.332279 0.000038 0.467528 -0.077068
C18   C     C_R   0.293195 0.887937 0.461175 -0.217942
C19   C     C_R   0.381479 0.827424 0.460110 0.188237
C20   C     C_R   0.494776 0.146490 0.505571 0.478480
C21   C     C_R   0.332770 0.192156 0.399483 -0.083763
C22   C     C_R   0.282253 0.498826 0.499466 0.925057
C23   C     C_R   0.483847 0.287198 0.850579 0.097981
C24   C     C_1   0.839051 0.503372 0.501071 -0.177945
C25   C     C_1   0.941068 0.501994 0.500647 0.008378
C26   C     C_1   0.059132 0.498648 0.499737 0.008508
C27   C     C_1   0.161048 0.496921 0.499206 -0.166865
C28   C     C_R   0.483429 0.727264 0.042637 0.468064
C29   C     C_3   0.778880 0.796835 0.564231 -0.388414
C30   C     C_3   0.875018 0.902620 0.535889 -0.917041
C31   C     C_3   0.763961 0.914063 0.750344 -0.426151
C32   C     C_3   0.710619 0.897233 0.858230 -0.863343
C33   C     C_3   0.399280 0.799074 0.354602 -0.354754
C34   C     C_R   0.546640 0.280450 0.946891 0.216856
C35   C     C_3   0.357710 0.876200 0.260372 -0.901985
C36   C     C_3   0.440930 0.185604 0.799245 -0.413228
C37   C     C_3   0.355971 0.092358 0.868281 -0.832757
C38   C     C_3   0.605889 0.185250 0.991551 -0.405117
C39   C     C_3   0.552439 0.122675 0.096289 -0.821895
C40   C     C_R   0.563010 0.369334 0.000527 -0.242939
C41   C     C_R   0.507046 0.459284 0.967144 -0.007826
C42   C     C_R   0.450224 0.467984 0.869105 0.017323
C43   C     C_R   0.509024 0.542328 0.027370 0.056942
C44   C     C_R   0.468259 0.639958 0.984382 -0.016273
H1    H     H_    0.529338 0.772108 0.192219 0.167883
H2    H     H_    0.835690 0.971407 0.493197 0.286160
H3    H     H_    0.924708 0.927897 0.605308 0.258063
H4    H     H_    0.940580 0.886688 0.484387 0.249350
H5    H     H_    0.814542 0.733758 0.620300 0.211789
H6    H     H_    0.759064 0.770607 0.487775 0.253777
H7    H     H_    0.654775 0.958045 0.861090 0.256840
H8    H     H_    0.656738 0.811870 0.878290 0.267762
H9    H     H_    0.782992 0.908767 0.917139 0.261054
H10   H     H_    0.823615 0.855010 0.755391 0.220022
H11   H     H_    0.818143 0.999576 0.730739 0.225349
H12   H     H_    0.210061 0.859915 0.422656 0.160897
H13   H     H_    0.259531 0.864294 0.257828 0.270446
H14   H     H_    0.398539 0.963984 0.263687 0.276004
H15   H     H_    0.382953 0.858308 0.185823 0.287380
H16   H     H_    0.496122 0.810739 0.344451 0.223262
H17   H     H_    0.351515 0.713512 0.350654 0.227841
H18   H     H_    0.463341 0.843547 0.926135 0.329122
H19   H     H_    0.404096 0.045841 0.929857 0.287807
H20   H     H_    0.289663 0.125795 0.904402 0.271128
H21   H     H_    0.307711 0.032264 0.820035 0.241219
H22   H     H_    0.387860 0.204606 0.728068 0.242444
H23   H     H_    0.594830 0.030476 0.688468 0.182667
H24   H     H_    0.517498 0.155397 0.776327 0.185211
H25   H     H_    0.575913 0.174683 0.157494 0.249634
H26   H     H_    0.454223 0.098713 0.090433 0.271101
H27   H     H_    0.588064 0.046636 0.120624 0.264802
H28   H     H_    0.601360 0.126169 0.937545 0.215467
H29   H     H_    0.702109 0.218692 0.003322 0.200817
H30   H     H_    0.276646 0.616024 0.737662 0.331273
H31   H     H_    0.359409 0.709410 0.861387 0.151901
H32   H     H_    0.554628 0.445968 0.171610 0.172035
H33   H     H_    0.620461 0.366303 0.068417 0.152483
H34   H     H_    0.288301 0.255652 0.359799 0.185512
H35   H     H_    0.116452 0.989622 0.407650 0.327587
H36   H     H_    0.592626 0.238459 0.590014 0.356879
N1    N     N_R   0.440320 0.222190 0.444690 -0.177942
N2    N     N_R   0.559060 0.776980 0.554780 -0.164412
O1    O     O_R   0.471500 0.366730 0.627160 -0.661115
O2    O     O_3   0.602868 0.181298 0.550793 -0.776140
O3    O     O_3   0.461076 0.830475 0.003113 -0.808641
O4    O     O_3   0.311244 0.549211 0.751448 -0.766093
O5    O     O_R   0.509620 0.544830 0.662520 -0.565283
O6    O     O_R   0.646490 0.410960 0.482310 -0.582381
O7    O     O_R   0.684610 0.589050 0.517670 -0.646140
O8    O     O_R   0.490380 0.455170 0.337480 -0.602705
O9    O     O_R   0.528500 0.633270 0.372840 -0.648329
O10   O     O_R   0.315390 0.410950 0.482330 -0.615812
O11   O     O_R   0.353510 0.589040 0.517690 -0.599159
O12   O     O_3   0.163058 0.058150 0.366704 -0.762199
Zn1   Zn    Zn3+2 0.474550 0.381080 0.476390 0.936970
Zn2   Zn    Zn3+2 0.525450 0.618920 0.523610 0.923863

loop_
_geom_bond_atom_site_label_1
_geom_bond_atom_site_label_2
_ccdc_geom_bond_type
C1    O5    A    
C3    C42   A    
C16   O8    A    
C6    H1    S    
C41   C42   A    
H36   O2    S    
O8    Zn1   S    
C29   H5    S    
C26   C27   T    
C35   H14   S    
C34   C40   A    
C30   H4    S    
C36   C37   S    
C6    C12   A    
C38   C39   S    
N1    Zn1   S    
C36   H22   S    
C35   H15   S    
C18   C19   A    
C7    C42   A    
C32   H8    S    
O9    Zn2   S    
C10   C31   S    
C6    C28   A    
C12   C16   S    
C2    C44   A    
C37   H21   S    
C21   H34   S    
C9    C10   A    
C7    C23   A    
C18   H12   S    
C9    N2    A    
C5    C43   A    
O6    Zn1   S    
C34   C38   S    
C13   C14   A    
C3    O4    S    
C41   C43   A    
C37   H19   S    
C11   H23   S    
C8    C21   A    
C29   H6    S    
C15   C20   A    
H18   O3    S    
C38   H28   S    
N2    Zn2   S    
C30   H3    S    
C8    O12   S    
C24   C25   T    
H35   O12   S    
C19   C33   S    
C25   C26   S    
C28   C44   A    
O10   Zn1   S    
C43   C44   A    
C32   H7    S    
C29   C30   S    
C31   C32   S    
C23   C34   A    
O1    Zn1   S    
O5    Zn2   S    
C17   C18   A    
C39   H25   S    
H30   O4    S    
C5    C12   A    
C40   C41   A    
C21   N1    A    
O11   Zn2   S    
C33   H16   S    
C22   C27   S    
C13   C15   A    
C22   O11   A    
C14   N2    A    
C32   H9    S    
C37   H20   S    
C4    O7    A    
C15   C17   A    
C39   H27   S    
C1    C7    S    
C14   C19   A    
C30   H2    S    
C36   H24   S    
C4    O6    A    
C9    C29   S    
C1    O1    A    
C8    C17   A    
C35   H13   S    
O7    Zn2   S    
C20   O2    S    
C2    C3    A    
C11   C13   A    
C5    H32   S    
C4    C24   S    
C33   C35   S    
C39   H26   S    
C31   H10   S    
C10   C11   A    
C16   O9    A    
C33   H17   S    
C23   C36   S    
C28   O3    S    
C22   O10   A    
C40   H33   S    
C31   H11   S    
C20   N1    A    
C2    H31   S    
C38   H29   S    
