data_mof_unit_48321.cif
_audit_creation_date              2012-10-26T19:02:57-0400
_audit_creation_method            fapswitch 2.2
_symmetry_space_group_name_H-M    P1
_symmetry_Int_Tables_number       1
_space_group_crystal_system       triclinic
_cell_length_a                    14.98309
_cell_length_b                    11.010087
_cell_length_c                    9.897914
_cell_angle_alpha                 111.456815
_cell_angle_beta                  97.631649
_cell_angle_gamma                 92.291375
_cell_volume                      1499.2282861

loop_
_atom_site_label
_atom_site_type_symbol
_atom_type_description
_atom_site_fract_x
_atom_site_fract_y
_atom_site_fract_z
_atom_type_partial_charge
C1    C     C_R   0.491570 0.253716 0.439883 0.561929
C2    C     C_2   0.485719 0.500344 0.922942 0.358699
C3    C     C_R   0.329541 0.502642 0.502492 0.573631
C4    C     C_R   0.670526 0.498224 0.497788 0.580581
C5    C     C_R   0.818367 0.614299 0.532524 -0.167159
C6    C     C_R   0.181680 0.387481 0.468634 -0.171639
C7    C     C_R   0.766302 0.495650 0.492802 0.006742
C8    C     C_R   0.233892 0.505947 0.508344 0.007864
C9    C     C_R   0.805193 0.376044 0.450889 0.261613
C10   C     C_R   0.195577 0.626050 0.554165 0.275891
C11   C     C_R   0.900300 0.377076 0.460180 0.040052
C12   C     C_R   0.507443 0.746217 0.560219 0.566895
C13   C     C_R   0.100602 0.625855 0.548676 0.047607
C14   C     C_R   0.953164 0.499177 0.501396 -0.037301
C15   C     C_R   0.047664 0.503739 0.507326 -0.039179
C16   C     C_R   0.911428 0.616946 0.535775 -0.035776
C17   C     C_R   0.089079 0.385466 0.469684 -0.040519
C18   C     C_R   0.944203 0.260626 0.431085 0.277480
C19   C     C_R   0.057262 0.743312 0.583322 0.294262
C20   C     C_3   0.722649 0.209442 0.258002 -0.076734
C21   C     C_3   0.281992 0.790036 0.745937 -0.088923
C22   C     C_3   0.911134 0.096395 0.509495 -0.088557
C23   C     C_R   0.037631 0.265921 0.431948 -0.114696
C24   C     C_3   0.092511 0.956327 0.747978 -0.122910
C25   C     C_3   0.525322 0.006065 0.838535 -0.138045
C26   C     C_3   0.463951 0.000428 0.159045 -0.138210
C27   C     C_3   0.399230 0.304360 0.790749 -0.095059
C28   C     C_3   0.583167 0.717115 0.199706 -0.102449
C29   C     C_R   0.962796 0.736536 0.573626 -0.112565
C30   C     C_2   0.477492 0.112975 0.405976 0.235837
C31   C     C_2   0.518771 0.887130 0.595298 0.235698
C32   C     C_2   0.508706 0.067981 0.509849 -0.119444
C33   C     C_2   0.485734 0.932774 0.492907 -0.117331
C34   C     C_2   0.510252 0.509145 0.081265 0.368453
Cu1   Cu    Cu3+1 0.515770 0.521810 0.644910 0.984803
Cu2   Cu    Cu3+1 0.484230 0.478190 0.355090 0.992123
H1    H     H_    0.785965 0.704876 0.561863 0.119359
H2    H     H_    0.781371 0.193112 0.197484 0.149374
H3    H     H_    0.678077 0.274089 0.222747 0.129769
H4    H     H_    0.227127 0.788948 0.811271 0.115711
H5    H     H_    0.310531 0.893362 0.780963 0.122712
H6    H     H_    0.336995 0.734355 0.772866 0.143675
H7    H     H_    0.895798 0.170496 0.613489 0.128497
H8    H     H_    0.981677 0.070433 0.524906 0.119993
H9    H     H_    0.865302 0.006342 0.482949 0.147145
H10   H     H_    0.091926 0.914730 0.835012 0.106866
H11   H     H_    0.029138 0.002459 0.734705 0.096062
H12   H     H_    0.213702 0.296580 0.436876 0.120421
H13   H     H_    0.149115 0.035127 0.786451 0.141835
H14   H     H_    0.509014 0.922479 0.871151 0.128406
H15   H     H_    0.462127 0.047929 0.811238 0.090098
H16   H     H_    0.567258 0.083438 0.934624 0.124662
H17   H     H_    0.533185 0.971850 0.181760 0.087309
H18   H     H_    0.466879 0.082465 0.119597 0.134779
H19   H     H_    0.424676 0.914904 0.068889 0.122291
H20   H     H_    0.352584 0.263819 0.845199 0.086237
H21   H     H_    0.466492 0.266443 0.803437 0.097006
H22   H     H_    0.370364 0.264907 0.672200 0.162946
H23   H     H_    0.070025 0.175491 0.402615 0.132600
H24   H     H_    0.512554 0.744394 0.186938 0.107924
H25   H     H_    0.622686 0.751601 0.131417 0.092727
H26   H     H_    0.614919 0.771951 0.315466 0.155813
H27   H     H_    0.928931 0.825163 0.593957 0.101611
H28   H     H_    0.442003 0.868005 0.393739 0.164930
H29   H     H_    0.552543 0.132496 0.609114 0.161910
H30   H     H_    0.604396 0.586630 0.917168 0.201901
H31   H     H_    0.399377 0.398427 0.077331 0.195660
H32   H     H_    0.683148 0.113127 0.226145 0.126744
N1    N     N_2   0.460520 0.445420 0.137370 -0.338018
N2    N     N_2   0.539480 0.554580 0.862630 -0.340768
O1    O     O_R   0.508410 0.332340 0.577400 -0.520446
O2    O     O_3   0.250527 0.741670 0.593043 -0.523977
O3    O     O_3   0.895583 0.140013 0.391778 -0.538119
O4    O     O_3   0.106508 0.862071 0.612245 -0.519050
O5    O     O_3   0.575557 0.967528 0.721723 -0.575605
O6    O     O_3   0.418662 0.033129 0.281646 -0.574341
O7    O     O_3   0.401141 0.442707 0.844926 -0.552884
O8    O     O_3   0.589337 0.581698 0.167265 -0.548162
O9    O     O_R   0.491590 0.667660 0.422600 -0.505733
O10   O     O_R   0.481780 0.295500 0.332650 -0.500713
O11   O     O_R   0.518220 0.704500 0.667350 -0.496586
O12   O     O_R   0.383570 0.518390 0.622380 -0.458171
O13   O     O_R   0.616430 0.481610 0.377620 -0.455298
O14   O     O_R   0.356940 0.481550 0.377630 -0.495515
O15   O     O_R   0.643060 0.518450 0.622370 -0.497028
O16   O     O_3   0.750338 0.260372 0.411873 -0.540222

loop_
_geom_bond_atom_site_label_1
_geom_bond_atom_site_label_2
_ccdc_geom_bond_type
C29   H27   S    
C11   C18   A    
C5    H1    S    
Cu1   Cu2   S    
C26   H19   S    
Cu1   O11   S    
C23   H23   S    
C4    O13   A    
C1    O1    A    
C6    H12   S    
C11   C14   A    
Cu2   O13   S    
C12   O9    A    
C30   O6    S    
C7    C9    A    
C25   H14   S    
C5    C16   A    
C22   H8    S    
Cu1   N2    S    
C20   O16   S    
C26   O6    S    
C31   C33   D    
C28   O8    S    
C28   H25   S    
C2    C34   S    
Cu1   O1    S    
C4    C7    S    
C26   H18   S    
Cu1   O12   S    
C28   H24   S    
C13   C19   A    
C21   O2    S    
C18   C23   A    
C3    C8    S    
C27   H21   S    
C5    C7    A    
C20   H3    S    
C27   H20   S    
C6    C8    A    
C4    O15   A    
C16   C29   A    
C27   H22   S    
Cu2   O9    S    
H31   N1    S    
C25   H15   S    
C9    O16   S    
C20   H2    S    
C31   O5    S    
C22   H7    S    
C3    O12   A    
C17   C23   A    
C9    C11   A    
C34   N1    D    
C21   H5    S    
C18   O3    S    
C13   C15   A    
C12   C31   S    
Cu2   O10   S    
C14   C16   A    
C19   C29   A    
C26   H17   S    
Cu2   N1    S    
C24   H13   S    
C15   C17   A    
C6    C17   A    
C24   H11   S    
C20   H32   S    
C19   O4    S    
C27   O7    S    
C10   C13   A    
C24   H10   S    
C32   C33   S    
C25   H16   S    
C2    O7    S    
C34   O8    S    
C30   C32   D    
Cu1   O15   S    
C24   O4    S    
H30   N2    S    
C21   H4    S    
Cu2   O14   S    
C33   H28   S    
C1    C30   S    
C12   O11   A    
C21   H6    S    
C22   H9    S    
C8    C10   A    
C3    O14   A    
C1    O10   A    
C14   C15   A    
C22   O3    S    
C25   O5    S    
C2    N2    D    
C10   O2    S    
C32   H29   S    
C28   H26   S    
