data_mof_unit_58247.cif
_audit_creation_date              2013-03-05T15:57:55-0500
_audit_creation_method            fapswitch 2.2
_symmetry_space_group_name_H-M    P1
_symmetry_Int_Tables_number       1
_space_group_crystal_system       triclinic
_cell_length_a                    15.187231
_cell_length_b                    15.313298
_cell_length_c                    17.285384
_cell_angle_alpha                 108.417473
_cell_angle_beta                  105.585216
_cell_angle_gamma                 109.573579
_cell_volume                      3263.11164248

loop_
_atom_site_label
_atom_site_type_symbol
_atom_site_description
_atom_site_fract_x
_atom_site_fract_y
_atom_site_fract_z
_atom_type_partial_charge
C1    C     C_R   0.078085 0.288981 0.081959 0.607311
C2    C     C_R   0.910825 0.723171 0.964348 0.565105
N1    N     N_R   0.055660 0.348550 0.045620 -0.146422
N2    N     N_R   0.944340 0.651450 0.954380 -0.136803
C3    C     C_R   0.938829 0.519910 0.748626 -0.088098
C4    C     C_R   0.060612 0.525218 0.263688 -0.169885
H1    H     H_    0.862305 0.496666 0.701648 0.145313
H2    H     H_    0.136720 0.563012 0.317317 0.150327
N3    N     N_R   0.960830 0.507850 0.823700 -0.091430
N4    N     N_R   0.039170 0.492150 0.176300 -0.083525
C5    C     C_R   0.751962 0.204361 0.811437 0.633722
C6    C     C_R   0.279206 0.782194 0.177732 0.691583
N5    N     N_R   0.811290 0.303410 0.871650 -0.088253
N6    N     N_R   0.188710 0.696590 0.128350 -0.061712
C7    C     C_R   0.266403 0.541213 0.956786 -0.065948
C8    C     C_R   0.698177 0.408388 0.994999 -0.081357
H3    H     H_    0.295428 0.586242 0.924216 0.213948
H4    H     H_    0.663678 0.350575 0.014982 0.186558
N7    N     N_R   0.205200 0.552990 0.997670 -0.083682
N8    N     N_R   0.794800 0.447010 0.002330 -0.093037
C9    C     C_R   0.774695 0.299809 0.736497 -0.131082
C10   C     C_R   0.265171 0.691723 0.255523 -0.194345
H5    H     H_    0.768924 0.324155 0.683851 0.163616
H6    H     H_    0.282004 0.664375 0.305510 0.154459
N9    N     N_R   0.814800 0.361830 0.823700 -0.099214
N10   N     N_R   0.185200 0.638170 0.176300 -0.082600
C11   C     C_R   0.247045 0.436775 0.023147 0.460272
C12   C     C_R   0.708201 0.503795 0.921430 0.568761
N11   N     N_R   0.201680 0.494570 0.045620 -0.105180
N12   N     N_R   0.798320 0.505430 0.954380 -0.121241
C13   C     C_R   0.109640 0.601633 0.825029 0.595318
C14   C     C_R   0.888965 0.438751 0.185847 0.629547
N13   N     N_R   0.068420 0.560530 0.871650 -0.090158
N14   N     N_R   0.931580 0.439470 0.128350 -0.135367
C15   C     C_R   0.915228 0.197757 0.985000 0.451620
C16   C     C_R   0.075245 0.800221 0.058837 0.492175
N15   N     N_R   0.948070 0.295860 0.997670 -0.120988
N16   N     N_R   0.051930 0.704140 0.002330 -0.102211
C17   C     C_R   0.993997 0.191678 0.040796 -0.140876
C18   C     C_R   0.992183 0.818553 0.032194 -0.145415
C19   C     C_R   0.030772 0.578810 0.748830 0.039292
C20   C     C_R   0.966944 0.493911 0.271172 0.088255
C21   C     C_R   0.738159 0.200094 0.727227 -0.108652
C22   C     C_R   0.323575 0.784689 0.259647 -0.072562
C23   C     C_R   0.292209 0.467277 0.971547 -0.014132
C24   C     C_R   0.644404 0.444835 0.946630 0.036228
C25   C     C_R   0.909243 0.933258 0.052476 0.489353
C26   C     C_R   0.083487 0.089877 0.064651 0.584329
C27   C     C_R   0.998949 0.922926 0.060631 -0.137709
C28   C     C_R   0.991834 0.098108 0.048183 -0.146671
C29   C     C_R   0.090009 0.008937 0.080126 -0.057658
C30   C     C_R   0.902805 0.018646 0.041284 -0.055124
C31   C     C_R   0.719941 0.944083 0.926803 0.440925
C32   C     C_R   0.245353 0.076454 0.221961 0.453628
Ni1   Ni    Ni4+2 0.119340 0.493420 0.109960 0.214607
Ni2   Ni    Ni4+2 0.880660 0.506580 0.890040 0.227234
Ni3   Ni    Ni4+2 0.872590 0.372590 0.000000 0.257039
Ni4   Ni    Ni4+2 0.127410 0.627410 0.000000 0.339212
C33   C     C_R   0.607685 0.017805 0.961515 0.014586
C34   C     C_R   0.406686 0.085567 0.216553 -0.039213
H7    H     H_    0.474569 0.579982 0.372885 0.248731
H8    H     H_    0.480973 0.342600 0.550905 0.268855
C35   C     C_R   0.489808 0.637256 0.275993 0.532767
C36   C     C_R   0.488954 0.291161 0.653897 0.404531
C37   C     C_R   0.484071 0.613334 0.188977 0.495069
C38   C     C_R   0.481037 0.307523 0.736328 0.506631
C39   C     C_R   0.464884 0.512182 0.132883 -0.317642
C40   C     C_R   0.468909 0.393732 0.781591 -0.183435
C41   C     C_R   0.452805 0.436786 0.166535 0.533915
C42   C     C_R   0.459981 0.461413 0.742535 0.470534
C43   C     C_R   0.453233 0.461234 0.252287 0.369245
C44   C     C_R   0.460570 0.439952 0.657402 0.317931
C45   C     C_R   0.472817 0.561150 0.306417 -0.607219
C46   C     C_R   0.477564 0.356852 0.615099 -0.422119
C47   C     C_R   0.553880 0.488615 0.034547 0.269990
C48   C     C_R   0.375723 0.412519 0.877772 0.271877
C49   C     C_R   0.552141 0.448122 0.948920 -0.085806
C50   C     C_R   0.377966 0.452933 0.963399 -0.169622
C51   C     C_R   0.464909 0.413736 0.870178 0.025697
C52   C     C_R   0.465066 0.485897 0.042070 -0.101142
C53   C     C_R   0.623896 0.944041 0.901765 0.207489
C54   C     C_R   0.349611 0.103633 0.266410 0.266019
C55   C     C_R   0.957378 0.502351 0.353762 -0.207779
C56   C     C_R   0.041653 0.595546 0.674268 -0.321579
C57   C     C_R   0.040702 0.690271 0.585317 0.526853
C58   C     C_R   0.970404 0.415807 0.446589 0.445014
C59   C     C_R   0.045026 0.684929 0.666053 0.166240
C60   C     C_R   0.920872 0.411676 0.364061 0.183123
C61   C     C_R   0.041857 0.515687 0.607705 0.400239
C62   C     C_R   0.011190 0.599563 0.428574 0.369668
C63   C     C_R   0.018310 0.512034 0.523078 -0.212382
C64   C     C_R   0.026621 0.602995 0.513348 -0.219945
C65   C     C_R   0.681157 0.111377 0.641506 0.025008
C66   C     C_R   0.387289 0.875299 0.343462 -0.023801
C67   C     C_R   0.405358 0.955173 0.494746 0.374287
C68   C     C_R   0.665501 0.031044 0.490534 0.359601
C69   C     C_R   0.343513 0.896557 0.403949 -0.166452
C70   C     C_R   0.726334 0.098189 0.581151 -0.202006
C71   C     C_R   0.492503 0.922400 0.369987 -0.013360
C72   C     C_R   0.576672 0.056964 0.614255 -0.086854
C73   C     C_R   0.557426 0.982421 0.460830 -0.043111
C74   C     C_R   0.512872 0.996120 0.523941 -0.043470
H9    H     H_    0.545043 0.072745 0.662954 0.182549
H10   H     H_    0.522328 0.906416 0.319784 0.212081
H11   H     H_    0.808681 0.142781 0.604482 0.202683
H12   H     H_    0.260559 0.859447 0.381051 0.201121
C75   C     C_R   0.686493 0.087750 0.049062 0.261350
C76   C     C_R   0.357656 0.033733 0.121674 0.411508
C77   C     C_R   0.781561 0.085845 0.074586 0.310966
C78   C     C_R   0.252811 0.003980 0.076703 0.333860
C79   C     C_R   0.800162 0.016904 0.013425 -0.322107
C80   C     C_R   0.196337 0.026220 0.126386 -0.227916
O1    O     O_3   0.160488 0.326675 0.162049 -0.635714
H13   H     H_    0.200414 0.402153 0.182826 0.321298
O2    O     O_3   0.820714 0.706535 0.903047 -0.666358
H14   H     H_    0.831210 0.772601 0.900902 0.354397
O3    O     O_3   0.734128 0.876170 0.862541 -0.656515
H15   H     H_    0.808402 0.900881 0.877893 0.311044
O4    O     O_3   0.195539 0.103843 0.274669 -0.627552
H16   H     H_    0.121176 0.074281 0.237823 0.344150
O5    O     O_3   0.513506 0.736905 0.330875 -0.692769
H17   H     H_    0.514907 0.741951 0.389877 0.328289
O6    O     O_3   0.508010 0.211033 0.612551 -0.754735
H18   H     H_    0.520938 0.216119 0.560543 0.374955
O7    O     O_3   0.499906 0.691840 0.162853 -0.672899
H19   H     H_    0.494828 0.666760 0.100900 0.334002
O8    O     O_3   0.486089 0.242125 0.775299 -0.679926
H20   H     H_    0.489100 0.182320 0.734503 0.377333
O9    O     O_3   0.441549 0.339117 0.118629 -0.634499
H21   H     H_    0.439090 0.328296 0.058538 0.340637
O10   O     O_3   0.455103 0.551119 0.786974 -0.620429
H22   H     H_    0.481973 0.572119 0.852223 0.330831
N17   N     N_R   0.433382 0.384387 0.284918 0.294893
O11   O     O_R   0.466529 0.412008 0.370736 -0.277920
O12   O     O_R   0.373371 0.287104 0.229267 -0.296637
N18   N     N_R   0.447283 0.504339 0.614589 0.291442
O13   O     O_R   0.392037 0.551483 0.629215 -0.227567
O14   O     O_R   0.484306 0.510424 0.555709 -0.305621
N19   N     N_R   0.648548 0.540401 0.114351 0.243470
O15   O     O_R   0.662039 0.500592 0.170134 -0.316007
O16   O     O_R   0.723415 0.625069 0.128703 -0.326229
N20   N     N_R   0.282128 0.366231 0.798281 0.251539
O17   O     O_R   0.246207 0.270802 0.739689 -0.289932
O18   O     O_R   0.240662 0.422435 0.778417 -0.326147
N21   N     N_R   0.050306 0.692538 0.417962 0.275105
O19   O     O_R   0.145545 0.762622 0.467823 -0.300819
O20   O     O_R   0.993642 0.703825 0.354253 -0.306897
N22   N     N_R   0.064211 0.438076 0.625883 0.284297
O21   O     O_R   0.137550 0.421404 0.609909 -0.242018
O22   O     O_R   0.003935 0.375560 0.646772 -0.335980
N23   N     N_R   0.816387 0.333464 0.308172 0.310800
O23   O     O_R   0.788926 0.238293 0.295743 -0.226799
O24   O     O_R   0.745415 0.363556 0.294751 -0.217540
N24   N     N_R   0.057450 0.771395 0.740165 0.258937
O25   O     O_R   0.126793 0.864366 0.764366 -0.241778
O26   O     O_R   0.998489 0.758225 0.782252 -0.367483
O27   O     O_3   0.035574 0.772646 0.570864 -0.623822
H23   H     H_    0.009221 0.807234 0.610897 0.360762
O28   O     O_3   0.953498 0.325661 0.455020 -0.608004
H24   H     H_    0.950906 0.275283 0.400587 0.390576
N25   N     N_R   0.544605 0.871990 0.812995 0.289592
O29   O     O_R   0.495045 0.903665 0.763575 -0.278870
O30   O     O_R   0.525643 0.775329 0.779208 -0.227076
N26   N     N_R   0.398720 0.155612 0.362872 0.278728
O31   O     O_R   0.487518 0.237985 0.404763 -0.310658
O32   O     O_R   0.352136 0.124219 0.409212 -0.326911
N27   N     N_R   0.357688 0.970112 0.555846 0.252785
O33   O     O_R   0.285940 0.998961 0.540357 -0.243094
O34   O     O_R   0.372151 0.937326 0.616775 -0.289305
N28   N     N_R   0.714072 0.018434 0.429855 0.253605
O35   O     O_R   0.789455 0.098724 0.438497 -0.257379
O36   O     O_R   0.696610 0.926266 0.377671 -0.290705
N29   N     N_R   0.511103 0.020598 0.933441 0.292056
O37   O     O_R   0.425091 0.936808 0.900648 -0.227741
O38   O     O_R   0.508591 0.104256 0.932134 -0.300608
N30   N     N_R   0.515233 0.122948 0.261725 0.280777
O39   O     O_R   0.577577 0.184914 0.242193 -0.226613
O40   O     O_R   0.552500 0.099779 0.324998 -0.361311
O41   O     O_3   0.672351 0.155753 0.113024 -0.618557
H25   H     H_    0.601021 0.145634 0.089502 0.391654
O42   O     O_3   0.409857 0.009948 0.070594 -0.625811
H26   H     H_    0.471858 0.009570 0.107676 0.351118
N31   N     N_R   0.859538 0.153356 0.164076 0.292167
O43   O     O_R   0.891460 0.114606 0.216136 -0.321035
O44   O     O_R   0.910917 0.251386 0.187625 -0.426401
N32   N     N_R   0.203426 0.947458 0.980400 0.284365
O45   O     O_R   0.141747 0.971121 0.932708 -0.322848
O46   O     O_R   0.221736 0.872755 0.939709 -0.250149
O47   O     O_3   0.690349 0.131270 0.829203 -0.698715
H27   H     H_    0.658657 0.063322 0.776178 0.345418
O48   O     O_3   0.325061 0.844554 0.143428 -0.738713
H28   H     H_    0.396745 0.892548 0.188645 0.307779
O49   O     O_3   0.245432 0.358733 0.046168 -0.765108
H29   H     H_    0.266971 0.316156 0.006566 0.348080
O50   O     O_3   0.675786 0.522371 0.849031 -0.742551
H30   H     H_    0.724030 0.520954 0.820286 0.334309
O51   O     O_3   0.211392 0.672124 0.859057 -0.700611
H31   H     H_    0.221400 0.695489 0.813358 0.366378
O52   O     O_3   0.787883 0.377257 0.162256 -0.644083
H32   H     H_    0.763493 0.319770 0.102573 0.321299
O53   O     O_3   0.842249 0.116681 0.904359 -0.736850
H33   H     H_    0.867965 0.065330 0.886811 0.324807
O54   O     O_3   0.146769 0.850850 0.146111 -0.787459
H34   H     H_    0.117981 0.883925 0.184745 0.340508
O55   O     O_3   0.828881 0.856916 0.053276 -0.671600
H35   H     H_    0.779849 0.882423 0.065419 0.352711
O56   O     O_3   0.167637 0.157273 0.060940 -0.634074
H36   H     H_    0.141672 0.162664 0.004403 0.335079

loop_
_geom_bond_atom_site_label_1
_geom_bond_atom_site_label_2
_geom_bond_distance
_ccdc_geom_bond_type
C61   N22   1.440656 S    
C38   C40   1.405904 A    
O54   H34   0.992557 S    
C35   C37   1.401476 A    
N13   Ni4   1.911825 S    
C37   O7    1.383713 S    
C11   N11   1.320600 A    
C5    N5    1.333633 A    
O53   H33   0.990760 S    
C2    N2    1.340565 A    
C56   C59   1.405697 A    
C32   C54   1.404760 A    
N10   Ni1   1.876369 S    
C50   C52   1.416375 A    
N25   O29   1.300952 A    
O6    H18   0.990775 S    
C25   C27   1.398684 A    
N8    N12   1.396578 A    
O55   H35   0.989038 S    
C7    N7    1.334419 A    
C12   C24   1.353824 A    
C29   C80   1.484313 S    
C70   H11   1.084323 S    
C1    O1    1.376952 S    
C76   O42   1.380982 S    
N26   O31   1.300953 A    
C15   N15   1.336017 A    
C48   C50   1.398150 A    
O1    H13   0.991806 S    
C62   N21   1.438913 S    
C1    N1    1.340855 A    
C58   C63   1.407996 A    
N31   O44   1.298619 A    
N9    Ni2   1.876367 S    
C31   O3    1.382247 S    
C44   N18   1.440361 S    
N5    Ni3   1.911885 S    
N28   O35   1.301375 A    
O2    H14   0.984437 S    
C12   O50   1.370080 S    
C38   O8    1.382954 S    
C31   C53   1.405337 A    
C41   C43   1.407063 A    
C9    N9    1.326480 A    
C77   C79   1.402520 A    
C35   O5    1.375453 S    
C9    C21   1.376626 A    
C34   C54   1.407834 A    
C26   C29   1.376639 A    
C10   C22   1.369067 A    
C37   C39   1.421648 A    
C68   C70   1.390132 A    
N14   Ni3   1.911823 S    
C28   C30   1.429111 A    
N23   O23   1.300297 A    
C48   C51   1.390100 A    
C5    C21   1.390595 A    
C23   C50   1.426548 S    
C11   O49   1.368681 S    
C16   O54   1.368564 S    
C61   C63   1.387299 A    
C47   C52   1.377708 A    
N24   O26   1.301359 A    
C34   C76   1.414004 A    
C67   C74   1.408996 A    
C11   C23   1.364371 A    
C40   C51   1.486064 S    
C26   C28   1.400633 A    
C55   C60   1.400181 A    
O52   H32   0.989330 S    
C68   N28   1.436913 S    
C68   C73   1.413801 A    
N2    Ni2   1.875943 S    
N3    N13   1.405081 A    
C75   C77   1.405053 A    
N5    N9    1.396579 A    
O51   H31   0.990836 S    
C57   O27   1.383533 S    
N25   O30   1.301074 A    
C57   C64   1.412255 A    
N21   O19   1.300891 A    
N29   O38   1.301432 A    
N7    Ni4   1.895985 S    
N6    Ni4   1.911884 S    
N19   O15   1.300883 A    
C32   O4    1.385586 S    
C59   N24   1.435546 S    
C13   N13   1.328561 A    
C25   O55   1.385534 S    
C57   C59   1.408931 A    
O56   H36   0.991499 S    
C73   C74   1.427959 A    
C16   C18   1.374407 A    
N22   O21   1.301250 A    
N27   O34   1.301221 A    
C8    C24   1.382343 A    
N27   O33   1.301819 A    
C3    H1    1.081600 S    
C15   O53   1.366439 S    
C4    H2    1.080433 S    
O50   H30   0.991801 S    
N11   Ni1   1.883054 S    
C30   C79   1.491082 S    
C27   C29   1.417585 A    
O42   H26   0.989572 S    
C19   C56   1.431384 S    
N12   Ni2   1.883055 S    
C6    O48   1.372071 S    
C72   H9    1.079008 S    
C33   C75   1.418932 A    
O48   H28   0.989924 S    
O27   H23   0.989354 S    
C39   C41   1.429984 A    
C14   N14   1.324578 A    
C31   C79   1.422737 A    
C15   C17   1.371609 A    
N31   O43   1.301022 A    
C3    N3    1.337732 A    
C2    O2    1.370106 S    
C62   C64   1.401255 A    
O28   H24   0.991508 S    
C8    N8    1.338062 A    
C72   C74   1.381031 A    
O5    H17   0.991974 S    
C49   C51   1.412712 A    
C32   C80   1.423941 A    
N4    N14   1.405082 A    
N3    Ni2   1.883144 S    
N16   Ni4   1.895705 S    
N6    N10   1.396579 A    
N4    Ni1   1.883146 S    
C47   C49   1.401411 A    
C65   C72   1.377920 A    
N24   O25   1.301272 A    
C69   H12   1.084908 S    
C44   C46   1.397899 A    
N30   O39   1.297343 A    
C71   C73   1.389808 A    
C6    N6    1.338421 A    
C9    H5    1.080838 S    
C10   N10   1.323711 A    
N17   O11   1.300919 A    
C34   N30   1.431294 S    
C60   N23   1.434402 S    
C10   H6    1.081200 S    
C56   C61   1.390932 A    
C7    C23   1.388063 A    
N32   O46   1.300176 A    
O10   H22   0.988723 S    
N7    N11   1.396575 A    
C13   O51   1.375474 S    
N20   O18   1.299605 A    
N18   O14   1.301149 A    
C43   C45   1.394962 A    
O9    H21   0.986908 S    
C58   O28   1.379315 S    
C7    H3    1.077830 S    
C55   C62   1.398849 A    
C3    C19   1.383777 A    
C78   N32   1.437512 S    
C36   C46   1.404329 A    
C13   C19   1.368410 A    
C75   O41   1.379450 S    
C53   N25   1.438416 S    
C8    H4    1.075756 S    
C39   C52   1.493297 S    
C33   C53   1.410332 A    
N22   O22   1.301416 A    
N18   O13   1.301377 A    
C33   N29   1.435807 S    
C67   N27   1.435649 S    
C43   N17   1.437678 S    
C24   C49   1.429438 S    
O4    H16   0.987310 S    
C67   C69   1.379829 A    
C25   C30   1.411409 A    
C14   O52   1.364594 S    
C36   O6    1.376612 S    
C35   C45   1.400024 A    
N1    Ni1   1.875944 S    
C66   C69   1.394483 A    
H7    C45   1.083027 S    
N26   O32   1.301216 A    
C20   C55   1.443351 S    
N8    Ni3   1.895985 S    
C6    C22   1.377051 A    
C47   N19   1.441518 S    
O3    H15   0.987787 S    
C16   N16   1.342091 A    
N19   O16   1.301085 A    
C77   N31   1.431396 S    
C18   C27   1.474153 S    
O7    H19   0.988000 S    
N28   O36   1.300860 A    
C66   C71   1.381631 A    
N21   O20   1.301492 A    
C26   O56   1.380109 S    
C12   N12   1.321890 A    
C42   O10   1.383682 S    
C21   C65   1.428754 S    
C76   C78   1.404386 A    
C71   H10   1.081390 S    
C58   C60   1.392609 A    
N23   O24   1.301522 A    
O47   H27   0.989529 S    
C78   C80   1.412734 A    
C22   C66   1.427372 S    
C4    N4    1.336427 A    
C1    C17   1.387153 A    
N29   O37   1.301358 A    
O41   H25   0.986862 S    
C54   N26   1.437144 S    
C2    C18   1.401861 A    
C17   C28   1.468602 S    
N1    N15   1.405081 A    
C41   O9    1.386314 S    
O49   H29   0.990913 S    
C4    C20   1.396917 A    
N17   O12   1.299591 A    
C40   C42   1.426671 A    
C14   C20   1.376693 A    
N20   O17   1.300998 A    
H8    C46   1.080276 S    
C42   C44   1.406069 A    
C5    O47   1.375680 S    
N32   O45   1.299851 A    
N2    N16   1.405082 A    
C65   C70   1.394370 A    
N15   Ni3   1.895704 S    
C63   C64   1.423397 A    
O8    H20   0.987619 S    
C36   C38   1.412132 A    
N30   O40   1.299830 A    
C48   N20   1.439066 S    
