data_mof_unit_36280.cif
_audit_creation_date              2012-12-11T14:10:39-0500
_audit_creation_method            fapswitch 2.2
_symmetry_space_group_name_H-M    P1
_symmetry_Int_Tables_number       1
_space_group_crystal_system       triclinic
_cell_length_a                    20.030363
_cell_length_b                    17.166146
_cell_length_c                    15.855182
_cell_angle_alpha                 89.999734
_cell_angle_beta                  52.779405
_cell_angle_gamma                 89.999543
_cell_volume                      4341.26612993

loop_
_atom_site_label
_atom_site_type_symbol
_atom_type_description
_atom_site_fract_x
_atom_site_fract_y
_atom_site_fract_z
_atom_type_partial_charge
C1    C     C_R   0.338838 0.173049 0.048844 0.632561
C2    C     C_R   0.626718 0.804068 0.003700 0.671025
C3    C     C_R   0.658191 0.176628 0.958420 0.633083
C4    C     C_R   0.369635 0.805248 0.000384 0.662731
C5    C     C_R   0.841806 0.676625 0.041583 0.633082
C6    C     C_R   0.130365 0.305248 0.999615 0.662759
C7    C     C_R   0.161160 0.673050 0.951160 0.632533
C8    C     C_R   0.873284 0.304068 0.996296 0.671019
C9    C     C_3   0.297776 0.235889 0.555098 -0.281606
C10   C     C_3   0.706095 0.754154 0.444265 -0.343571
C11   C     C_3   0.751206 0.223839 0.427348 -0.290969
C12   C     C_3   0.221623 0.799551 0.584344 -0.264875
C13   C     C_3   0.748775 0.723800 0.572650 -0.290958
C14   C     C_3   0.278406 0.299587 0.415651 -0.264752
C15   C     C_3   0.202215 0.735909 0.444906 -0.281637
C16   C     C_3   0.793887 0.254145 0.555738 -0.343572
C17   C     C_2   0.259422 0.701380 0.990756 0.632997
C18   C     C_2   0.806173 0.255009 0.919718 0.695251
C19   C     C_2   0.741713 0.702924 0.003887 0.652669
C20   C     C_2   0.191717 0.254234 0.084162 0.704087
C21   C     C_2   0.758287 0.202927 0.996111 0.652651
C22   C     C_2   0.308280 0.754237 0.915843 0.704097
C23   C     C_2   0.240574 0.201377 0.009251 0.632998
C24   C     C_2   0.693830 0.755008 0.080276 0.695247
C25   C     C_R   0.374481 0.808523 0.218504 0.052363
C26   C     C_R   0.621016 0.193198 0.781326 0.141530
C27   C     C_R   0.601658 0.800187 0.792170 0.006286
C28   C     C_R   0.407474 0.202071 0.201064 0.152384
C29   C     C_R   0.898347 0.300186 0.207828 0.006275
C30   C     C_R   0.092523 0.702071 0.798937 0.152365
C31   C     C_R   0.125523 0.308524 0.781496 0.052407
C32   C     C_R   0.878968 0.693190 0.218675 0.141588
C33   C     C_R   0.364089 0.889656 0.900915 0.805172
C34   C     C_R   0.665063 0.090254 0.056349 0.753758
C35   C     C_R   0.638025 0.890284 0.096555 0.769585
C36   C     C_R   0.331584 0.087339 0.950619 0.730037
C37   C     C_R   0.861983 0.390283 0.903434 0.769601
C38   C     C_R   0.168414 0.587341 0.049388 0.730054
C39   C     C_R   0.135910 0.389655 0.099087 0.805163
C40   C     C_R   0.834936 0.590251 0.943653 0.753745
C41   C     C_R   0.410735 0.111160 0.298346 0.907504
C42   C     C_R   0.595378 0.891642 0.697572 0.886478
C43   C     C_R   0.623343 0.095065 0.685788 0.792846
C44   C     C_R   0.370177 0.906749 0.315029 0.799900
C45   C     C_R   0.876630 0.595049 0.314213 0.792756
C46   C     C_R   0.129835 0.406755 0.684970 0.799872
C47   C     C_R   0.089261 0.611160 0.701656 0.907538
C48   C     C_R   0.904632 0.391638 0.302423 0.886527
C49   C     C_R   0.290071 0.148582 0.019442 -0.406003
C50   C     C_R   0.658645 0.816212 0.057610 -0.460869
C51   C     C_R   0.705443 0.152389 0.990030 -0.440375
C52   C     C_R   0.340773 0.816233 0.942331 -0.479395
C53   C     C_R   0.794555 0.652386 0.009972 -0.440360
C54   C     C_R   0.159224 0.316231 0.057672 -0.479416
C55   C     C_R   0.209926 0.648585 0.980566 -0.405980
C56   C     C_R   0.841361 0.316211 0.942380 -0.460888
C57   C     C_R   0.333933 0.836374 0.321101 -0.038285
C58   C     C_R   0.657198 0.165636 0.680270 -0.103412
C59   C     C_R   0.614927 0.815385 0.697812 -0.059097
C60   C     C_R   0.396384 0.188884 0.294621 -0.116664
C61   C     C_R   0.885085 0.315382 0.302182 -0.059149
C62   C     C_R   0.103609 0.688884 0.705381 -0.116707
C63   C     C_R   0.166080 0.336381 0.678899 -0.038245
C64   C     C_R   0.842766 0.665616 0.319730 -0.103320
C65   C     C_3   0.274072 0.191663 0.492254 0.663286
C66   C     C_3   0.729209 0.815392 0.493511 0.702818
C67   C     C_3   0.774688 0.162814 0.476469 0.707889
C68   C     C_3   0.198519 0.843840 0.520873 0.721077
C69   C     C_3   0.725268 0.662796 0.523534 0.707892
C70   C     C_3   0.301514 0.343843 0.479138 0.721100
C71   C     C_3   0.225913 0.691650 0.507734 0.663296
C72   C     C_3   0.770799 0.315404 0.506486 0.702917
C73   C     C_3   0.650380 0.712031 0.551557 0.638544
C74   C     C_3   0.366054 0.280530 0.453410 0.646382
C75   C     C_3   0.289231 0.754564 0.484215 0.616581
C76   C     C_3   0.695973 0.266544 0.534010 0.657818
C77   C     C_3   0.210778 0.254603 0.515770 0.616576
C78   C     C_3   0.804018 0.766501 0.465986 0.657809
C79   C     C_3   0.849592 0.212019 0.448448 0.638488
C80   C     C_3   0.133957 0.780554 0.546602 0.646385
C81   C     C_3   0.672979 0.772849 0.600892 -0.402479
C82   C     C_3   0.342785 0.235928 0.390532 -0.362284
C83   C     C_3   0.267168 0.798763 0.420239 -0.382152
C84   C     C_3   0.718454 0.205449 0.583297 -0.361289
C85   C     C_3   0.232846 0.298770 0.579762 -0.382185
C86   C     C_3   0.781512 0.705427 0.416705 -0.361281
C87   C     C_3   0.827018 0.272857 0.399107 -0.402501
C88   C     C_3   0.157221 0.735920 0.609465 -0.362264
N1    N     N_R   0.408680 0.130810 0.995780 -0.164187
N2    N     N_R   0.591320 0.869190 0.004220 -0.154332
N3    N     N_R   0.591320 0.130810 0.004220 -0.165745
N4    N     N_R   0.408680 0.869190 0.995780 -0.158712
N5    N     N_R   0.908680 0.630810 0.995780 -0.165745
N6    N     N_R   0.091320 0.369190 0.004220 -0.158715
N7    N     N_R   0.091320 0.630810 0.004220 -0.164173
N8    N     N_R   0.908680 0.369190 0.995780 -0.154331
N9    N     N_R   0.421410 0.867210 0.153620 -0.115134
N10   N     N_R   0.578590 0.132790 0.846380 -0.120772
N11   N     N_R   0.578590 0.867210 0.846380 -0.116795
N12   N     N_R   0.421410 0.132790 0.153620 -0.114869
N13   N     N_R   0.921410 0.367210 0.153620 -0.116795
N14   N     N_R   0.078590 0.632790 0.846380 -0.114861
N15   N     N_R   0.078590 0.367210 0.846380 -0.115138
N16   N     N_R   0.921410 0.632790 0.153620 -0.120781
N17   N     N_R   0.403840 0.921910 0.935760 -0.172183
N18   N     N_R   0.596160 0.078090 0.064240 -0.170338
N19   N     N_R   0.596160 0.921910 0.064240 -0.168759
N20   N     N_R   0.403840 0.078090 0.935760 -0.160964
N21   N     N_R   0.903840 0.421910 0.935760 -0.168764
N22   N     N_R   0.096160 0.578090 0.064240 -0.160960
N23   N     N_R   0.096160 0.421910 0.064240 -0.172192
N24   N     N_R   0.903840 0.578090 0.935760 -0.170337
N25   N     N_R   0.426250 0.076100 0.213650 -0.144709
N26   N     N_R   0.573750 0.923900 0.786350 -0.153483
N27   N     N_R   0.573750 0.076100 0.786350 -0.151433
N28   N     N_R   0.426250 0.923900 0.213650 -0.145662
N29   N     N_R   0.926250 0.576100 0.213650 -0.151432
N30   N     N_R   0.073750 0.423900 0.786350 -0.145664
N31   N     N_R   0.073750 0.576100 0.786350 -0.144708
N32   N     N_R   0.926250 0.423900 0.213650 -0.153487
Ni1   Ni    Ni4+2 0.500000 0.131570 0.000000 0.176848
Ni2   Ni    Ni4+2 0.500000 0.868430 0.000000 0.197376
Ni3   Ni    Ni4+2 0.000000 0.631570 0.000000 0.176846
Ni4   Ni    Ni4+2 1.000000 0.368430 0.000000 0.197373
Ni5   Ni    Ni4+2 0.488900 0.000000 0.862310 0.296565
Ni6   Ni    Ni4+2 0.511100 0.000000 0.137690 0.298384
Ni7   Ni    Ni4+2 0.988900 0.500000 0.862310 0.298391
Ni8   Ni    Ni4+2 0.011100 0.500000 0.137690 0.296564
F1    F     F_    0.329410 0.240548 0.098420 -0.705640
F2    F     F_    0.602637 0.732646 0.997068 -0.737665
F3    F     F_    0.665544 0.246235 0.914708 -0.712955
F4    F     F_    0.383908 0.734187 0.021542 -0.734445
F5    F     F_    0.834453 0.746235 0.085293 -0.712985
F6    F     F_    0.116099 0.234189 0.978443 -0.734432
F7    F     F_    0.170593 0.740545 0.901574 -0.705661
F8    F     F_    0.897362 0.232646 0.002934 -0.737663
C89   C     C_3   0.396316 0.724835 0.182231 -0.357952
C90   C     C_3   0.424641 0.676184 0.236392 -0.218518
C91   C     C_3   0.462116 0.598441 0.179786 -0.800520
H1    H     H_    0.415241 0.564628 0.178891 0.248549
H2    H     H_    0.518723 0.607752 0.097090 0.295071
H3    H     H_    0.480339 0.563927 0.222189 0.279934
H4    H     H_    0.471957 0.708835 0.237718 0.247600
H5    H     H_    0.370263 0.662408 0.317796 0.265701
H6    H     H_    0.345343 0.695632 0.186874 0.245938
H7    H     H_    0.450714 0.726397 0.098537 0.270442
C92   C     C_3   0.591664 0.277041 0.810350 -0.300883
C93   C     C_3   0.510143 0.290429 0.823333 -0.331226
C94   C     C_3   0.491609 0.377094 0.827261 -0.699500
H8    H     H_    0.486200 0.405224 0.894291 0.231623
H9    H     H_    0.542275 0.405919 0.751961 0.304573
H10   H     H_    0.431440 0.384770 0.838996 0.250767
H11   H     H_    0.512448 0.262342 0.758636 0.261529
H12   H     H_    0.457612 0.264001 0.898393 0.211290
H13   H     H_    0.579191 0.294726 0.885076 0.229580
H14   H     H_    0.641084 0.316306 0.747938 0.221962
C95   C     C_3   0.577256 0.722027 0.846745 -0.345691
C96   C     C_3   0.541081 0.662591 0.812033 -0.187562
C97   C     C_3   0.506812 0.590944 0.883890 -0.790159
H15   H     H_    0.558243 0.560148 0.878094 0.255379
H16   H     H_    0.457831 0.607204 0.967730 0.301019
H17   H     H_    0.478673 0.550594 0.858603 0.259575
H18   H     H_    0.490313 0.689656 0.812800 0.253204
H19   H     H_    0.591202 0.641665 0.731650 0.248346
H20   H     H_    0.630570 0.696024 0.839821 0.250335
H21   H     H_    0.528275 0.733722 0.930506 0.269255
C98   C     C_3   0.448813 0.275002 0.134555 -0.373172
C99   C     C_3   0.500627 0.320994 0.159932 -0.269925
C100  C     C_3   0.542076 0.392170 0.088305 -0.802120
H22   H     H_    0.587214 0.374379 0.004280 0.298569
H23   H     H_    0.493905 0.430835 0.096710 0.241806
H24   H     H_    0.576571 0.425384 0.111025 0.268165
H25   H     H_    0.459485 0.342006 0.242872 0.251982
H26   H     H_    0.549809 0.282819 0.149933 0.230734
H27   H     H_    0.491216 0.257116 0.050709 0.210627
H28   H     H_    0.402491 0.313852 0.140369 0.240670
C101  C     C_3   0.922749 0.222027 0.153251 -0.345689
C102  C     C_3   0.958917 0.162587 0.187970 -0.187569
C103  C     C_3   0.993196 0.090945 0.116105 -0.790148
H29   H     H_    0.941771 0.060147 0.121891 0.255383
H30   H     H_    0.042180 0.107209 0.032268 0.301021
H31   H     H_    0.021335 0.050596 0.141393 0.259571
H32   H     H_    0.009678 0.189651 0.187217 0.253190
H33   H     H_    0.908788 0.141658 0.268348 0.248377
H34   H     H_    0.869435 0.196026 0.160173 0.250345
H35   H     H_    0.971732 0.233722 0.069491 0.269247
C104  C     C_3   0.051178 0.775001 0.865450 -0.373224
C105  C     C_3   0.999384 0.821004 0.840052 -0.269769
C106  C     C_3   0.957914 0.892172 0.911700 -0.802337
H36   H     H_    0.912694 0.874367 0.995698 0.298656
H37   H     H_    0.006055 0.930793 0.903415 0.241857
H38   H     H_    0.923507 0.925438 0.888904 0.268162
H39   H     H_    0.040549 0.842027 0.757116 0.251986
H40   H     H_    0.950215 0.782833 0.850010 0.230739
H41   H     H_    0.008763 0.757117 0.949295 0.210651
H42   H     H_    0.097496 0.813848 0.859649 0.240683
C107  C     C_3   0.103676 0.224836 0.817764 -0.357943
C108  C     C_3   0.075339 0.176204 0.763602 -0.218616
C109  C     C_3   0.037869 0.098454 0.820187 -0.800359
H43   H     H_    0.084751 0.064626 0.821051 0.248568
H44   H     H_    0.981272 0.107755 0.902893 0.295044
H45   H     H_    0.019630 0.063958 0.777788 0.279913
H46   H     H_    0.028018 0.208866 0.762297 0.247566
H47   H     H_    0.129710 0.162439 0.682188 0.265709
H48   H     H_    0.154643 0.195618 0.813120 0.245917
H49   H     H_    0.049280 0.226396 0.901459 0.270432
C110  C     C_3   0.908317 0.777036 0.189667 -0.300875
C111  C     C_3   0.989850 0.790415 0.176656 -0.331456
C112  C     C_3   0.008340 0.877070 0.172862 -0.699493
H50   H     H_    0.013675 0.905271 0.105933 0.231630
H51   H     H_    0.957689 0.905815 0.248226 0.304707
H52   H     H_    0.068532 0.884746 0.161068 0.250739
H53   H     H_    0.987585 0.762263 0.241283 0.261493
H54   H     H_    0.042381 0.764057 0.101542 0.211380
H55   H     H_    0.920771 0.794741 0.114960 0.229620
H56   H     H_    0.858901 0.816293 0.252099 0.221962
F9    F     F_    0.370439 0.915733 0.816135 -0.630866
F10   F     F_    0.681380 0.058313 0.120066 -0.614970
F11   F     F_    0.639547 0.919081 0.174534 -0.633323
F12   F     F_    0.311003 0.052281 0.892836 -0.641624
F13   F     F_    0.860472 0.419076 0.825443 -0.633298
F14   F     F_    0.188993 0.552283 0.107173 -0.641627
F15   F     F_    0.129562 0.415732 0.183865 -0.630825
F16   F     F_    0.818621 0.558309 0.879934 -0.614978
F17   F     F_    0.430325 0.080411 0.359434 -0.665828
F18   F     F_    0.574149 0.921121 0.637674 -0.621253
F19   F     F_    0.626389 0.058115 0.608437 -0.613915
F20   F     F_    0.353841 0.950970 0.395637 -0.645237
F21   F     F_    0.873547 0.558077 0.391577 -0.613902
F22   F     F_    0.146195 0.450989 0.604357 -0.645231
F23   F     F_    0.069664 0.580412 0.640575 -0.665815
F24   F     F_    0.925870 0.421111 0.362317 -0.621202
F25   F     F_    0.570972 0.682913 0.596917 -0.656060
F26   F     F_    0.447204 0.297162 0.416154 -0.671419
F27   F     F_    0.369167 0.739263 0.452748 -0.675999
F28   F     F_    0.617876 0.297716 0.577444 -0.680188
F29   F     F_    0.130839 0.239333 0.547226 -0.676023
F30   F     F_    0.882132 0.797637 0.422538 -0.680249
F31   F     F_    0.928988 0.182877 0.403101 -0.656100
F32   F     F_    0.052810 0.797216 0.583865 -0.671395
F33   F     F_    0.256459 0.112766 0.501653 -0.606651
F34   F     F_    0.734518 0.894691 0.474797 -0.578646
F35   F     F_    0.780649 0.083374 0.458604 -0.582396
F36   F     F_    0.183061 0.922941 0.526867 -0.593692
F37   F     F_    0.719282 0.583353 0.541396 -0.582381
F38   F     F_    0.316992 0.422939 0.473161 -0.593691
F39   F     F_    0.243503 0.612748 0.498320 -0.606683
F40   F     F_    0.765517 0.394699 0.525204 -0.578593
C113  C     C_3   0.308998 0.197727 0.633231 -0.211089
C114  C     C_3   0.396633 0.164084 0.580099 -0.342094
C115  C     C_3   0.405259 0.129384 0.661611 -0.712086
H57   H     H_    0.400579 0.175878 0.713664 0.290186
H58   H     H_    0.355394 0.085521 0.710556 0.313131
H59   H     H_    0.467159 0.100427 0.620695 0.258177
H60   H     H_    0.407989 0.117532 0.524419 0.277172
H61   H     H_    0.444598 0.210230 0.536513 0.269879
H62   H     H_    0.295743 0.241741 0.692990 0.228191
H63   H     H_    0.264246 0.148526 0.671959 0.199812
C116  C     C_3   0.676487 0.773952 0.377516 -0.147706
C117  C     C_3   0.586293 0.806221 0.447950 -0.286134
C118  C     C_3   0.567152 0.858529 0.387667 -0.552388
H64   H     H_    0.614985 0.905281 0.346294 0.296929
H65   H     H_    0.564401 0.823762 0.330971 0.302620
H66   H     H_    0.505416 0.886755 0.444060 0.216457
H67   H     H_    0.540710 0.757281 0.483513 0.268879
H68   H     H_    0.576020 0.841155 0.513466 0.280673
H69   H     H_    0.720136 0.817327 0.316553 0.231096
H70   H     H_    0.678515 0.720375 0.336802 0.242175
C119  C     C_3   0.724978 0.200604 0.357855 -0.211335
C120  C     C_3   0.634283 0.172162 0.421156 -0.351728
C121  C     C_3   0.616254 0.139458 0.347199 -0.595631
H71   H     H_    0.618623 0.186688 0.297597 0.295973
H72   H     H_    0.662545 0.093586 0.295403 0.304964
H73   H     H_    0.553220 0.112580 0.393972 0.244961
H74   H     H_    0.623335 0.125523 0.476440 0.285619
H75   H     H_    0.590486 0.220942 0.467407 0.263802
H76   H     H_    0.733610 0.250922 0.308096 0.216056
H77   H     H_    0.765489 0.151366 0.307606 0.208521
C122  C     C_3   0.236519 0.840445 0.657227 -0.249999
C123  C     C_3   0.310539 0.897125 0.596934 -0.290616
C124  C     C_3   0.342025 0.917322 0.660438 -0.644856
H78   H     H_    0.290495 0.942842 0.738027 0.289598
H79   H     H_    0.366551 0.863985 0.672670 0.329313
H80   H     H_    0.393876 0.960202 0.615952 0.248278
H81   H     H_    0.363364 0.871544 0.520728 0.272687
H82   H     H_    0.290055 0.951842 0.581400 0.306353
H83   H     H_    0.180449 0.875622 0.715345 0.180186
H84   H     H_    0.247168 0.795310 0.698151 0.273058
C125  C     C_3   0.775000 0.700542 0.642139 -0.211346
C126  C     C_3   0.865690 0.672083 0.578834 -0.351747
C127  C     C_3   0.883718 0.639359 0.652783 -0.595661
H85   H     H_    0.881354 0.686579 0.702393 0.295975
H86   H     H_    0.837425 0.593486 0.704571 0.304948
H87   H     H_    0.946752 0.612478 0.606002 0.244957
H88   H     H_    0.876625 0.625450 0.523550 0.285661
H89   H     H_    0.909495 0.720858 0.532584 0.263778
H90   H     H_    0.766382 0.750855 0.691899 0.216062
H91   H     H_    0.734479 0.651309 0.692389 0.208512
C128  C     C_3   0.263548 0.340517 0.342751 -0.250241
C129  C     C_3   0.189534 0.397205 0.403029 -0.290405
C130  C     C_3   0.158068 0.417411 0.339504 -0.644933
H92   H     H_    0.209604 0.442931 0.261918 0.289532
H93   H     H_    0.133546 0.364076 0.327263 0.329329
H94   H     H_    0.106216 0.460292 0.383983 0.248301
H95   H     H_    0.136697 0.371626 0.479228 0.272700
H96   H     H_    0.210016 0.451916 0.418577 0.306367
H97   H     H_    0.319634 0.375692 0.284663 0.180195
H98   H     H_    0.252913 0.295401 0.301791 0.273032
C131  C     C_3   0.190972 0.697774 0.366779 -0.211080
C132  C     C_3   0.103333 0.664138 0.419924 -0.341969
C133  C     C_3   0.094686 0.629470 0.338414 -0.712220
H99   H     H_    0.099352 0.675983 0.286389 0.290149
H100  H     H_    0.144551 0.585612 0.289436 0.313179
H101  H     H_    0.032786 0.600513 0.379333 0.258135
H102  H     H_    0.091990 0.617568 0.475580 0.277118
H103  H     H_    0.055367 0.710280 0.463546 0.269893
H104  H     H_    0.204222 0.741800 0.307035 0.228180
H105  H     H_    0.235719 0.648571 0.328029 0.199795
C134  C     C_3   0.823495 0.273929 0.622490 -0.147832
C135  C     C_3   0.913721 0.306125 0.552043 -0.285614
C136  C     C_3   0.932865 0.358497 0.612278 -0.552269
H106  H     H_    0.885039 0.405257 0.653610 0.296823
H107  H     H_    0.935608 0.323773 0.669008 0.302573
H108  H     H_    0.994606 0.386707 0.555865 0.216448
H109  H     H_    0.959257 0.257132 0.516615 0.268785
H110  H     H_    0.924082 0.340984 0.486407 0.280548
H111  H     H_    0.779876 0.317340 0.683415 0.231092
H112  H     H_    0.821408 0.220358 0.663255 0.242132
F41   F     F_    0.238390 0.707288 0.090023 -0.684843
F42   F     F_    0.819804 0.252668 0.824812 -0.689691
F43   F     F_    0.756330 0.706636 0.907993 -0.684166
F44   F     F_    0.173893 0.251826 0.181701 -0.639055
F45   F     F_    0.743671 0.206640 0.092004 -0.684183
F46   F     F_    0.326104 0.751825 0.818304 -0.639088
F47   F     F_    0.261608 0.207285 0.909983 -0.684837
F48   F     F_    0.680195 0.752666 0.175185 -0.689698

loop_
_geom_bond_atom_site_label_1
_geom_bond_atom_site_label_2
_ccdc_geom_bond_type
N10   Ni1   S    
C95   C96   S    
C18   C21   D    
C127  H85   S    
C71   F39   S    
C8    C56   A    
C79   C87   S    
C48   N32   A    
N16   Ni3   S    
C132  H103  S    
C130  H92   S    
C124  H80   S    
C27   N11   A    
C3    F3    S    
N2    N19   A    
C1    F1    S    
C90   H4    S    
C91   H3    S    
C23   C49   S    
C121  H71   S    
N6    N23   A    
C16   C84   S    
C2    N2    A    
C123  H81   S    
C43   C58   A    
C37   C56   A    
N21   Ni7   S    
C38   C55   A    
C11   C67   S    
C6    N6    A    
C70   C74   S    
C32   N16   A    
C135  H110  S    
C74   F26   S    
C92   H13   S    
C37   N21   A    
C42   F18   S    
C109  H43   S    
C78   F30   S    
C29   C101  S    
C63   C85   S    
C114  H61   S    
C107  H49   S    
C6    C54   A    
C73   C81   S    
C65   C77   S    
C34   N18   A    
C89   H7    S    
C67   C79   S    
C20   C54   S    
C62   C88   S    
C101  H35   S    
C44   C57   A    
C30   N14   A    
N32   Ni8   S    
C15   C131  S    
C69   F37   S    
C99   C100  S    
C108  H47   S    
C96   C97   S    
C93   H11   S    
C117  H68   S    
N14   Ni3   S    
C129  C130  S    
N16   N29   A    
C130  H94   S    
C68   C83   S    
C24   F48   S    
N5    Ni3   S    
C41   N25   A    
C35   F11   S    
C91   H1    S    
C33   F9    S    
N8    N21   A    
N17   Ni5   S    
C11   C76   S    
C125  H90   S    
C30   C104  S    
C72   F40   S    
C97   H16   S    
C37   F13   S    
C80   C88   S    
C128  H97   S    
C65   C82   S    
N1    N20   A    
C110  H56   S    
C22   C52   S    
N29   Ni8   S    
C9    C65   S    
C35   N19   A    
N5    N24   A    
C71   C88   S    
C44   N28   A    
C18   F42   S    
C136  H106  S    
C12   C75   S    
C10   C116  S    
C14   C128  S    
N14   N31   A    
N22   Ni8   S    
C129  H95   S    
C111  H53   S    
C36   N20   A    
C92   C93   S    
C113  H63   S    
N11   N26   A    
C102  C103  S    
C4    F4    S    
C33   C52   A    
C99   H26   S    
C12   C68   S    
C34   C51   A    
C126  H89   S    
C127  H86   S    
N12   Ni1   S    
C94   H9    S    
C118  H64   S    
C39   C54   A    
C106  H37   S    
N24   Ni7   S    
C116  H70   S    
C61   C87   S    
C9    C85   S    
C42   N26   A    
C11   C87   S    
C109  H45   S    
C19   F43   S    
C77   C85   S    
C100  H23   S    
C106  H36   S    
C25   C57   A    
C125  C126  S    
C10   C66   S    
C24   C50   S    
C29   C61   A    
N13   Ni4   S    
C12   C88   S    
C31   C63   A    
C123  C124  S    
C32   C64   A    
C95   H20   S    
C115  H59   S    
N25   Ni6   S    
C65   F33   S    
C103  H29   S    
C122  H83   S    
C25   C89   S    
N4    Ni2   S    
C131  H105  S    
C20   C23   D    
C136  H108  S    
C57   C83   S    
C112  H50   S    
C119  H76   S    
C76   F28   S    
C96   H18   S    
C25   N9    A    
C134  H111  S    
C105  H39   S    
C133  H100  S    
N30   Ni7   S    
C21   C51   S    
C72   C87   S    
C20   F44   S    
C98   H27   S    
C45   N29   A    
C13   C78   S    
C10   C86   S    
N13   N32   A    
C120  H74   S    
C41   C60   A    
C117  C118  S    
C42   C59   A    
C118  H66   S    
C124  H79   S    
C45   C64   A    
C46   C63   A    
C90   H5    S    
C91   H2    S    
N10   N27   A    
C13   C69   S    
C39   N23   A    
C107  C108  S    
C123  H82   S    
C9    C74   S    
N23   Ni8   S    
C70   C85   S    
N31   Ni7   S    
C121  H73   S    
C104  H42   S    
C8    F8    S    
C46   F22   S    
C107  H48   S    
C16   C72   S    
C76   C84   S    
C115  H57   S    
C89   H6    S    
C10   C73   S    
N7    Ni3   S    
C13   C81   S    
C112  H52   S    
C101  H34   S    
C46   N30   A    
C3    N3    A    
C126  C127  S    
C14   C77   S    
C111  C112  S    
C122  C123  S    
C69   C73   S    
C38   N22   A    
C73   F25   S    
C102  H32   S    
C103  H31   S    
C19   C53   S    
C119  C120  S    
C77   F29   S    
C11   C119  S    
C39   F15   S    
C93   H12   S    
C74   C82   S    
N15   Ni4   S    
C64   C86   S    
C132  H102  S    
C130  H93   S    
C66   C78   S    
C41   F17   S    
C110  C111  S    
C33   N17   A    
C40   N24   A    
C21   F45   S    
C98   C99   S    
C67   F35   S    
C15   C83   S    
C23   F47   S    
C114  C115  S    
C5    F5    S    
C128  C129  S    
C97   H15   S    
C110  H55   S    
C113  C114  S    
C97   H17   S    
C29   N13   A    
C135  H109  S    
N9    N28   A    
C92   H14   S    
C44   F20   S    
C12   C122  S    
C70   F38   S    
N11   Ni2   S    
C40   F16   S    
C30   C62   A    
N15   N30   A    
C27   C95   S    
C14   C82   S    
C31   C107  S    
C129  H96   S    
C132  C133  S    
C111  H54   S    
C59   C81   S    
C113  H62   S    
N7    N22   A    
C34   F10   S    
C15   C71   S    
N18   Ni6   S    
C17   C22   D    
C16   C79   S    
C38   F14   S    
C19   C24   D    
C104  C105  S    
C94   H8    S    
C122  H84   S    
C66   C81   S    
C17   F41   S    
C75   C83   S    
N1    Ni1   S    
C2    F2    S    
C3    C51   A    
C26   C92   S    
C116  H69   S    
C90   C91   S    
C134  C135  S    
N4    N17   A    
C22   F46   S    
C101  C102  S    
C108  H46   S    
C109  H44   S    
C120  C121  S    
C117  H67   S    
C36   C49   A    
C4    N4    A    
C68   C80   S    
C71   C75   S    
C133  H99   S    
C13   C125  S    
C100  H22   S    
C8    N8    A    
C79   F31   S    
C72   C76   S    
C36   F12   S    
C131  C132  S    
C4    C52   A    
C125  H91   S    
C5    C53   A    
C128  H98   S    
C115  H58   S    
C47   F23   S    
C28   C98   S    
C43   N27   A    
C60   C82   S    
C136  H107  S    
C75   F27   S    
C108  C109  S    
N20   Ni5   S    
C2    C50   A    
C17   C55   S    
C96   H19   S    
C78   C86   S    
C47   N31   A    
C105  H40   S    
C67   C84   S    
N28   Ni6   S    
N2    Ni2   S    
N3    N18   A    
C14   C70   S    
C45   F21   S    
C43   F19   S    
C99   H25   S    
N8    Ni4   S    
C126  H88   S    
C120  H75   S    
C127  H87   S    
C93   C94   S    
C94   H10   S    
C118  H65   S    
N26   Ni5   S    
C66   F34   S    
C124  H78   S    
C131  H104  S    
C105  C106  S    
C31   N15   A    
C106  H38   S    
C9    C113  S    
C7    F7    S    
N9    Ni2   S    
C58   C84   S    
C26   C58   A    
C15   C80   S    
C35   C50   A    
C32   C110  S    
C28   C60   A    
C26   N10   A    
C7    C55   A    
N3    Ni1   S    
C100  H24   S    
C116  C117  S    
C114  H60   S    
C121  H72   S    
C1    N1    A    
C104  H41   S    
N12   N25   A    
N19   Ni6   S    
C95   H21   S    
C5    N5    A    
C16   C134  S    
C18   C56   S    
C7    N7    A    
C89   C90   S    
N27   Ni5   S    
C135  C136  S    
C80   F32   S    
C6    F6    S    
C27   C59   A    
C47   C62   A    
C28   N12   A    
C48   C61   A    
C68   F36   S    
C112  H51   S    
C119  H77   S    
C48   F24   S    
C134  H112  S    
C40   C53   A    
C133  H101  S    
C1    C49   A    
C102  H33   S    
C69   C86   S    
C98   H28   S    
C103  H30   S    
N6    Ni4   S    
