data_mof_unit_46926.cif
_audit_creation_date              2012-12-10T20:46:49-0500
_audit_creation_method            fapswitch 2.2
_symmetry_space_group_name_H-M    P1
_symmetry_Int_Tables_number       1
_space_group_crystal_system       triclinic
_cell_length_a                    12.920521
_cell_length_b                    8.932489
_cell_length_c                    8.10476
_cell_angle_alpha                 90.001423
_cell_angle_beta                  97.403083
_cell_angle_gamma                 89.998881
_cell_volume                      927.592703051

loop_
_atom_site_label
_atom_site_type_symbol
_atom_type_description
_atom_site_fract_x
_atom_site_fract_y
_atom_site_fract_z
_atom_type_partial_charge
C1    C     C_R   0.499999 0.217992 0.499999 0.920186
C2    C     C_R   0.500001 0.782023 0.500001 0.938056
C3    C     C_R   0.297416 0.499795 0.467141 0.895717
C4    C     C_R   0.702584 0.499796 0.532858 0.895685
C5    C     C_R   0.814931 0.503532 0.553837 -0.176857
C6    C     C_R   0.185070 0.503534 0.446160 -0.176828
C7    C     C_R   0.017631 0.505402 0.276132 -0.304047
C8    C     C_R   0.982371 0.505391 0.723859 -0.304005
C9    C     C_R   0.125252 0.490112 0.288306 0.467657
C10   C     C_R   0.874751 0.490109 0.711690 0.467660
C11   C     C_R   0.136771 0.518008 0.589827 -0.322529
C12   C     C_R   0.863228 0.517996 0.410166 -0.322495
C13   C     C_R   0.029916 0.515085 0.579010 0.112411
C14   C     C_R   0.970083 0.515085 0.420982 0.112414
C15   C     C_1   0.500000 0.065209 0.499998 -0.198166
C16   C     C_1   0.500000 0.934828 0.500002 -0.192441
H1    H     H_    0.817841 0.526784 0.288355 0.205112
H2    H     H_    0.182154 0.526818 0.711636 0.205092
N1    N     N_1   0.500020 0.500000 0.073640 -0.037680
N2    N     N_1   0.499980 0.500000 0.926360 -0.037662
O1    O     O_R   0.499990 0.285340 0.636850 -0.622091
O2    O     O_R   0.500010 0.714660 0.363150 -0.613320
O3    O     O_R   0.500010 0.285340 0.363150 -0.622091
O4    O     O_R   0.499990 0.714660 0.636850 -0.613322
O5    O     O_R   0.346350 0.500000 0.614250 -0.632930
O6    O     O_R   0.653650 0.500000 0.385750 -0.632931
O7    O     O_R   0.346360 0.500000 0.340500 -0.574088
O8    O     O_R   0.653640 0.500000 0.659500 -0.574114
Zn1   Zn    Zn3+2 0.499990 0.500000 0.682780 0.994816
Zn2   Zn    Zn3+2 0.500010 0.500000 0.317220 0.994813
O9    O     O_3   0.829418 0.460140 0.853654 -0.601853
C17   C     C_3   0.825530 0.302901 0.872654 0.092591
H3    H     H_    0.905653 0.254305 0.891501 0.127008
H4    H     H_    0.779986 0.249589 0.761835 0.137370
C18   C     C_3   0.772090 0.264657 0.023803 -0.779913
H5    H     H_    0.695183 0.321513 0.015814 0.270394
H6    H     H_    0.759912 0.141799 0.029521 0.206754
H7    H     H_    0.821694 0.299938 0.139019 0.232473
O10   O     O_3   0.170592 0.460140 0.146348 -0.601850
C19   C     C_3   0.174442 0.302907 0.127307 0.092610
H8    H     H_    0.094299 0.254394 0.108319 0.127023
H9    H     H_    0.219899 0.249531 0.238160 0.137303
C20   C     C_3   0.227970 0.264648 0.976232 -0.779734
H10   H     H_    0.178454 0.300053 0.860976 0.232479
H11   H     H_    0.304933 0.321386 0.984367 0.270335
H12   H     H_    0.240060 0.141788 0.970433 0.206722
H13   H     H_    0.971399 0.500303 0.154769 0.189139
H14   H     H_    0.028604 0.500284 0.845221 0.189124

loop_
_geom_bond_atom_site_label_1
_geom_bond_atom_site_label_2
_ccdc_geom_bond_type
C12   H1    S    
C2    O2    A    
C4    O6    A    
C20   H10   S    
C8    H14   S    
C11   H2    S    
C1    O1    A    
C8    C13   A    
C1    C15   S    
C11   C13   A    
C17   C18   S    
N1    N2    T    
O9    C17   S    
C3    O5    A    
C3    C6    S    
C17   H3    S    
C6    C9    A    
C3    O7    A    
C5    C10   A    
C13   C14   A    
O7    Zn2   S    
O5    Zn1   S    
C20   H11   S    
C19   H9    S    
C19   H8    S    
C4    O8    A    
C12   C14   A    
C1    O3    A    
N2    Zn1   S    
C19   C20   S    
C2    O4    A    
C20   H12   S    
C15   C16   T    
O10   C19   S    
O3    Zn2   S    
C9    O10   S    
C18   H7    S    
C2    C16   S    
C5    C12   A    
C8    C10   A    
C6    C11   A    
C7    C9    A    
O4    Zn1   S    
O8    Zn1   S    
O2    Zn2   S    
C18   H6    S    
N1    Zn2   S    
O1    Zn1   S    
C10   O9    S    
C7    C14   A    
C18   H5    S    
C7    H13   S    
C4    C5    S    
O6    Zn2   S    
C17   H4    S    
