data_mof_unit_60147.cif
_audit_creation_date              2013-03-05T16:07:41-0500
_audit_creation_method            fapswitch 2.2
_symmetry_space_group_name_H-M    P1
_symmetry_Int_Tables_number       1
_space_group_crystal_system       triclinic
_cell_length_a                    35.881934
_cell_length_b                    26.234517
_cell_length_c                    22.181731
_cell_angle_alpha                 90.01123
_cell_angle_beta                  143.91947
_cell_angle_gamma                 90.018571
_cell_volume                      12297.0742193

loop_
_atom_site_label
_atom_site_type_symbol
_atom_site_description
_atom_site_fract_x
_atom_site_fract_y
_atom_site_fract_z
_atom_type_partial_charge
Zn1   Zn    Zn3+2 0.824550 0.706220 0.087530 1.131107
Zn2   Zn    Zn3+2 0.824550 0.293780 0.087530 1.114797
Zn3   Zn    Zn3+2 0.324550 0.206220 0.087530 1.122246
Zn4   Zn    Zn3+2 0.324550 0.793780 0.087530 1.116219
Zn5   Zn    Zn3+2 0.762980 0.793760 0.087560 1.125065
Zn6   Zn    Zn3+2 0.762980 0.206240 0.087560 1.108804
Zn7   Zn    Zn3+2 0.262980 0.293760 0.087560 1.124987
Zn8   Zn    Zn3+2 0.262980 0.706240 0.087560 1.108932
Zn9   Zn    Zn3+2 0.737010 0.793770 0.912460 1.144012
Zn10  Zn    Zn3+2 0.737010 0.206230 0.912460 1.138546
Zn11  Zn    Zn3+2 0.237010 0.293770 0.912460 1.145425
Zn12  Zn    Zn3+2 0.237010 0.706230 0.912460 1.135624
Zn13  Zn    Zn3+2 0.675440 0.706230 0.912460 1.080953
Zn14  Zn    Zn3+2 0.675440 0.293770 0.912460 1.083732
Zn15  Zn    Zn3+2 0.175440 0.206230 0.912460 1.076441
Zn16  Zn    Zn3+2 0.175440 0.793770 0.912460 1.085897
O1    O     O_3   0.749990 0.749990 0.000000 -0.568116
O2    O     O_3   0.749990 0.250010 0.000000 -0.563416
O3    O     O_3   0.249990 0.249990 0.000000 -0.565575
O4    O     O_3   0.249990 0.750010 0.000000 -0.565288
O5    O     O_R   0.637170 0.719360 0.938750 -0.623289
O6    O     O_R   0.637170 0.280640 0.938750 -0.616907
O7    O     O_R   0.137170 0.219360 0.938750 -0.625535
O8    O     O_R   0.137170 0.780640 0.938750 -0.613205
O9    O     O_R   0.862810 0.719350 0.061240 -0.602699
O10   O     O_R   0.862810 0.280650 0.061240 -0.610157
O11   O     O_R   0.362810 0.219350 0.061240 -0.607959
O12   O     O_R   0.362810 0.780650 0.061240 -0.609987
O13   O     O_R   0.845300 0.780620 0.233710 -0.635994
O14   O     O_R   0.845300 0.219380 0.233710 -0.639553
O15   O     O_R   0.345300 0.280620 0.233710 -0.635306
O16   O     O_R   0.345300 0.719380 0.233710 -0.639648
O17   O     O_R   0.654690 0.780640 0.766300 -0.583576
O18   O     O_R   0.654690 0.219360 0.766300 -0.599340
O19   O     O_R   0.154690 0.280640 0.766300 -0.583544
O20   O     O_R   0.154690 0.719360 0.766300 -0.599234
O21   O     O_R   0.759080 0.866840 0.061290 -0.600501
O22   O     O_R   0.759080 0.133160 0.061290 -0.613217
O23   O     O_R   0.259080 0.366840 0.061290 -0.600323
O24   O     O_R   0.259080 0.633160 0.061290 -0.613300
O25   O     O_R   0.697810 0.633140 0.938720 -0.640726
O26   O     O_R   0.697810 0.366860 0.938720 -0.643387
O27   O     O_R   0.197810 0.133140 0.938720 -0.645366
O28   O     O_R   0.197810 0.866860 0.938720 -0.640651
O29   O     O_R   0.740900 0.866850 0.938740 -0.602522
O30   O     O_R   0.740900 0.133150 0.938740 -0.582546
O31   O     O_R   0.240900 0.366850 0.938740 -0.602820
O32   O     O_R   0.240900 0.633150 0.938740 -0.583683
O33   O     O_R   0.802180 0.633140 0.061250 -0.584881
O34   O     O_R   0.802180 0.366860 0.061250 -0.595476
O35   O     O_R   0.302180 0.133140 0.061250 -0.593450
O36   O     O_R   0.302180 0.866860 0.061250 -0.586859
O37   O     O_R   0.888390 0.719350 0.233690 -0.561122
O38   O     O_R   0.888390 0.280650 0.233690 -0.577469
O39   O     O_R   0.388390 0.219350 0.233690 -0.563742
O40   O     O_R   0.388390 0.780650 0.233690 -0.576311
O41   O     O_R   0.611600 0.719370 0.766300 -0.591839
O42   O     O_R   0.611600 0.280630 0.766300 -0.581379
O43   O     O_R   0.111600 0.219370 0.766300 -0.595840
O44   O     O_R   0.111600 0.780630 0.766300 -0.575776
O45   O     O_R   0.698440 0.780630 0.061300 -0.590850
O46   O     O_R   0.698440 0.219370 0.061300 -0.595440
O47   O     O_R   0.198440 0.280630 0.061300 -0.590527
O48   O     O_R   0.198440 0.719370 0.061300 -0.595833
O49   O     O_R   0.801540 0.780630 0.938710 -0.596240
O50   O     O_R   0.801540 0.219370 0.938710 -0.601108
O51   O     O_R   0.301540 0.280630 0.938710 -0.594676
O52   O     O_R   0.301540 0.719370 0.938710 -0.600917
C1    C     C_R   0.650591 0.750003 0.000036 0.866148
C2    C     C_R   0.650608 0.249991 0.000053 0.870382
C3    C     C_R   0.150589 0.250006 0.000030 0.865342
C4    C     C_R   0.150610 0.749994 0.000058 0.872873
C5    C     C_R   0.849379 0.750017 0.999956 0.810929
C6    C     C_R   0.849389 0.249995 0.999960 0.804408
C7    C     C_R   0.349380 0.250018 0.999958 0.811855
C8    C     C_R   0.349389 0.749995 0.999961 0.803094
C9    C     C_R   0.891472 0.750064 0.282370 0.939232
C10   C     C_R   0.890027 0.251400 0.282127 0.940234
C11   C     C_R   0.391454 0.249967 0.282369 0.933235
C12   C     C_R   0.389904 0.751467 0.282111 0.940557
C13   C     C_R   0.609293 0.749746 0.717475 0.957404
C14   C     C_R   0.609159 0.250001 0.717616 0.934713
C15   C     C_R   0.109412 0.249836 0.717485 0.960720
C16   C     C_R   0.109090 0.750361 0.717608 0.921412
C17   C     C_R   0.751430 0.890983 0.001799 1.014284
C18   C     C_R   0.750625 0.108662 0.001124 0.998074
C19   C     C_R   0.251318 0.390998 0.001649 1.014820
C20   C     C_R   0.250770 0.608677 0.001278 0.999484
C21   C     C_R   0.750205 0.608822 0.000889 0.798557
C22   C     C_R   0.749640 0.391085 0.999413 0.795794
C23   C     C_R   0.249645 0.108893 0.999208 0.795573
C24   C     C_R   0.250270 0.891154 0.001313 0.797832
C25   C     C_3   0.697159 0.530975 0.884463 -0.193047
C26   C     C_3   0.701003 0.469713 0.884855 -0.196226
C27   C     C_3   0.201048 0.029984 0.885117 -0.197542
C28   C     C_3   0.196149 0.968915 0.884738 -0.186329
C29   C     C_3   0.733158 0.529870 0.045289 -0.168404
C30   C     C_3   0.724016 0.469146 0.031043 -0.129402
C31   C     C_3   0.225427 0.030881 0.033134 -0.130685
C32   C     C_3   0.234373 0.970136 0.047592 -0.170500
C33   C     C_3   0.814892 0.528275 0.061606 0.024243
C34   C     C_3   0.816558 0.469833 0.072319 0.024939
C35   C     C_3   0.316549 0.030250 0.071821 0.028809
C36   C     C_3   0.314637 0.971833 0.060764 0.027156
C37   C     C_3   0.749448 0.551005 0.000125 -0.155675
C38   C     C_3   0.747735 0.448701 0.997856 -0.163371
C39   C     C_3   0.247989 0.051219 0.998016 -0.169033
C40   C     C_3   0.249553 0.948930 0.000839 -0.151472
H1    H     H_    0.813845 0.533401 0.010517 0.116521
H2    H     H_    0.828755 0.454172 0.043028 0.132535
H3    H     H_    0.329367 0.046047 0.043584 0.136181
H4    H     H_    0.312857 0.965828 0.008838 0.110340
C41   C     C_3   0.504126 0.202978 0.983370 -0.111686
C42   C     C_3   0.504148 0.797020 0.983357 -0.111691
C43   C     C_3   0.002950 0.703211 0.981009 -0.111751
C44   C     C_3   0.003482 0.296918 0.982033 -0.111709
C45   C     C_3   0.942236 0.735512 0.909325 -0.138315
C46   C     C_3   0.942381 0.264979 0.909631 -0.138241
C47   C     C_3   0.442609 0.234373 0.910084 -0.138027
C48   C     C_3   0.442616 0.765573 0.910089 -0.138411
C49   C     C_1   0.889067 0.750216 0.000245 0.000834
C50   C     C_1   0.889082 0.249817 0.000265 -0.005531
C51   C     C_1   0.389068 0.250220 0.000247 -0.002489
C52   C     C_1   0.389087 0.749812 0.000272 -0.003482
C53   C     C_1   0.611193 0.250065 0.000307 -0.050257
C54   C     C_1   0.611166 0.749918 0.000262 -0.049097
C55   C     C_1   0.111202 0.750073 0.000325 -0.048735
C56   C     C_1   0.111152 0.249932 0.000236 -0.050602
C57   C     C_3   0.024113 0.718598 0.072583 0.237448
C58   C     C_3   0.024486 0.281074 0.073273 0.238586
C59   C     C_3   0.524898 0.219512 0.074148 0.238253
C60   C     C_3   0.524924 0.780567 0.074151 0.237993
C61   C     C_3   0.963482 0.750509 0.001471 -0.080873
C62   C     C_3   0.963473 0.249524 0.001454 -0.080207
C63   C     C_3   0.463473 0.250522 0.001455 -0.080618
C64   C     C_3   0.463486 0.749504 0.001476 -0.080327
C65   C     C_3   0.558976 0.266531 0.092591 -0.184348
C66   C     C_3   0.558972 0.733556 0.092588 -0.185704
C67   C     C_3   0.059379 0.765374 0.093409 -0.184421
C68   C     C_3   0.059167 0.234193 0.092974 -0.185810
C69   C     C_3   0.537743 0.250339 0.000996 -0.019201
C70   C     C_3   0.537731 0.749666 0.000975 -0.018966
C71   C     C_3   0.037762 0.750338 0.001035 -0.019351
C72   C     C_3   0.037705 0.249690 0.000925 -0.018895
C73   C     C_3   0.998545 0.797118 0.021273 0.237700
C74   C     C_3   0.997953 0.202814 0.020133 0.237065
C75   C     C_3   0.497353 0.297362 0.018882 0.237433
C76   C     C_3   0.497334 0.702670 0.018897 0.237063
C77   C     C_3   0.476280 0.281697 0.927489 -0.106550
C78   C     C_3   0.476255 0.718256 0.927487 -0.106603
C79   C     C_3   0.977103 0.782606 0.929129 -0.106355
C80   C     C_3   0.976658 0.217786 0.928301 -0.106464
C81   C     C_1   0.922654 0.750378 0.000754 0.121797
C82   C     C_1   0.922665 0.249660 0.000768 0.120941
C83   C     C_1   0.422652 0.250386 0.000750 0.121308
C84   C     C_1   0.422673 0.749649 0.000782 0.120977
C85   C     C_1   0.578002 0.250179 0.000580 0.027399
C86   C     C_1   0.577977 0.749810 0.000538 0.029337
C87   C     C_1   0.078018 0.750186 0.000611 0.027815
C88   C     C_1   0.077954 0.249831 0.000494 0.028905
C89   C     C_3   0.489574 0.742675 0.563033 0.007704
C90   C     C_3   0.490311 0.260336 0.561204 0.011385
C91   C     C_3   0.990172 0.242418 0.562873 0.006446
C92   C     C_3   0.989422 0.759347 0.561325 0.011291
H5    H     H_    0.494877 0.702320 0.584029 0.176800
H6    H     H_    0.498635 0.299778 0.588781 0.177577
H7    H     H_    0.995779 0.201820 0.583192 0.176585
H8    H     H_    0.996436 0.798115 0.589556 0.182931
C93   C     C_3   0.425951 0.746054 0.441107 0.080838
C94   C     C_3   0.428653 0.263007 0.440109 0.072556
C95   C     C_3   0.926424 0.246245 0.441242 0.080534
C96   C     C_3   0.928235 0.762763 0.440043 0.069476
H9    H     H_    0.459955 0.672288 0.401645 0.246268
H10   H     H_    0.473472 0.324457 0.399475 0.243141
H11   H     H_    0.961128 0.172223 0.404198 0.246308
H12   H     H_    0.972372 0.823784 0.395375 0.242205
C97   C     C_3   0.550690 0.704903 0.555033 0.109836
C98   C     C_3   0.555902 0.293699 0.559369 0.116988
C99   C     C_3   0.052150 0.206113 0.555365 0.108518
C100  C     C_3   0.053065 0.796822 0.558388 0.120139
C101  C     C_3   0.544022 0.807701 0.560386 0.259722
C102  C     C_3   0.545710 0.192890 0.560258 0.270781
C103  C     C_3   0.044125 0.308283 0.560084 0.260103
C104  C     C_3   0.046287 0.694770 0.560295 0.269593
C105  C     C_3   0.550868 0.752173 0.601891 -0.346124
C106  C     C_3   0.551554 0.248113 0.602004 -0.355344
C107  C     C_3   0.051415 0.252620 0.601892 -0.347682
C108  C     C_3   0.050849 0.749373 0.601956 -0.349770
C109  C     C_3   0.445796 0.753979 0.397368 -0.279293
C110  C     C_3   0.448361 0.247262 0.397700 -0.275189
C111  C     C_3   0.946086 0.254107 0.397347 -0.279592
C112  C     C_3   0.948283 0.747532 0.397742 -0.278980
C113  C     C_3   0.488382 0.707615 0.435283 -0.522584
C114  C     C_3   0.497991 0.287777 0.439697 -0.523705
C115  C     C_3   0.988920 0.207766 0.435630 -0.523025
C116  C     C_3   0.997872 0.788102 0.439808 -0.521364
C117  C     C_3   0.484789 0.806308 0.437478 0.293137
C118  C     C_3   0.480377 0.191203 0.436805 0.291700
C119  C     C_3   0.984898 0.306604 0.437033 0.289222
C120  C     C_3   0.980738 0.691938 0.437377 0.297474
H13   H     H_    0.497745 0.707053 0.398338 0.229437
H14   H     H_    0.514898 0.278666 0.416033 0.248536
H15   H     H_    0.997317 0.206792 0.397232 0.228682
H16   H     H_    0.017665 0.777810 0.421396 0.256810
C121  C     C_3   0.757738 0.968932 0.080176 0.033801
C122  C     C_3   0.753352 0.030505 0.077171 0.040559
C123  C     C_3   0.256969 0.468977 0.079126 0.033836
C124  C     C_3   0.252665 0.530547 0.076173 0.040199
C125  C     C_3   0.685993 0.967407 0.886003 -0.008970
C126  C     C_3   0.685869 0.029177 0.888303 -0.006561
C127  C     C_3   0.186232 0.467547 0.885619 -0.008737
C128  C     C_3   0.186300 0.529325 0.887996 -0.006436
C129  C     C_3   0.812751 0.968653 0.042004 0.221406
C130  C     C_3   0.816663 0.030733 0.054932 0.215539
C131  C     C_3   0.313061 0.468638 0.042863 0.222244
C132  C     C_3   0.317100 0.530702 0.056036 0.215654
C133  C     C_3   0.751952 0.948396 0.002865 -0.397453
C134  C     C_3   0.751223 0.050642 0.003627 -0.384510
C135  C     C_3   0.251860 0.448437 0.002668 -0.397673
C136  C     C_3   0.251326 0.550677 0.003657 -0.384782
C137  C     C_1   0.632420 0.548587 0.816436 0.318040
N1    N     N_1   0.581890 0.562180 0.762607 -0.081426
C138  C     C_1   0.636440 0.447148 0.803327 0.331492
N2    N     N_1   0.585551 0.430895 0.739599 -0.053534
C139  C     C_1   0.137129 0.053713 0.803689 0.327996
N3    N     N_1   0.086968 0.071365 0.740142 -0.045451
C140  C     C_1   0.131513 0.952770 0.819152 0.317653
N4    N     N_1   0.080981 0.940455 0.767162 -0.083043
N5    N     N_R   0.997067 0.848874 0.043266 0.233593
O53   O     O_R   0.029048 0.884749 0.058443 -0.310212
O54   O     O_R   0.964007 0.859547 0.047839 -0.283780
N6    N     N_R   0.995857 0.150952 0.040938 0.233704
O55   O     O_R   0.027391 0.115003 0.055251 -0.311053
O56   O     O_R   0.962696 0.140260 0.045317 -0.286233
N7    N     N_R   0.494570 0.349377 0.038261 0.233549
O57   O     O_R   0.525642 0.385428 0.051613 -0.311090
O58   O     O_R   0.461257 0.360104 0.042325 -0.283311
N8    N     N_R   0.494531 0.650674 0.038291 0.233636
O59   O     O_R   0.525572 0.614628 0.051622 -0.310457
O60   O     O_R   0.461229 0.639957 0.042389 -0.285989
C141  C     C_1   0.622480 0.284118 0.192552 0.359255
N9    N     N_1   0.672558 0.297973 0.271342 -0.074191
C142  C     C_1   0.622475 0.716054 0.192544 0.362589
N10   N     N_1   0.672553 0.702267 0.271329 -0.068057
C143  C     C_1   0.123308 0.781707 0.194225 0.360322
N11   N     N_1   0.173719 0.794575 0.273687 -0.073807
C144  C     C_1   0.122907 0.217369 0.193399 0.362328
N12   N     N_1   0.173171 0.204118 0.272555 -0.067693
N13   N     N_R   0.051027 0.683272 0.151532 0.229682
O61   O     O_R   0.102671 0.658664 0.206152 -0.307176
O62   O     O_R   0.023906 0.676167 0.168015 -0.299584
N14   N     N_R   0.051859 0.315998 0.153072 0.229372
O63   O     O_R   0.103797 0.340324 0.208234 -0.304413
O64   O     O_R   0.024875 0.322998 0.169817 -0.306753
N15   N     N_R   0.552707 0.185193 0.154877 0.229450
O65   O     O_R   0.604961 0.161276 0.210708 -0.307828
O66   O     O_R   0.525797 0.178325 0.171780 -0.305508
N16   N     N_R   0.552755 0.814957 0.154875 0.229658
O67   O     O_R   0.605022 0.838911 0.210700 -0.303977
O68   O     O_R   0.525842 0.821864 0.171762 -0.303073
N17   N     N_R   0.486752 0.767093 0.619456 0.277674
O69   O     O_R   0.447253 0.748440 0.607154 -0.305559
O70   O     O_R   0.531264 0.796835 0.697745 -0.289999
N18   N     N_R   0.484783 0.231644 0.611296 0.267061
O71   O     O_R   0.500464 0.254038 0.682037 -0.327159
O72   O     O_R   0.457216 0.187511 0.578979 -0.187418
N19   N     N_R   0.987367 0.265961 0.619809 0.276520
O73   O     O_R   0.948653 0.246268 0.608526 -0.307037
O74   O     O_R   0.030755 0.296803 0.696539 -0.288161
N20   N     N_R   0.984473 0.728653 0.610776 0.270077
O75   O     O_R   0.004462 0.748148 0.687451 -0.326505
O76   O     O_R   0.953772 0.685850 0.573480 -0.185814
N21   N     N_R   0.378665 0.784739 0.398720 0.254909
O77   O     O_R   0.322423 0.783858 0.301064 -0.368938
O78   O     O_R   0.385289 0.812445 0.455492 -0.208556
N22   N     N_R   0.375159 0.233513 0.396146 0.265765
O79   O     O_R   0.356453 0.244257 0.426246 -0.282409
O80   O     O_R   0.334533 0.210149 0.308643 -0.352936
N23   N     N_R   0.879727 0.285328 0.399807 0.255309
O81   O     O_R   0.823742 0.285366 0.301948 -0.367072
O82   O     O_R   0.885871 0.311530 0.457184 -0.207677
N24   N     N_R   0.874290 0.733565 0.395056 0.265268
O83   O     O_R   0.834140 0.709810 0.308106 -0.349631
O84   O     O_R   0.855121 0.744594 0.424327 -0.286924
C145  C     C_1   0.393096 0.696266 0.407038 0.320381
N25   N     N_1   0.367433 0.657781 0.380877 -0.083055
C146  C     C_1   0.405590 0.316719 0.411256 0.317479
N26   N     N_1   0.386796 0.358110 0.388486 -0.067376
C147  C     C_1   0.893126 0.196671 0.406795 0.317203
N27   N     N_1   0.867194 0.158321 0.380414 -0.085380
C148  C     C_1   0.905980 0.816712 0.412248 0.310372
N28   N     N_1   0.888035 0.858348 0.390524 -0.066874
N29   N     N_R   0.555346 0.655402 0.593740 0.201649
O85   O     O_R   0.508292 0.623429 0.535522 -0.357245
O86   O     O_R   0.609103 0.641350 0.687293 -0.416001
N30   N     N_R   0.556700 0.344357 0.590239 0.198374
O87   O     O_R   0.515406 0.379574 0.523764 -0.352447
O88   O     O_R   0.607375 0.358282 0.685466 -0.420831
N31   N     N_R   0.059715 0.156540 0.596893 0.201362
O89   O     O_R   0.013282 0.124259 0.542238 -0.360383
O90   O     O_R   0.115698 0.142410 0.688130 -0.427111
N32   N     N_R   0.045935 0.847305 0.579087 0.189687
O91   O     O_R   0.015241 0.884186 0.512740 -0.337678
O92   O     O_R   0.085131 0.860478 0.672732 -0.398127
N33   N     N_R   0.599881 0.825815 0.598009 0.251828
O93   O     O_R   0.649407 0.798391 0.650868 -0.338247
O94   O     O_R   0.599302 0.872201 0.576337 -0.229400
N34   N     N_R   0.602586 0.184486 0.594899 0.213311
O95   O     O_R   0.607495 0.202494 0.546910 -0.325890
O96   O     O_R   0.647299 0.153557 0.670300 -0.257206
N35   N     N_R   0.099775 0.327031 0.597536 0.250125
O97   O     O_R   0.150539 0.300706 0.653379 -0.338808
O98   O     O_R   0.098244 0.373298 0.574308 -0.229641
N36   N     N_R   0.102446 0.689109 0.592617 0.214339
O99   O     O_R   0.106451 0.711522 0.545735 -0.338937
O100  O     O_R   0.147358 0.656960 0.664342 -0.252367
C149  C     C_1   0.707112 0.555385 0.837503 0.230393
N37   N     N_1   0.715370 0.574100 0.801688 -0.114734
C150  C     C_1   0.723936 0.451990 0.854888 0.181147
N38   N     N_1   0.741687 0.438099 0.831529 -0.127761
C151  C     C_1   0.224554 0.046266 0.855532 0.186107
N39   N     N_1   0.242756 0.059016 0.832463 -0.123706
C152  C     C_1   0.203313 0.943241 0.834515 0.217259
N40   N     N_1   0.208941 0.923238 0.795654 -0.128352
N41   N     N_R   0.536872 0.846248 0.599843 0.245035
O101  O     O_R   0.587233 0.864263 0.691600 -0.296354
O102  O     O_R   0.482685 0.860978 0.550349 -0.220550
N42   N     N_R   0.546362 0.149704 0.603941 0.256767
O103  O     O_R   0.542613 0.103335 0.578198 -0.236594
O104  O     O_R   0.564265 0.155463 0.682728 -0.294726
N43   N     N_R   0.036484 0.346534 0.599071 0.245469
O105  O     O_R   0.086647 0.364599 0.690876 -0.294736
O106  O     O_R   0.982077 0.361205 0.548838 -0.219317
N44   N     N_R   0.049517 0.650521 0.605716 0.254196
O107  O     O_R   0.047831 0.604566 0.581210 -0.238548
O108  O     O_R   0.063372 0.655477 0.680347 -0.290846
N45   N     N_R   0.445102 0.852548 0.394467 0.258803
O109  O     O_R   0.471340 0.897362 0.424012 -0.185919
O110  O     O_R   0.383700 0.850735 0.313971 -0.333773
N46   N     N_R   0.432752 0.153798 0.397227 0.241998
O111  O     O_R   0.391959 0.134582 0.306254 -0.285870
O112  O     O_R   0.427660 0.140022 0.446551 -0.222455
N47   N     N_R   0.945190 0.353005 0.393521 0.258943
O113  O     O_R   0.971603 0.397709 0.422918 -0.178391
O114  O     O_R   0.883796 0.351503 0.311907 -0.322863
N48   N     N_R   0.933257 0.654714 0.398503 0.242694
O115  O     O_R   0.888261 0.639762 0.303832 -0.307234
O116  O     O_R   0.932126 0.636993 0.451591 -0.221095
N49   N     N_R   0.507004 0.808822 0.402249 0.232513
O117  O     O_R   0.550856 0.779076 0.438413 -0.357789
O118  O     O_R   0.486075 0.844302 0.338920 -0.185700
N50   N     N_R   0.495700 0.172473 0.394844 0.271946
O119  O     O_R   0.498740 0.201563 0.351324 -0.305431
O120  O     O_R   0.512440 0.124988 0.410278 -0.174859
N51   N     N_R   0.007192 0.308816 0.401914 0.232378
O121  O     O_R   0.051177 0.279226 0.438358 -0.363328
O122  O     O_R   0.985907 0.343799 0.337747 -0.188703
N52   N     N_R   0.995919 0.672825 0.395316 0.270338
O123  O     O_R   0.998721 0.701628 0.351224 -0.299926
O124  O     O_R   0.011420 0.625077 0.409189 -0.177067
C153  C     C_1   0.604767 0.704129 0.583476 0.394955
N53   N     N_1   0.646897 0.701635 0.605276 -0.076836
C154  C     C_1   0.615683 0.293823 0.602456 0.350991
N54   N     N_1   0.662719 0.295390 0.637186 -0.105549
C155  C     C_1   0.105361 0.207071 0.581610 0.408590
N55   N     N_1   0.146884 0.205744 0.601824 -0.071631
C156  C     C_1   0.114629 0.801290 0.607363 0.342500
N56   N     N_1   0.162941 0.805716 0.646430 -0.117474
N57   N     N_R   0.709651 0.944174 0.057768 0.271544
O125  O     O_R   0.727038 0.913597 0.123875 -0.312308
O126  O     O_R   0.650101 0.956238 0.978529 -0.213741
N58   N     N_R   0.700174 0.047456 0.047530 0.278207
O127  O     O_R   0.699187 0.030624 0.101622 -0.281315
O128  O     O_R   0.672773 0.091341 0.004262 -0.289263
N59   N     N_R   0.208441 0.444268 0.055702 0.271048
O129  O     O_R   0.225338 0.413528 0.121182 -0.312532
O130  O     O_R   0.148960 0.456532 0.976174 -0.213278
N60   N     N_R   0.199116 0.547614 0.045513 0.278301
O131  O     O_R   0.197533 0.530865 0.098849 -0.281147
O132  O     O_R   0.171852 0.591511 0.002056 -0.289599
C157  C     C_1   0.820394 0.952477 0.187006 0.320470
N61   N     N_1   0.868112 0.939864 0.270286 -0.031644
C158  C     C_1   0.807770 0.053157 0.182527 0.326293
N62   N     N_1   0.848726 0.070877 0.263784 -0.065634
C159  C     C_1   0.319364 0.452472 0.186163 0.321763
N63   N     N_1   0.366876 0.439836 0.269572 -0.035968
C160  C     C_1   0.306784 0.553107 0.181660 0.326051
N64   N     N_1   0.347507 0.570741 0.262994 -0.063717
N65   N     N_R   0.627644 0.944145 0.835554 0.291261
O133  O     O_R   0.628991 0.898958 0.861610 -0.308265
O134  O     O_R   0.573191 0.957837 0.741710 -0.213517
N66   N     N_R   0.630633 0.051298 0.848873 0.267167
O135  O     O_R   0.598003 0.027062 0.846776 -0.189849
O136  O     O_R   0.618748 0.099636 0.827898 -0.296376
N67   N     N_R   0.127629 0.444433 0.834487 0.291212
O137  O     O_R   0.128698 0.399277 0.860275 -0.308005
O138  O     O_R   0.073378 0.458168 0.740501 -0.212401
N68   N     N_R   0.130725 0.551581 0.847473 0.267197
O139  O     O_R   0.097742 0.527521 0.844807 -0.189370
O140  O     O_R   0.119034 0.599928 0.826514 -0.295795
N69   N     N_R   0.805637 0.952222 0.968138 0.212078
O141  O     O_R   0.786456 0.981918 0.899770 -0.315321
O142  O     O_R   0.825590 0.907224 0.978134 -0.260246
N70   N     N_R   0.831641 0.053533 0.014554 0.260709
O143  O     O_R   0.793419 0.081271 0.932903 -0.314090
O144  O     O_R   0.887619 0.045481 0.064997 -0.181514
N71   N     N_R   0.306389 0.452308 0.969509 0.212014
O145  O     O_R   0.287552 0.482099 0.901537 -0.316532
O146  O     O_R   0.326230 0.407260 0.979432 -0.260477
N72   N     N_R   0.332836 0.553463 0.016805 0.260858
O147  O     O_R   0.295437 0.581933 0.936259 -0.315555
O148  O     O_R   0.388902 0.545014 0.067769 -0.181507
N73   N     N_R   0.874109 0.944757 0.139605 0.244576
O149  O     O_R   0.924681 0.959481 0.176878 -0.185973
O150  O     O_R   0.876364 0.899094 0.165362 -0.418893
N74   N     N_R   0.871421 0.049112 0.163470 0.197662
O151  O     O_R   0.885579 0.097476 0.180466 -0.380989
O152  O     O_R   0.908064 0.020060 0.243565 -0.324349
N75   N     N_R   0.374223 0.444622 0.140623 0.244274
O153  O     O_R   0.425073 0.459270 0.178658 -0.187948
O154  O     O_R   0.376211 0.398987 0.166124 -0.419783
N76   N     N_R   0.371503 0.548963 0.164647 0.197637
O155  O     O_R   0.385772 0.597310 0.181987 -0.381053
O156  O     O_R   0.407810 0.519814 0.244522 -0.325311
C161  C     C_1   0.676676 0.555803 0.997380 0.174072
N77   N     N_1   0.633058 0.575979 0.961072 -0.116249
C162  C     C_1   0.657145 0.454475 0.955560 0.183310
N78   N     N_1   0.605340 0.443097 0.898389 -0.120132
C163  C     C_1   0.158758 0.045726 0.958400 0.185784
N79   N     N_1   0.107064 0.057251 0.901520 -0.122712
C164  C     C_1   0.178303 0.944332 0.001262 0.172687
N80   N     N_1   0.135059 0.924227 0.966305 -0.114621
C165  C     C_1   0.680244 0.948257 0.815053 0.347887
N81   N     N_1   0.674046 0.933550 0.758047 0.040513
C166  C     C_1   0.677574 0.048573 0.814935 0.363768
N82   N     N_1   0.669444 0.062253 0.755357 0.052566
C167  C     C_1   0.180881 0.448334 0.815203 0.348618
N83   N     N_1   0.174970 0.433509 0.758589 0.040028
C168  C     C_1   0.179008 0.548854 0.815786 0.363136
N84   N     N_1   0.171773 0.563010 0.757405 0.051003
N85   N     N_R   0.874418 0.554087 0.156542 0.275349
O157  O     O_R   0.893348 0.557961 0.236658 -0.222896
O158  O     O_R   0.910743 0.572505 0.161891 -0.266837
N86   N     N_R   0.868591 0.452025 0.179374 0.273748
O159  O     O_R   0.873491 0.465131 0.241996 -0.272005
O160  O     O_R   0.916070 0.428408 0.216737 -0.221918
N87   N     N_R   0.367953 0.047603 0.179219 0.272013
O161  O     O_R   0.377470 0.027322 0.244290 -0.274394
O162  O     O_R   0.412130 0.076679 0.214815 -0.219340
N88   N     N_R   0.375178 0.947693 0.156596 0.279458
O163  O     O_R   0.384515 0.926024 0.220539 -0.239400
O164  O     O_R   0.422613 0.950867 0.181364 -0.253970
C169  C     C_1   0.781897 0.544416 0.153596 0.310998
N89   N     N_1   0.818048 0.554904 0.238054 0.029809
C170  C     C_1   0.755730 0.442159 0.122988 0.248395
N90   N     N_1   0.779167 0.421051 0.193647 -0.022438
C171  C     C_1   0.258726 0.057806 0.126319 0.242484
N91   N     N_1   0.283422 0.078728 0.198080 -0.021934
C172  C     C_1   0.283560 0.955488 0.156014 0.319960
N92   N     N_1   0.320279 0.944719 0.240596 0.032522
C173  C     C_1   0.878138 0.719208 0.808662 0.261918
N93   N     N_1   0.827626 0.706371 0.729369 -0.105000
C174  C     C_1   0.878471 0.281783 0.809369 0.261358
N94   N     N_1   0.828107 0.295011 0.730393 -0.105836
C175  C     C_1   0.378932 0.216819 0.810276 0.261475
N95   N     N_1   0.328751 0.202998 0.731655 -0.106338
C176  C     C_1   0.378947 0.783056 0.810293 0.261479
N96   N     N_1   0.328772 0.796822 0.731683 -0.104597
C177  C     C_1   0.508365 0.150989 0.964759 0.315484
N97   N     N_1   0.511740 0.110025 0.950116 -0.068665
C178  C     C_1   0.508409 0.848991 0.964730 0.317251
N98   N     N_1   0.511800 0.889941 0.950075 -0.068096
C179  C     C_1   0.005888 0.651471 0.959786 0.315740
N99   N     N_1   0.008238 0.610703 0.943086 -0.068629
C180  C     C_1   0.007032 0.348760 0.961994 0.317045
N100  N     N_1   0.009863 0.389609 0.946225 -0.068146
C181  C     C_1   0.449884 0.316235 0.847411 0.317841
N101  N     N_1   0.429108 0.343453 0.784320 -0.087429
C182  C     C_1   0.449836 0.683653 0.847408 0.317576
N102  N     N_1   0.429045 0.656383 0.784317 -0.088147
C183  C     C_1   0.951611 0.818144 0.850847 0.318315
N103  N     N_1   0.931551 0.846153 0.789174 -0.088238
C184  C     C_1   0.950695 0.182651 0.849149 0.316584
N104  N     N_1   0.930260 0.154964 0.786786 -0.088740

loop_
_geom_bond_atom_site_label_1
_geom_bond_atom_site_label_2
_geom_bond_distance
_ccdc_geom_bond_type
C47   C77   1.547581 S    
N76   O156  1.300548 A    
C162  N78   1.158386 T    
N15   O66   1.300189 A    
Zn5   O21   1.975773 S    
C80   C184  1.468007 S    
C50   C82   1.195998 T    
C171  N91   1.157447 T    
C148  N28   1.157171 T    
O23   C19   1.278379 A    
C172  N92   1.157847 T    
C45   C61   1.547447 S    
N45   O109  1.303758 A    
C27   C151  1.489637 S    
C99   C115  1.569540 S    
C167  N83   1.158657 T    
Zn9   O29   1.975573 S    
N24   O83   1.300544 A    
C33   C34   1.545300 S    
C97   C113  1.568532 S    
C76   N8    1.458107 S    
C25   C149  1.491311 S    
O42   C14   1.290810 A    
C59   N15   1.458054 S    
C115  H15   1.109805 S    
C68   C144  1.467603 S    
C100  N32   1.490016 S    
C113  H13   1.108915 S    
N58   O127  1.305670 A    
O46   C2    1.291948 A    
C161  N77   1.158264 T    
C92   N20   1.482658 S    
N69   O142  1.303611 A    
C74   C80   1.540183 S    
O34   C22   1.288716 A    
C138  N2    1.158155 T    
Zn3   O3    1.962789 S    
C72   C88   1.451966 S    
Zn16  O28   1.975640 S    
Zn5   O13   1.968853 S    
C100  C116  1.572414 S    
C29   C37   1.612238 S    
C71   C79   1.545429 S    
C28   C40   1.613565 S    
C58   C68   1.540898 S    
N73   O150  1.301424 A    
C143  N11   1.156971 T    
Zn4   O40   1.968180 S    
C33   C37   1.598297 S    
O27   C23   1.277357 A    
C58   C62   1.541674 S    
C70   C86   1.451957 S    
O11   C7    1.291980 A    
H11   C115  1.106965 S    
C132  N76   1.497169 S    
C62   C74   1.541608 S    
N8    O60   1.300222 A    
C174  N94   1.156989 T    
C23   C39   1.513592 S    
C92   H8    1.111179 S    
N46   O111  1.301344 A    
N66   O136  1.298589 A    
C36   N88   1.475170 S    
C60   N16   1.458057 S    
C128  C136  1.631790 S    
N36   O99   1.299820 A    
C177  N97   1.156985 T    
C28   C152  1.491156 S    
C131  C132  1.639716 S    
N87   O162  1.301508 A    
N5    O53   1.300276 A    
O16   C12   1.282235 A    
C140  N4    1.158278 T    
Zn16  O4    1.962407 S    
C103  N43   1.487669 S    
N50   O119  1.302563 A    
Zn12  O4    1.960502 S    
N6    O56   1.300225 A    
Zn13  O5    1.907622 S    
C99   C155  1.479273 S    
C96   C148  1.492056 S    
C129  N73   1.491410 S    
C57   C61   1.541694 S    
C95   C147  1.491899 S    
C69   C85   1.452055 S    
N30   O87   1.301225 A    
Zn6   O14   1.968296 S    
O47   C3    1.291287 A    
C1    C54   1.418739 S    
H10   C114  1.108220 S    
C5    C49   1.418936 S    
C157  N61   1.158330 T    
N20   O76   1.297933 A    
C3    C56   1.418749 S    
C61   C73   1.541618 S    
C160  N64   1.158515 T    
C67   C143  1.467570 S    
N17   O70   1.300369 A    
C109  C117  1.618649 S    
C101  C105  1.632589 S    
N75   O154  1.301358 A    
O25   C21   1.285969 A    
C9    C112  1.508944 S    
C130  N74   1.497375 S    
C10   C111  1.507742 S    
N46   O112  1.297780 A    
C92   C108  1.590109 S    
C118  N50   1.495751 S    
N59   O129  1.305709 A    
C120  N48   1.491243 S    
C30   C38   1.602119 S    
C131  N71   1.502788 S    
C91   C107  1.604702 S    
C125  C133  1.629230 S    
N74   O151  1.303819 A    
O24   C20   1.277283 A    
C48   C176  1.468516 S    
C127  N67   1.489862 S    
C155  N55   1.158607 T    
C31   C171  1.485246 S    
C117  N45   1.488356 S    
Zn6   O46   1.908181 S    
C77   C181  1.468002 S    
Zn10  O2    1.960502 S    
C99   N31   1.486628 S    
C44   C46   1.547576 S    
N23   O82   1.298837 A    
C98   C154  1.483541 S    
Zn9   O49   1.908033 S    
C98   C106  1.608665 S    
C89   N17   1.480431 S    
C44   C58   1.540075 S    
N42   O104  1.294159 A    
C151  N39   1.157799 T    
Zn7   O23   1.975773 S    
C35   C39   1.589378 S    
Zn8   O24   1.975464 S    
N60   O131  1.305689 A    
N36   O100  1.302601 A    
C89   H5    1.109517 S    
C66   C142  1.467582 S    
O31   C19   1.282456 A    
N14   O63   1.300270 A    
C126  C166  1.487763 S    
N88   O164  1.301613 A    
N49   O117  1.299685 A    
O29   C17   1.282706 A    
N75   O153  1.303763 A    
C31   C163  1.487726 S    
C93   C109  1.615019 S    
C101  C117  1.607863 S    
C29   C30   1.605363 S    
C163  N79   1.158272 T    
C96   C112  1.627444 S    
Zn12  O52   1.907720 S    
C121  C133  1.642638 S    
N13   O61   1.300267 A    
C137  N1    1.158254 T    
C120  N52   1.496683 S    
O22   C18   1.277218 A    
C76   C78   1.540180 S    
N17   O69   1.302661 A    
Zn13  O41   1.968226 S    
O50   C6    1.291287 A    
C141  N9    1.156973 T    
C18   C134  1.522681 S    
N41   O102  1.298232 A    
Zn1   O37   1.967697 S    
Zn2   O34   1.976094 S    
C44   C72   1.545361 S    
Zn3   O39   1.967697 S    
C42   C178  1.468075 S    
C24   C40   1.515857 S    
C184  N104  1.156969 T    
C66   C76   1.541013 S    
N18   O71   1.302413 A    
N33   O94   1.302505 A    
Zn6   O22   1.975464 S    
C90   N18   1.482231 S    
C46   C62   1.547440 S    
C89   C93   1.598236 S    
C112  C120  1.613386 S    
C152  N40   1.157788 T    
C41   C47   1.547579 S    
C123  C135  1.642335 S    
N34   O96   1.301465 A    
C183  N103  1.156959 T    
Zn10  O50   1.907720 S    
N32   O92   1.299825 A    
C32   C40   1.610806 S    
C4    C55   1.418830 S    
C8    C52   1.418856 S    
C104  N44   1.479159 S    
N70   O143  1.294964 A    
C130  C134  1.662302 S    
C36   H4    1.112012 S    
N44   O107  1.303503 A    
C128  C168  1.489813 S    
O5    C1    1.291251 A    
N86   O159  1.297566 A    
O26   C22   1.275533 A    
C123  N59   1.502985 S    
N52   O124  1.302725 A    
C27   C139  1.488480 S    
N29   O85   1.302404 A    
N31   O90   1.303060 A    
C54   C86   1.195818 T    
N48   O116  1.296896 A    
C164  N80   1.158293 T    
C57   C67   1.540922 S    
C41   C177  1.468076 S    
C60   C64   1.541673 S    
C125  C126  1.621425 S    
Zn5   O45   1.907869 S    
C45   C79   1.547585 S    
C46   C80   1.547580 S    
C124  N60   1.497801 S    
Zn7   O47   1.907869 S    
N72   O147  1.294811 A    
C64   C76   1.541618 S    
Zn8   O48   1.908181 S    
N51   O122  1.302057 A    
C63   C75   1.541611 S    
N47   O114  1.298283 A    
N76   O155  1.303810 A    
N68   O140  1.298541 A    
C92   C96   1.587094 S    
O51   C7    1.291926 A    
C29   C161  1.489802 S    
O8    C4    1.291869 A    
C73   N5    1.458098 S    
N20   O75   1.302435 A    
C132  C136  1.662338 S    
N42   O103  1.303627 A    
O28   C24   1.285164 A    
N19   O73   1.302608 A    
O19   C15   1.272936 A    
O52   C8    1.291290 A    
C127  C135  1.629844 S    
N24   O84   1.303954 A    
O40   C12   1.284040 A    
Zn13  O1    1.960946 S    
Zn14  O6    1.907502 S    
Zn3   O11   1.907155 S    
N16   O67   1.300269 A    
C65   C141  1.467583 S    
C72   C80   1.545431 S    
C119  N47   1.490718 S    
N21   O78   1.298618 A    
C41   C69   1.545373 S    
O9    C5    1.291970 A    
N71   O146  1.303585 A    
C111  C115  1.566321 S    
C109  C113  1.563995 S    
O13   C9    1.289631 A    
N22   O79   1.303891 A    
C21   C37   1.516874 S    
O18   C14   1.277093 A    
O6    C2    1.291875 A    
N57   O126  1.298187 A    
C97   N29   1.490044 S    
N73   O149  1.303812 A    
C12   C109  1.508246 S    
Zn11  O31   1.975573 S    
C182  N102  1.156964 T    
Zn12  O32   1.975883 S    
C32   C164  1.489617 S    
Zn13  O25   1.976366 S    
N7    O57   1.300273 A    
C51   C83   1.196061 T    
C129  C130  1.639805 S    
C44   C180  1.468064 S    
Zn15  O3    1.960946 S    
C98   C114  1.572344 S    
Zn11  O3    1.961125 S    
C49   C81   1.196064 T    
C14   C106  1.511065 S    
C93   C145  1.491821 S    
C30   C162  1.488039 S    
C112  C116  1.576152 S    
C75   C77   1.540183 S    
O43   C15   1.296305 A    
C53   C85   1.195881 T    
N85   O158  1.302282 A    
C99   C107  1.611828 S    
C33   H1    1.111284 S    
C142  N10   1.156972 T    
C114  H14   1.102471 S    
C97   C105  1.614607 S    
C145  N25   1.157361 T    
C35   H3    1.114099 S    
C102  C106  1.638822 S    
C89   C105  1.605448 S    
C100  C108  1.616914 S    
O35   C23   1.287482 A    
C90   H6    1.112795 S    
C67   C73   1.541015 S    
C94   C146  1.491661 S    
C43   C45   1.547572 S    
N50   O120  1.303115 A    
C154  N54   1.158423 T    
O32   C20   1.291653 A    
C91   C95   1.595733 S    
C128  N68   1.493025 S    
N30   O88   1.300988 A    
C170  N90   1.157805 T    
Zn9   O17   1.968344 S    
C42   C60   1.540069 S    
C169  N89   1.157403 T    
N45   O110  1.298358 A    
N69   O141  1.301618 A    
C57   N13   1.458058 S    
Zn14  O42   1.967743 S    
C123  C124  1.618958 S    
O7    C3    1.291263 A    
C93   N21   1.488524 S    
C22   C38   1.512222 S    
Zn2   O38   1.968180 S    
C63   C83   1.452137 S    
C68   C74   1.541010 S    
Zn3   O35   1.975368 S    
C43   C179  1.468079 S    
C173  N93   1.156984 T    
C47   C63   1.547454 S    
N87   O161  1.298752 A    
C48   C64   1.547436 S    
N74   O152  1.300575 A    
O37   C9    1.278306 A    
C168  N84   1.157227 T    
C125  N65   1.489972 S    
C181  N101  1.156966 T    
C59   C65   1.540905 S    
C131  C135  1.653057 S    
O39   C11   1.277065 A    
C78   C182  1.468001 S    
C127  C128  1.621500 S    
C90   C94   1.584055 S    
C95   C111  1.612036 S    
C27   C39   1.612360 S    
C2    C53   1.418830 S    
C6    C50   1.418837 S    
H9    C113  1.106810 S    
C32   C172  1.478669 S    
C61   C81   1.452142 S    
C34   H2    1.114511 S    
N60   O132  1.299756 A    
O12   C8    1.291351 A    
C36   C40   1.600918 S    
C110  C118  1.620465 S    
N14   O64   1.300194 A    
C159  N63   1.158290 T    
C102  N42   1.478782 S    
C65   C69   1.544754 S    
N8    O59   1.300272 A    
C97   C153  1.478105 S    
C100  C156  1.481402 S    
C91   N19   1.480468 S    
Zn15  O43   1.968226 S    
C65   C75   1.541016 S    
C68   C72   1.544751 S    
C111  C119  1.621048 S    
N66   O135  1.299518 A    
C176  N96   1.156984 T    
N67   O137  1.302656 A    
C71   C87   1.452058 S    
C58   N14   1.458056 S    
C31   C39   1.601886 S    
C48   C78   1.547576 S    
C70   C78   1.545409 S    
N23   O81   1.303456 A    
N5    O54   1.300221 A    
N43   O105  1.298347 A    
N19   O74   1.300347 A    
C62   C82   1.452023 S    
C33   N85   1.477655 S    
N6    O55   1.300268 A    
C129  N69   1.503054 S    
N41   O101  1.298261 A    
Zn15  O27   1.976366 S    
C150  N38   1.157794 T    
C123  C159  1.498679 S    
C20   C136  1.522082 S    
N18   O72   1.298293 A    
N33   O93   1.297532 A    
C35   C36   1.544700 S    
N65   O134  1.306285 A    
C103  N35   1.495746 S    
C26   C150  1.489756 S    
C42   C48   1.547559 S    
O38   C10   1.282573 A    
C75   N7    1.458099 S    
C124  C136  1.656518 S    
N47   O113  1.303404 A    
C25   C26   1.612560 S    
Zn2   O2    1.961329 S    
N67   O138  1.306321 A    
Zn14  O2    1.962407 S    
C27   C28   1.610949 S    
C102  C118  1.618598 S    
C178  N98   1.156981 T    
C94   N22   1.485689 S    
N48   O115  1.299777 A    
C69   C77   1.545445 S    
C124  C160  1.500162 S    
C74   N6    1.458102 S    
C121  C122  1.619194 S    
C122  C134  1.656828 S    
Zn8   O4    1.961126 S    
Zn4   O36   1.976094 S    
C7    C51   1.418931 S    
C42   C70   1.545354 S    
O21   C17   1.277832 A    
C79   C183  1.467998 S    
N70   O144  1.303344 A    
C103  C107  1.633859 S    
Zn16  O44   1.967743 S    
C64   C84   1.452043 S    
N44   O108  1.293895 A    
C35   N87   1.476878 S    
O49   C5    1.291936 A    
N86   O160  1.300672 A    
C17   C133  1.506261 S    
C25   C37   1.611453 S    
Zn11  O19   1.968344 S    
N51   O121  1.298388 A    
N58   O128  1.299702 A    
C11   C110  1.508549 S    
C101  N33   1.495030 S    
Zn10  O30   1.975883 S    
N71   O145  1.301741 A    
C34   C38   1.593621 S    
C19   C135  1.506928 S    
Zn12  O20   1.968902 S    
N72   O148  1.303314 A    
Zn14  O26   1.975640 S    
C101  N41   1.489036 S    
Zn15  O7    1.907622 S    
N88   O163  1.295975 A    
Zn16  O8    1.907502 S    
Zn1   O9    1.907155 S    
N7    O58   1.300223 A    
C15   C107  1.511877 S    
C149  N37   1.157826 T    
C67   C71   1.544741 S    
C13   C105  1.511499 S    
Zn4   O12   1.907274 S    
Zn11  O51   1.908033 S    
C117  N49   1.502418 S    
N59   O130  1.298311 A    
C122  N58   1.497921 S    
Zn6   O2    1.961126 S    
C66   C70   1.544735 S    
N13   O62   1.300192 A    
Zn7   O15   1.968853 S    
C125  C165  1.498869 S    
Zn8   O16   1.968296 S    
C28   C140  1.490008 S    
Zn2   O10   1.907274 S    
C180  N100  1.156985 T    
C90   C106  1.592758 S    
N31   O89   1.302570 A    
C129  C133  1.653225 S    
N35   O97   1.297441 A    
C104  C120  1.614205 S    
C179  N99   1.156982 T    
N35   O98   1.302428 A    
C103  C119  1.610045 S    
C104  C108  1.639393 S    
C130  N70   1.492256 S    
C91   H7    1.109846 S    
C34   N86   1.475714 S    
C104  N36   1.503898 S    
C156  N56   1.158091 T    
C118  N46   1.492523 S    
C116  H16   1.101363 S    
C59   C63   1.541698 S    
C31   C32   1.606117 S    
C175  N95   1.156987 T    
Zn10  O18   1.968902 S    
H12   C116  1.108216 S    
Zn5   O1    1.960503 S    
N43   O106  1.298250 A    
C73   C79   1.540176 S    
C30   C170  1.485076 S    
C121  N57   1.503010 S    
C122  C158  1.500051 S    
Zn9   O1    1.961125 S    
N22   O80   1.301393 A    
C45   C173  1.468510 S    
C52   C84   1.196010 T    
C146  N26   1.157204 T    
C26   C138  1.488155 S    
O41   C13   1.292411 A    
N15   O65   1.300270 A    
C55   C87   1.195871 T    
N16   O68   1.300193 A    
C95   N23   1.488583 S    
N34   O95   1.300222 A    
C56   C88   1.195840 T    
C147  N27   1.157374 T    
N57   O125  1.305743 A    
C43   C57   1.540084 S    
C60   C66   1.540911 S    
O45   C1    1.291296 A    
N32   O91   1.302443 A    
C26   C38   1.614260 S    
C41   C59   1.540083 S    
C139  N3    1.157944 T    
C119  N51   1.502460 S    
O33   C21   1.280840 A    
C131  N75   1.491545 S    
C144  N12   1.156977 T    
O15   C11   1.290833 A    
Zn4   O4    1.961329 S    
C153  N53   1.158410 T    
C94   C110  1.621988 S    
Zn7   O3    1.960503 S    
C126  C134  1.631671 S    
C96   N24   1.485238 S    
N29   O86   1.301383 A    
C126  N66   1.492971 S    
O44   C16   1.283605 A    
N85   O157  1.295613 A    
N65   O133  1.302623 A    
O17   C13   1.276896 A    
O20   C16   1.284485 A    
O10   C6    1.291345 A    
C102  N34   1.506537 S    
C46   C174  1.468546 S    
O48   C4    1.291954 A    
C43   C71   1.545372 S    
N52   O123  1.302638 A    
C132  N72   1.492280 S    
C47   C175  1.468528 S    
C16   C108  1.511089 S    
C110  C114  1.576643 S    
C166  N82   1.156501 T    
O14   C10   1.283562 A    
C29   C169  1.477761 S    
C121  C157  1.498629 S    
Zn1   O1    1.962789 S    
C127  C167  1.498509 S    
N49   O118  1.303623 A    
C165  N81   1.158663 T    
N68   O139  1.299580 A    
C25   C137  1.490551 S    
Zn1   O33   1.975368 S    
C98   N30   1.484532 S    
O36   C24   1.281214 A    
C158  N62   1.158551 T    
O30   C18   1.292032 A    
N21   O77   1.303611 A    
