data_mof_unit_23036.cif
_audit_creation_date              2012-12-11T14:08:28-0500
_audit_creation_method            fapswitch 2.2
_symmetry_space_group_name_H-M    P1
_symmetry_Int_Tables_number       1
_space_group_crystal_system       triclinic
_cell_length_a                    11.016183
_cell_length_b                    11.003549
_cell_length_c                    18.794559
_cell_angle_alpha                 90.401614
_cell_angle_beta                  89.599528
_cell_angle_gamma                 59.774813
_cell_volume                      1968.31178958

loop_
_atom_site_label
_atom_site_type_symbol
_atom_type_description
_atom_site_fract_x
_atom_site_fract_y
_atom_site_fract_z
_atom_type_partial_charge
C1    C     C_R   0.231832 0.646777 0.607666 0.615855
C2    C     C_2   0.788981 0.119613 0.703689 -0.153849
C3    C     C_2   0.161364 0.667333 0.678063 0.290536
C4    C     C_R   0.653368 0.621820 0.601947 0.586911
C5    C     C_2   0.184680 0.665188 0.837572 -0.063741
C6    C     C_2   0.171001 0.570450 0.798479 -0.142149
C7    C     C_2   0.187582 0.555310 0.720223 0.073526
C8    C     C_2   0.665492 0.649345 0.323111 -0.101902
C9    C     C_2   0.634515 0.685771 0.164996 0.021128
C10   C     C_2   0.697261 0.563594 0.199526 -0.189553
C11   C     C_2   0.675857 0.553062 0.275056 -0.171333
C12   C     C_3   0.693427 0.563122 0.804851 -0.271878
C13   C     C_2   0.639578 0.185363 0.320712 0.015173
C14   C     C_2   0.633074 0.210012 0.161397 -0.087531
C15   C     C_2   0.521309 0.242026 0.202527 -0.032151
C16   C     C_R   0.628599 0.224838 0.601196 0.554896
C17   C     C_2   0.529715 0.266539 0.277893 -0.229612
C18   C     C_2   0.241184 0.633449 0.321377 -0.112079
C19   C     C_2   0.191190 0.645868 0.170608 -0.018872
C20   C     C_2   0.247509 0.714788 0.203308 0.218647
C21   C     C_2   0.303639 0.673530 0.274334 -0.180740
C22   C     C_R   0.736671 0.028702 0.892879 0.555418
C23   C     C_3   0.715630 0.690516 0.809662 -0.025324
C24   C     C_R   0.749857 0.707385 0.883049 0.522590
C25   C     C_R   0.117947 0.706325 0.907341 0.528135
C26   C     C_R   0.671479 0.116360 0.100277 0.578067
C27   C     C_R   0.693374 0.692772 0.096525 0.578396
C28   C     C_R   0.286196 0.620396 0.393100 0.554326
C29   C     C_R   0.098995 0.706490 0.110683 0.592453
C30   C     C_R   0.645956 0.624296 0.395748 0.529272
C31   C     C_R   0.616910 0.229524 0.394699 0.575544
C32   C     C_3   0.574088 0.817865 0.784213 -0.234893
C33   C     C_3   0.547844 0.794809 0.706173 -0.121535
C34   C     C_3   0.674432 0.650252 0.676885 0.097956
C35   C     C_3   0.840053 0.668891 0.760872 -0.198551
C36   C     C_2   0.852798 0.389223 0.716155 0.256462
C37   C     C_2   0.541666 0.169694 0.712398 0.205340
C38   C     C_2   0.217537 0.413367 0.694679 0.279337
C39   C     C_2   0.517577 0.819179 0.198058 0.240938
C40   C     C_2   0.385744 0.261570 0.176390 0.302287
C41   C     C_2   0.768095 0.052734 0.298803 0.210033
C42   C     C_2   0.402311 0.817765 0.698551 0.286852
C43   C     C_2   0.600621 0.465861 0.718138 0.264234
C44   C     C_3   0.802633 0.673916 0.681799 0.066805
C45   C     C_3   0.703897 0.517538 0.726287 0.025336
C46   C     C_2   0.663772 0.160354 0.672525 -0.009207
C47   C     C_2   0.758907 0.025116 0.815918 -0.038103
C48   C     C_2   0.811774 0.094458 0.781472 -0.088661
Cr1   Cr    Cr6+3 0.393010 0.398050 0.501480 1.095349
Cr2   Cr    Cr6+3 0.398820 0.707980 0.501630 1.045575
Cr3   Cr    Cr6+3 0.708140 0.393940 0.496850 1.116908
Cr4   Cr    Cr6+3 0.937950 0.938450 0.008940 1.063509
Cr5   Cr    Cr6+3 0.626180 0.937030 0.994750 1.102810
Cr6   Cr    Cr6+3 0.937790 0.625760 0.001410 1.049363
H1    H     H_    0.568184 0.919882 0.790189 0.117641
H2    H     H_    0.675653 0.458780 0.291980 0.155832
H3    H     H_    0.673183 0.740939 0.309514 0.100300
H4    H     H_    0.435434 0.355447 0.300366 0.128228
H5    H     H_    0.716975 0.223780 0.182935 0.088999
H6    H     H_    0.384708 0.694229 0.291805 0.120734
H7    H     H_    0.202456 0.549685 0.192349 0.062930
H8    H     H_    0.155602 0.615447 0.308091 0.115813
H9    H     H_    0.545563 0.881177 0.674603 0.032425
H10   H     H_    0.872855 0.746997 0.772034 0.112174
H11   H     H_    0.774594 0.780353 0.661812 0.091894
H12   H     H_    0.932114 0.565005 0.772731 0.151264
H13   H     H_    0.766693 0.473496 0.838468 0.117436
H14   H     H_    0.588920 0.593133 0.828888 0.150205
H15   H     H_    0.929270 0.355934 0.758464 0.088581
H16   H     H_    0.915277 0.611484 0.594696 0.335551
H17   H     H_    0.482148 0.125938 0.688875 0.107403
H18   H     H_    0.252894 0.328995 0.732704 0.122265
H19   H     H_    0.070215 0.870605 0.669026 0.329909
H20   H     H_    0.465782 0.817378 0.246294 0.095727
H21   H     H_    0.315471 0.250541 0.213095 0.120683
H22   H     H_    0.775440 0.003398 0.247638 0.116118
H23   H     H_    0.860380 0.144293 0.810396 0.134552
H24   H     H_    0.242543 0.892500 0.212663 0.337644
H25   H     H_    0.329348 0.896420 0.662171 0.136231
H26   H     H_    0.598239 0.397100 0.758344 0.140903
H27   H     H_    0.872871 0.117475 0.672621 0.178607
H28   H     H_    0.721058 0.970890 0.784308 0.070857
H29   H     H_    0.141927 0.501239 0.825113 0.122365
H30   H     H_    0.218860 0.731998 0.814691 0.222189
H31   H     H_    0.486884 0.829946 0.819536 0.182513
H32   H     H_    0.773155 0.467033 0.172313 0.158036
O1    O     O_R   0.507110 0.256280 0.580300 -0.497513
O2    O     O_R   0.837080 0.593860 0.915300 -0.519513
O3    O     O_R   0.064770 0.636080 0.932550 -0.510125
O4    O     O_R   0.280830 0.527190 0.577940 -0.438141
O5    O     O_R   0.068250 0.829200 0.092940 -0.435061
O6    O     O_R   0.799650 0.057040 0.080330 -0.513467
O7    O     O_R   0.586130 0.079760 0.077080 -0.415577
O8    O     O_R   0.627700 0.809630 0.066580 -0.436018
O9    O     O_R   0.816140 0.597180 0.075920 -0.517900
O10   O     O_R   0.045360 0.639170 0.081440 -0.493459
O11   O     O_3   0.833980 0.833750 0.001700 -0.324404
O12   O     O_R   0.524640 0.695370 0.425100 -0.527368
O13   O     O_R   0.261360 0.738990 0.584270 -0.514293
O14   O     O_R   0.532590 0.694780 0.574370 -0.514459
O15   O     O_R   0.744470 0.503750 0.577000 -0.413626
O16   O     O_R   0.698520 0.277230 0.571620 -0.448344
O17   O     O_R   0.498530 0.256920 0.419280 -0.535688
O18   O     O_R   0.272880 0.527780 0.428680 -0.503779
O19   O     O_R   0.252780 0.739630 0.423250 -0.477685
O20   O     O_2   0.891999 0.320775 0.661071 -0.451472
O21   O     O_3   0.919388 0.572780 0.642780 -0.634442
O22   O     O_2   0.501855 0.233313 0.769087 -0.535908
O23   O     O_R   0.735890 0.504390 0.415980 -0.504057
O24   O     O_2   0.190145 0.390463 0.635092 -0.440190
O25   O     O_3   0.083145 0.801994 0.706264 -0.739538
O26   O     O_2   0.478181 0.934730 0.172628 -0.474930
O27   O     O_2   0.347279 0.298581 0.115569 -0.472487
O28   O     O_2   0.867184 0.994860 0.339159 -0.488333
O29   O     O_3   0.240571 0.832657 0.173561 -0.639022
O30   O     O_2   0.364130 0.751031 0.733819 -0.518343
O31   O     O_2   0.518599 0.500420 0.669085 -0.457529
O32   O     O_R   0.690560 0.277820 0.422350 -0.487317
O33   O     O_3   0.499990 0.499990 0.499980 -0.283297
O34   O     O_R   0.089190 0.825870 0.932320 -0.510487
O35   O     O_R   0.819070 0.053960 0.931440 -0.506577
O36   O     O_R   0.607070 0.076440 0.916460 -0.470385
O37   O     O_R   0.647110 0.806550 0.917690 -0.523574

loop_
_geom_bond_atom_site_label_1
_geom_bond_atom_site_label_2
_ccdc_geom_bond_type
C1    O4    A    
C18   C21   D    
Cr1   O1    S    
C27   O9    A    
H24   O29   S    
C41   O28   D    
C1    O13   A    
Cr1   O18   S    
C13   C41   S    
C2    C46   D    
Cr3   O16   S    
C14   H5    S    
C12   H14   S    
C12   C23   S    
Cr2   O13   S    
C33   C42   S    
C3    C7    D    
H16   O21   S    
C5    C6    D    
C39   H20   S    
C26   O6    A    
Cr4   O11   S    
C9    C39   S    
Cr3   O32   S    
C29   O10   A    
C47   H28   S    
C40   O27   D    
C3    O25   S    
Cr2   O19   S    
Cr3   O33   S    
C23   C24   S    
Cr6   O11   S    
C22   O36   A    
C35   H10   S    
C38   O24   D    
C9    C10   D    
Cr1   O4    S    
C32   H1    S    
Cr6   O10   S    
C17   H4    S    
C26   O7    A    
C22   C47   S    
C42   H25   S    
Cr3   O23   S    
C44   H11   S    
C37   O22   D    
H19   O25   S    
C4    C34   S    
C12   H13   S    
C38   H18   S    
Cr2   O12   S    
C30   O23   A    
C36   O20   D    
Cr2   O33   S    
C34   C44   S    
Cr6   O3    S    
Cr5   O37   S    
C16   C46   S    
C5    H30   S    
C18   H8    S    
C35   H12   S    
Cr5   O11   S    
C43   H26   S    
Cr5   O7    S    
C24   O37   A    
C1    C3    S    
C31   O17   A    
C48   H23   S    
C31   O32   A    
C8    H3    S    
C16   O1    A    
C24   O2    A    
Cr4   O35   S    
C28   O18   A    
C47   C48   D    
C28   O19   A    
C33   H9    S    
C4    O15   A    
C33   C34   S    
C18   C28   S    
C36   C45   S    
C34   C45   S    
C14   C26   S    
C35   C44   S    
C43   C45   S    
Cr6   O9    S    
C21   H6    S    
C5    C25   S    
Cr4   O34   S    
C42   O30   D    
C39   O26   D    
C43   O31   D    
C23   C35   S    
C4    O14   A    
Cr4   O6    S    
C19   C29   S    
C25   O34   A    
C29   O5    A    
C36   H15   S    
C9    C27   S    
C22   O35   A    
C44   O21   S    
C16   O16   A    
C15   C17   S    
C10   H32   S    
C6    H29   S    
Cr5   O8    S    
Cr2   O14   S    
C13   C31   S    
C12   C45   S    
C2    H27   S    
Cr1   O17   S    
C20   O29   S    
C6    C7    S    
Cr3   O15   S    
C30   O12   A    
C25   O3    A    
C40   H21   S    
C13   C17   D    
Cr5   O36   S    
C2    C48   S    
C23   C32   S    
C19   C20   D    
C37   H17   S    
C27   O8    A    
C8    C30   S    
C32   C33   S    
C41   H22   S    
Cr6   O2    S    
Cr1   O33   S    
C19   H7    S    
C8    C11   D    
C32   H31   S    
C7    C38   S    
C15   C40   S    
C10   C11   S    
C20   C21   S    
C14   C15   D    
Cr4   O5    S    
C37   C46   S    
C11   H2    S    
