data_mof_unit_5926.cif
_audit_creation_date              2012-12-10T16:59:21-0500
_audit_creation_method            fapswitch 2.2
_symmetry_space_group_name_H-M    P1
_symmetry_Int_Tables_number       1
_space_group_crystal_system       triclinic
_cell_length_a                    19.26189
_cell_length_b                    10.924904
_cell_length_c                    9.764968
_cell_angle_alpha                 89.678055
_cell_angle_beta                  89.738183
_cell_angle_gamma                 92.695802
_cell_volume                      2052.55366743

loop_
_atom_site_label
_atom_site_type_symbol
_atom_type_description
_atom_site_fract_x
_atom_site_fract_y
_atom_site_fract_z
_atom_type_partial_charge
C1    C     C_R   0.503761 0.265757 0.500608 0.752804
C2    C     C_R   0.291619 0.531786 0.498443 -0.278681
C3    C     C_R   0.928768 0.476258 0.491691 0.484405
C4    C     C_R   0.069307 0.489006 0.484739 0.475624
C5    C     C_R   0.820117 0.524218 0.612748 0.448932
C6    C     C_R   0.747389 0.532791 0.611416 -0.286210
C7    C     C_R   0.708196 0.490298 0.499325 -0.114255
C8    C     C_R   0.741496 0.437980 0.387777 -0.189999
C9    C     C_R   0.813363 0.429002 0.386806 0.106783
C10   C     C_R   0.852917 0.474396 0.497894 -0.060107
C11   C     C_2   0.502860 0.936049 0.386858 0.551227
C12   C     C_R   0.367907 0.512752 0.500145 0.857715
C13   C     C_2   0.491379 0.865906 0.498882 -0.341842
C14   C     C_2   0.488777 0.066540 0.399463 -0.359016
C15   C     C_2   0.516591 0.134844 0.500660 0.285695
C16   C     C_2   0.454660 0.435715 0.922329 0.195223
C17   C     C_2   0.452470 0.441161 0.077503 0.515488
C18   C     C_R   0.499497 0.734618 0.499503 0.860275
C19   C     C_R   0.632384 0.498349 0.499722 0.825853
C20   C     C_R   0.251890 0.544141 0.619586 0.120832
C21   C     C_R   0.178907 0.533623 0.613744 0.389143
C22   C     C_R   0.145602 0.506027 0.488214 -0.184185
C23   C     C_R   0.184906 0.510244 0.366162 0.093757
C24   C     C_R   0.256560 0.537683 0.372097 0.132740
Cu1   Cu    Cu3+1 0.500010 0.500020 0.638630 0.987775
Cu2   Cu    Cu3+1 0.499990 0.499980 0.361370 1.032498
H1    H     H_    0.471507 0.905439 0.592390 0.114827
H2    H     H_    0.452932 0.104520 0.327620 0.087976
H3    H     H_    0.549241 0.495188 0.880054 0.205974
H4    H     H_    0.721359 0.575966 0.695341 0.162008
H5    H     H_    0.711580 0.402580 0.301798 0.182382
N1    N     N_R   0.032260 0.551183 0.391749 -0.206116
N2    N     N_R   0.963218 0.544316 0.394508 -0.208269
N3    N     N_R   0.965481 0.415502 0.586404 -0.205990
N4    N     N_R   0.034659 0.421667 0.582845 -0.172424
N5    N     N_2   0.499250 0.498660 0.846910 -0.297050
N6    N     N_2   0.499230 0.498630 0.153040 -0.161515
O1    O     O_R   0.500010 0.321960 0.617040 -0.573354
O2    O     O_R   0.499990 0.321920 0.382900 -0.615488
O3    O     O_R   0.400160 0.500010 0.617110 -0.519339
O4    O     O_R   0.400130 0.499970 0.382960 -0.526288
O5    O     O_R   0.500010 0.678080 0.617100 -0.573122
O6    O     O_R   0.499990 0.678040 0.382960 -0.505159
O7    O     O_R   0.599870 0.500030 0.617040 -0.603107
O8    O     O_R   0.599840 0.499990 0.382890 -0.548354
I1    I     I_    0.296361 0.610251 0.806365 -0.235713
O9    O     O_3   0.570001 0.088506 0.578622 -0.601398
C25   C     C_3   0.558566 0.100846 0.721057 0.055903
H6    H     H_    0.563964 0.009283 0.768805 0.159790
H7    H     H_    0.505417 0.128726 0.748826 0.154478
C26   C     C_3   0.614538 0.188738 0.781643 -0.300862
H8    H     H_    0.666643 0.152597 0.762190 0.227984
H9    H     H_    0.613262 0.279736 0.731302 0.241648
C27   C     C_3   0.604611 0.204269 0.935544 -0.918688
H10   H     H_    0.551547 0.234258 0.958682 0.241040
H11   H     H_    0.643060 0.274601 0.974164 0.265637
H12   H     H_    0.612900 0.116443 0.989244 0.255187
I2    I     I_    0.381864 0.307098 0.829939 -0.355051
O10   O     O_3   0.388647 0.409366 0.137648 -0.546545
C28   C     C_3   0.380839 0.283931 0.172374 0.077108
H13   H     H_    0.395014 0.272394 0.280371 0.172409
H14   H     H_    0.412644 0.223941 0.107776 0.107814
C29   C     C_3   0.303575 0.244404 0.164864 -0.281238
H15   H     H_    0.274789 0.293968 0.244552 0.233453
H16   H     H_    0.281930 0.269126 0.063851 0.275177
C30   C     C_3   0.291398 0.107010 0.188333 -0.903419
H17   H     H_    0.313807 0.055991 0.102207 0.275288
H18   H     H_    0.234694 0.083796 0.193050 0.280277
H19   H     H_    0.315239 0.078650 0.286197 0.245948
I3    I     I_    0.578797 0.625714 0.092605 -0.333104
O11   O     O_3   0.140427 0.544707 0.732911 -0.552065
C31   C     C_3   0.113409 0.662896 0.737761 0.075056
H20   H     H_    0.087003 0.687186 0.640735 0.135561
H21   H     H_    0.155986 0.732963 0.757132 0.161640
C32   C     C_3   0.060312 0.666104 0.854291 -0.268993
H22   H     H_    0.019591 0.591803 0.839849 0.252365
H23   H     H_    0.086748 0.650462 0.953211 0.258322
C33   C     C_3   0.025780 0.788828 0.859630 -0.870903
H24   H     H_    0.065482 0.864762 0.873521 0.264524
H25   H     H_    0.988848 0.788714 0.947272 0.263334
H26   H     H_    0.996546 0.804224 0.763731 0.271079
I4    I     I_    0.139729 0.464153 0.172092 -0.254244
I5    I     I_    0.302589 0.640173 0.205523 -0.261730
O12   O     O_3   0.861413 0.578591 0.714366 -0.613473
C34   C     C_3   0.837103 0.549851 0.848462 0.071503
H27   H     H_    0.881559 0.515411 0.907077 0.198293
H28   H     H_    0.795346 0.475580 0.853538 0.136211
C35   C     C_3   0.813402 0.666199 0.918115 -0.360954
H29   H     H_    0.856368 0.737718 0.914701 0.238564
H30   H     H_    0.768451 0.702145 0.862615 0.222837
C36   C     C_3   0.792570 0.642052 0.067121 -0.818472
H31   H     H_    0.751557 0.567286 0.074099 0.268323
H32   H     H_    0.772033 0.726327 0.111926 0.270828
H33   H     H_    0.838469 0.616502 0.127422 0.275634
I6    I     I_    0.858634 0.340615 0.217254 -0.371125
O13   O     O_3   0.534527 0.887423 0.271550 -0.561072
C37   C     C_3   0.514945 0.942239 0.146786 0.070336
H34   H     H_    0.553223 0.916394 0.067917 0.187389
H35   H     H_    0.518347 0.043972 0.148862 0.125158
C38   C     C_3   0.442958 0.892241 0.102220 -0.334562
H36   H     H_    0.441783 0.790483 0.103243 0.278917
H37   H     H_    0.403092 0.922223 0.175549 0.209331
C39   C     C_3   0.425404 0.935891 0.958366 -0.895020
H38   H     H_    0.428275 0.037528 0.953131 0.249208
H39   H     H_    0.371905 0.902323 0.931594 0.287407
H40   H     H_    0.462080 0.899182 0.882570 0.257601

loop_
_geom_bond_atom_site_label_1
_geom_bond_atom_site_label_2
_ccdc_geom_bond_type
C11   O13   S    
C30   H18   S    
C29   H16   S    
C23   I4    S    
C15   O9    S    
C2    C12   S    
C37   H34   S    
C7    C8    A    
C34   H27   S    
H3    N5    S    
C13   C18   S    
C21   O11   S    
C28   C29   S    
C24   I5    S    
C18   O5    A    
Cu1   O3    S    
C5    C6    A    
C11   C14   S    
C33   H25   S    
Cu2   O2    S    
C30   H19   S    
C3    N2    A    
C28   H14   S    
N3    N4    A    
Cu2   O8    S    
C25   C26   S    
C8    C9    A    
C23   C24   A    
C1    C15   S    
C9    C10   A    
C9    I6    S    
C25   H7    S    
C30   H17   S    
C29   C30   S    
O10   C28   S    
C21   C22   A    
C31   C32   S    
Cu1   O7    S    
C37   H35   S    
Cu2   O6    S    
C34   H28   S    
C27   H11   S    
C2    C20   A    
C26   H8    S    
O12   C34   S    
C31   H21   S    
C36   H31   S    
C5    O12   S    
C33   H24   S    
C16   C17   S    
C17   N6    D    
C3    N3    A    
Cu1   Cu2   S    
C38   C39   S    
C28   H13   S    
C26   H9    S    
C12   O3    A    
C32   H22   S    
C12   O4    A    
Cu1   O1    S    
C36   H32   S    
C4    C22   S    
O9    C25   S    
C35   C36   S    
O13   C37   S    
C38   H37   S    
C39   H39   S    
C16   I2    S    
C35   H29   S    
C32   H23   S    
C4    N1    A    
C1    O1    A    
C17   O10   S    
C25   H6    S    
C6    H4    S    
C35   H30   S    
C7    C19   S    
C2    C24   A    
C37   C38   S    
C19   O7    A    
C34   C35   S    
C27   H10   S    
C14   C15   D    
C8    H5    S    
C31   H20   S    
Cu1   O5    S    
C19   O8    A    
Cu2   N6    S    
C6    C7    A    
C26   C27   S    
N1    N2    A    
C5    C10   A    
C3    C10   S    
C18   O6    A    
C16   N5    D    
C36   H33   S    
C11   C13   D    
C33   H26   S    
C38   H36   S    
C39   H40   S    
C32   C33   S    
C4    N4    A    
C1    O2    A    
Cu1   N5    S    
C29   H15   S    
O11   C31   S    
C20   C21   A    
C39   H38   S    
C22   C23   A    
C13   H1    S    
C14   H2    S    
N6    I3    S    
C20   I1    S    
Cu2   O4    S    
C27   H12   S    
