data_mof_unit_34971.cif
_audit_creation_date              2012-10-26T20:40:12-0400
_audit_creation_method            fapswitch 2.2
_symmetry_space_group_name_H-M    P1
_symmetry_Int_Tables_number       1
_space_group_crystal_system       triclinic
_cell_length_a                    15.064413
_cell_length_b                    10.750084
_cell_length_c                    9.616019
_cell_angle_alpha                 89.778755
_cell_angle_beta                  89.739697
_cell_angle_gamma                 92.191261
_cell_volume                      1556.08627269

loop_
_atom_site_label
_atom_site_type_symbol
_atom_type_description
_atom_site_fract_x
_atom_site_fract_y
_atom_site_fract_z
_atom_type_partial_charge
C1    C     C_R   0.501424 0.262861 0.500246 0.539164
C2    C     C_R   0.185508 0.480911 0.376002 -0.141969
C3    C     C_R   0.231886 0.503043 0.500017 -0.014419
C4    C     C_R   0.328774 0.500357 0.500238 0.547533
C5    C     C_R   0.185557 0.529453 0.622541 -0.140805
C6    C     C_R   0.665851 0.137055 0.557465 -0.094770
C7    C     C_R   0.744818 0.075235 0.580971 0.010710
C8    C     C_R   0.744098 0.945206 0.574784 -0.121270
C9    C     C_R   0.665805 0.877381 0.546254 -0.137836
C10   C     C_R   0.585618 0.938131 0.525043 0.019528
C11   C     C_R   0.585769 0.069460 0.528497 0.014158
C12   C     C_R   0.907380 0.536645 0.619457 0.006778
C13   C     C_R   0.505699 0.129194 0.500560 0.008623
C14   C     C_R   0.427849 0.060803 0.469241 -0.152006
C15   C     C_R   0.427467 0.932275 0.468774 -0.142980
C16   C     C_R   0.500439 0.737183 0.499555 0.531584
C17   C     C_R   0.505179 0.871152 0.498128 0.015159
C18   C     C_R   0.618886 0.663304 0.142561 -0.085609
C19   C     C_R   0.677723 0.742166 0.069835 -0.174756
C20   C     C_R   0.677705 0.742277 0.926559 -0.177482
C21   C     C_R   0.618859 0.663492 0.855284 -0.088515
C22   C     C_R   0.558467 0.580212 0.924743 0.155915
C23   C     C_R   0.954365 0.462656 0.245772 -0.002606
C24   C     C_R   0.558472 0.580148 0.074147 0.155233
C25   C     C_R   0.444382 0.423728 0.074541 -0.004245
C26   C     C_R   0.444410 0.423755 0.926770 -0.005301
C27   C     C_R   0.671214 0.502256 0.499605 0.514590
C28   C     C_R   0.815026 0.533174 0.620343 -0.157481
C29   C     C_R   0.768155 0.507298 0.498082 -0.027715
C30   C     C_R   0.813770 0.487175 0.373428 -0.150801
C31   C     C_R   0.906735 0.487230 0.369881 0.016602
C32   C     C_R   0.953541 0.512061 0.494862 0.044273
C33   C     C_3   0.829673 0.146716 0.616159 -0.261335
C34   C     C_R   0.047282 0.461265 0.249886 -0.131300
C35   C     C_3   0.896810 0.144862 0.495831 -0.293772
C36   C     C_3   0.989345 0.187601 0.544163 -0.442773
C37   C     C_3   0.909465 0.439859 0.107011 -0.260162
C38   C     C_3   0.869478 0.306907 0.096401 -0.298256
C39   C     C_3   0.823424 0.287233 0.956827 -0.452519
C40   C     C_R   0.093209 0.484329 0.373542 -0.006689
C41   C     C_R   0.046623 0.510788 0.496351 0.048736
C42   C     C_R   0.093134 0.533895 0.621468 0.010804
C43   C     C_R   0.046525 0.560954 0.743311 -0.143965
C44   C     C_R   0.954170 0.563099 0.741937 -0.148013
Cu1   Cu    Cu3+1 0.499990 0.499990 0.640660 0.918341
Cu2   Cu    Cu3+1 0.500010 0.500010 0.359340 0.920115
H1    H     H_    0.779752 0.550512 0.716449 0.123926
H2    H     H_    0.623608 0.672146 0.745943 0.180569
H3    H     H_    0.775753 0.469622 0.280166 0.138842
H4    H     H_    0.398776 0.361182 0.872290 0.116251
H5    H     H_    0.084204 0.441514 0.155927 0.098405
H6    H     H_    0.221172 0.460125 0.281180 0.122339
H7    H     H_    0.221318 0.547455 0.718434 0.126741
H8    H     H_    0.081443 0.580038 0.839646 0.104059
H9    H     H_    0.919052 0.585078 0.836662 0.103780
H10   H     H_    0.366924 0.107328 0.446712 0.110114
H11   H     H_    0.986544 0.276032 0.602671 0.169545
H12   H     H_    0.667580 0.237647 0.561453 0.124818
H13   H     H_    0.017317 0.115946 0.613087 0.146444
H14   H     H_    0.033938 0.201893 0.452759 0.151359
H15   H     H_    0.900813 0.049545 0.452415 0.162120
H16   H     H_    0.874942 0.207631 0.411665 0.167211
H17   H     H_    0.816011 0.245218 0.640412 0.144517
H18   H     H_    0.858283 0.104743 0.711045 0.140440
H19   H     H_    0.767957 0.351739 0.945655 0.163208
H20   H     H_    0.871702 0.304173 0.870562 0.151036
H21   H     H_    0.796135 0.190036 0.950067 0.145340
H22   H     H_    0.923216 0.239394 0.106444 0.159988
H23   H     H_    0.804464 0.895987 0.592636 0.111031
H24   H     H_    0.820429 0.287457 0.180893 0.160947
H25   H     H_    0.858329 0.509869 0.088819 0.137878
H26   H     H_    0.958881 0.453277 0.021645 0.136788
H27   H     H_    0.668889 0.777262 0.539825 0.099684
H28   H     H_    0.366211 0.880075 0.446501 0.118844
H29   H     H_    0.398711 0.361138 0.130126 0.112726
H30   H     H_    0.623652 0.672223 0.252061 0.183686
H31   H     H_    0.723302 0.804240 0.125395 0.121240
H32   H     H_    0.723305 0.804369 0.869869 0.121736
N1    N     N_R   0.500860 0.501210 0.147910 -0.243188
N2    N     N_R   0.500890 0.501290 0.852040 -0.243408
O1    O     O_R   0.499990 0.319640 0.618810 -0.498175
O2    O     O_R   0.500000 0.319660 0.381240 -0.495399
O3    O     O_R   0.370250 0.499960 0.618800 -0.503111
O4    O     O_R   0.370260 0.499980 0.381230 -0.504398
O5    O     O_R   0.500000 0.680340 0.618760 -0.513437
O6    O     O_R   0.500010 0.680360 0.381190 -0.515567
O7    O     O_R   0.629740 0.500020 0.618770 -0.530768
O8    O     O_R   0.629750 0.500040 0.381200 -0.526658

loop_
_geom_bond_atom_site_label_1
_geom_bond_atom_site_label_2
_ccdc_geom_bond_type
C14   H10   S    
C5    C42   A    
C38   H24   S    
C28   H1    S    
C27   C29   S    
C39   H19   S    
C41   C42   A    
C6    H12   S    
C35   C36   S    
C36   H13   S    
C7    C8    A    
Cu1   Cu2   S    
C8    H23   S    
C29   C30   A    
C12   C28   A    
C34   C40   A    
C5    H7    S    
C28   C29   A    
Cu1   O7    S    
C26   H4    S    
C30   C31   A    
C10   C17   A    
C1    O1    A    
C18   C19   A    
C19   H31   S    
C43   H8    S    
Cu2   O2    S    
Cu2   N1    S    
C19   C20   A    
C8    C9    A    
C32   C41   A    
C18   C24   A    
Cu1   N2    S    
C9    C10   A    
C21   H2    S    
C13   C14   A    
C12   C32   A    
C16   O6    A    
C7    C33   S    
Cu1   O3    S    
C9    H27   S    
Cu2   O8    S    
C36   H11   S    
C6    C11   A    
C16   C17   S    
C36   H14   S    
C25   C26   A    
C23   C37   S    
C26   N2    A    
C25   H29   S    
C23   C31   A    
Cu1   O5    S    
C43   C44   A    
C37   C38   S    
C24   N1    A    
C31   C32   A    
C4    O4    A    
C33   H17   S    
C23   C34   A    
C34   H5    S    
C35   H15   S    
C27   O7    A    
C2    H6    S    
Cu2   O4    S    
C40   C41   A    
C30   H3    S    
C38   H22   S    
C37   H25   S    
C16   O5    A    
C39   H20   S    
C22   C24   A    
C1    C13   S    
C42   C43   A    
C3    C4    S    
C15   C17   A    
C18   H30   S    
C25   N1    A    
C39   H21   S    
Cu1   O1    S    
C3    C5    A    
C6    C7    A    
C20   H32   S    
C2    C3    A    
C1    O2    A    
C22   N2    A    
C12   C44   A    
C11   C13   A    
C44   H9    S    
C38   C39   S    
C4    O3    A    
C33   H18   S    
C33   C35   S    
C35   H16   S    
C27   O8    A    
C10   C11   A    
C2    C40   A    
C15   H28   S    
C20   C21   A    
C37   H26   S    
C14   C15   A    
C21   C22   A    
Cu2   O6    S    
