data_mof_unit_18174.cif
_audit_creation_date              2012-12-11T16:44:10-0500
_audit_creation_method            fapswitch 2.2
_symmetry_space_group_name_H-M    P1
_symmetry_Int_Tables_number       1
_space_group_crystal_system       triclinic
_cell_length_a                    27.209337
_cell_length_b                    7.199163
_cell_length_c                    22.776362
_cell_angle_alpha                 89.992713
_cell_angle_beta                  101.357719
_cell_angle_gamma                 90.030021
_cell_volume                      4374.16331032

loop_
_atom_site_label
_atom_site_type_symbol
_atom_type_description
_atom_site_fract_x
_atom_site_fract_y
_atom_site_fract_z
_atom_type_partial_charge
O1    O     O_R   0.707300 0.594030 0.176840 -0.540037
O2    O     O_R   0.292700 0.405970 0.823160 -0.539691
O3    O     O_R   0.792700 0.094030 0.323160 -0.539763
O4    O     O_R   0.207300 0.905970 0.676840 -0.538831
O5    O     O_R   0.697330 0.262360 0.295660 -0.507306
O6    O     O_R   0.302670 0.737640 0.704340 -0.507181
O7    O     O_R   0.802670 0.762360 0.204340 -0.510338
O8    O     O_R   0.197330 0.237640 0.795660 -0.504004
C1    C     C_R   0.685639 0.432447 0.312825 0.787909
C2    C     C_R   0.314373 0.567554 0.687190 0.787362
C3    C     C_R   0.814392 0.932494 0.187259 0.790597
C4    C     C_R   0.185594 0.067435 0.812890 0.785731
O9    O     O_R   0.701410 0.264250 0.175600 -0.535702
O10   O     O_R   0.298590 0.735750 0.824400 -0.536345
O11   O     O_R   0.798590 0.764250 0.324400 -0.534568
O12   O     O_R   0.201410 0.235750 0.675600 -0.535972
O13   O     O_R   0.796800 0.094950 0.202240 -0.545028
O14   O     O_R   0.203200 0.905050 0.797760 -0.547878
O15   O     O_R   0.703200 0.594950 0.297760 -0.546676
O16   O     O_R   0.296800 0.405050 0.702240 -0.546992
C5    C     C_R   0.689700 0.432772 0.153513 0.695167
C6    C     C_R   0.310298 0.567218 0.846485 0.695847
C7    C     C_R   0.810305 0.932824 0.346480 0.699088
C8    C     C_R   0.189693 0.067176 0.653518 0.696292
O17   O     O_3   0.781290 0.427390 0.258880 -0.371381
O18   O     O_3   0.218710 0.572610 0.741120 -0.370783
O19   O     O_3   0.718710 0.927390 0.241120 -0.372154
O20   O     O_3   0.281290 0.072610 0.758880 -0.372129
V1    V     V_3+5 0.744190 0.152150 0.248350 1.498276
V2    V     V_3+5 0.255810 0.847850 0.751650 1.497848
V3    V     V_3+5 0.755810 0.652150 0.251650 1.496465
V4    V     V_3+5 0.244190 0.347850 0.748350 1.500162
C9    C     C_R   0.154858 0.059238 0.595063 -0.070782
C10   C     C_R   0.845134 0.940846 0.404932 -0.071193
C11   C     C_R   0.345192 0.559335 0.904877 -0.064583
C12   C     C_R   0.654881 0.440499 0.095051 -0.070654
C13   C     C_R   0.141734 0.078541 0.486655 0.215640
C14   C     C_R   0.858135 0.925127 0.513388 0.216118
C15   C     C_R   0.358479 0.577190 0.013149 0.202322
C16   C     C_R   0.641739 0.419707 0.986671 0.216029
C17   C     C_R   0.173692 0.081548 0.542946 -0.213309
C18   C     C_R   0.826244 0.920053 0.457068 -0.213945
C19   C     C_R   0.326445 0.581232 0.957076 -0.232891
C20   C     C_R   0.673687 0.416986 0.042967 -0.214980
C21   C     C_R   0.103241 0.032296 0.591333 -0.190962
C22   C     C_R   0.896752 0.967699 0.408656 -0.188989
C23   C     C_R   0.396819 0.532181 0.908535 -0.191171
C24   C     C_R   0.603296 0.468095 0.091288 -0.192447
C25   C     C_R   0.069267 0.027855 0.535027 0.041153
C26   C     C_R   0.930704 0.972790 0.464971 0.040636
C27   C     C_R   0.430838 0.527653 0.964842 0.034200
C28   C     C_R   0.569320 0.471863 0.034984 0.041376
C29   C     C_R   0.089551 0.051339 0.482478 0.106302
C30   C     C_R   0.910378 0.950515 0.517537 0.108254
C31   C     C_R   0.410578 0.550787 0.017392 0.127584
C32   C     C_R   0.589588 0.447604 0.982458 0.109974
C33   C     C_R   0.016013 0.001415 0.529092 0.066395
C34   C     C_R   0.983977 0.998625 0.470896 0.065326
C35   C     C_R   0.484077 0.501361 0.970805 0.067372
C36   C     C_R   0.516083 0.498475 0.029029 0.069179
C37   C     C_R   0.006297 0.021494 0.420517 -0.170471
C38   C     C_R   0.993726 0.977532 0.579455 -0.172173
C39   C     C_R   0.493765 0.522019 0.079399 -0.186349
C40   C     C_R   0.506383 0.478096 0.920446 -0.176303
C41   C     C_R   0.057560 0.046801 0.426258 -0.147838
C42   C     C_R   0.942444 0.952775 0.573723 -0.148039
C43   C     C_R   0.442503 0.547416 0.073616 -0.143833
C44   C     C_R   0.557617 0.452111 0.926223 -0.157359
H1    H     H_    0.072022 0.062885 0.385523 0.184515
H2    H     H_    0.928044 0.934735 0.614425 0.183039
H3    H     H_    0.427933 0.564645 0.114244 0.185820
H4    H     H_    0.572077 0.435597 0.885506 0.176444
H5    H     H_    0.908912 0.982920 0.366703 0.127675
H6    H     H_    0.091103 0.016404 0.633276 0.123936
H7    H     H_    0.591186 0.485139 0.133202 0.123506
H8    H     H_    0.408927 0.516147 0.866579 0.122718
H9    H     H_    0.786304 0.901194 0.453806 0.124895
H10   H     H_    0.213578 0.101933 0.546227 0.125392
H11   H     H_    0.713543 0.395984 0.046275 0.124205
H12   H     H_    0.286602 0.601093 0.954368 0.134245
H13   H     H_    0.985172 0.020678 0.375316 0.154322
H14   H     H_    0.014898 0.976985 0.624634 0.151099
H15   H     H_    0.514881 0.521492 0.124605 0.148310
H16   H     H_    0.485258 0.479122 0.875242 0.146968
C45   C     C_R   0.844319 0.066025 0.097195 0.088477
C46   C     C_R   0.152580 0.919563 0.899217 0.165171
C47   C     C_R   0.654412 0.572963 0.401147 0.091355
C48   C     C_R   0.345653 0.427106 0.598896 0.091789
C49   C     C_R   0.880758 0.078128 0.060944 0.171606
C50   C     C_R   0.116440 0.908829 0.935619 0.180164
C51   C     C_R   0.618091 0.583967 0.437552 0.162649
C52   C     C_R   0.381999 0.416109 0.562526 0.162708
C53   C     C_R   0.924594 0.969515 0.073988 -0.106055
C54   C     C_R   0.075855 0.034685 0.927390 -0.157409
C55   C     C_R   0.575724 0.467096 0.426677 -0.096971
C56   C     C_R   0.424371 0.532952 0.573445 -0.096691
C57   C     C_R   0.931234 0.846942 0.122954 0.599179
C58   C     C_R   0.072140 0.170654 0.882517 0.627872
C59   C     C_R   0.570643 0.336750 0.379906 0.595511
C60   C     C_R   0.429433 0.663254 0.620227 0.594953
C61   C     C_R   0.895089 0.833520 0.158932 0.497654
C62   C     C_R   0.107935 0.181675 0.845999 0.503250
C63   C     C_R   0.606593 0.324819 0.343658 0.485869
C64   C     C_R   0.393456 0.675166 0.656442 0.485751
C65   C     C_R   0.851576 0.943914 0.147239 -0.330247
C66   C     C_R   0.148373 0.055940 0.853158 -0.369689
C67   C     C_R   0.648531 0.443663 0.353015 -0.327818
C68   C     C_R   0.351512 0.556355 0.647037 -0.327231
C69   C     C_R   0.012080 0.049699 0.061526 0.741243
C70   C     C_R   0.988249 0.958641 0.939629 0.731806
C71   C     C_R   0.524463 0.329920 0.496964 0.716585
C72   C     C_R   0.475655 0.670162 0.503190 0.717010
C73   C     C_R   0.048171 0.068452 0.025671 -0.345471
C74   C     C_R   0.952078 0.940635 0.975403 -0.288163
C75   C     C_R   0.488326 0.347736 0.532746 -0.238746
C76   C     C_R   0.511792 0.652345 0.467407 -0.238207
H17   H     H_    0.085181 0.119305 0.045550 0.186878
H18   H     H_    0.914987 0.890803 0.955400 0.188439
H19   H     H_    0.479813 0.228830 0.558154 0.234693
H20   H     H_    0.520301 0.771248 0.441995 0.234881
C77   C     C_R   0.036737 0.021935 0.964602 -0.052333
C78   C     C_R   0.963639 0.985237 0.036663 -0.013752
C79   C     C_R   0.463531 0.517586 0.536224 -0.046802
C80   C     C_R   0.536584 0.482490 0.463925 -0.046711
F1    F     F_    0.024141 0.097772 0.120226 -0.610157
F2    F     F_    0.976204 0.911514 0.880849 -0.614421
F3    F     F_    0.548347 0.164907 0.495642 -0.629988
F4    F     F_    0.451769 0.835172 0.504511 -0.629457
N1    N     N_3   0.162173 0.103591 0.433536 -0.647779
H21   H     H_    0.201363 0.102066 0.443935 0.246026
H22   H     H_    0.151744 0.236105 0.416822 0.239512
N2    N     N_3   0.837556 0.904315 0.566572 -0.650293
H23   H     H_    0.799700 0.867019 0.555611 0.245168
H24   H     H_    0.838984 0.034538 0.587158 0.239650
N3    N     N_3   0.337808 0.600356 0.065934 -0.663435
H25   H     H_    0.319217 0.728131 0.062874 0.248123
H26   H     H_    0.311187 0.495826 0.066388 0.248515
N4    N     N_3   0.662156 0.393615 0.933587 -0.655428
H27   H     H_    0.701348 0.394575 0.943994 0.243994
H28   H     H_    0.651551 0.261075 0.917007 0.236231
N5    N     N_3   0.799734 0.176045 0.081108 -0.668467
H29   H     H_    0.799817 0.278829 0.113486 0.255737
H30   H     H_    0.768367 0.090577 0.079120 0.224980
N6    N     N_3   0.194073 0.793047 0.911570 -0.604032
H31   H     H_    0.191052 0.697115 0.876637 0.263061
H32   H     H_    0.227530 0.867731 0.915517 0.210138
N7    N     N_3   0.697726 0.690524 0.415589 -0.665261
H33   H     H_    0.696298 0.790659 0.382109 0.260302
H34   H     H_    0.730045 0.609810 0.418425 0.226999
N8    N     N_3   0.302330 0.309618 0.584402 -0.665320
H35   H     H_    0.303724 0.209459 0.617869 0.260429
H36   H     H_    0.270021 0.390397 0.581549 0.226088
N9    N     N_3   0.873959 0.204927 0.011401 -0.607375
H37   H     H_    0.840661 0.170408 0.981944 0.257097
H38   H     H_    0.870216 0.338960 0.027652 0.266280
N10   N     N_3   0.121027 0.764487 0.979834 -0.580323
H39   H     H_    0.088028 0.686033 0.972159 0.266334
H40   H     H_    0.125525 0.825299 0.022185 0.242328
N11   N     N_3   0.624527 0.712688 0.486574 -0.586256
H41   H     H_    0.658411 0.682841 0.515589 0.262632
H42   H     H_    0.626831 0.846681 0.469586 0.286180
N12   N     N_3   0.375584 0.287434 0.513492 -0.585351
H43   H     H_    0.373261 0.153428 0.530463 0.286424
H44   H     H_    0.341714 0.317328 0.484455 0.263177
F5    F     F_    0.972843 0.738796 0.135741 -0.587626
F6    F     F_    0.033521 0.293450 0.874015 -0.591216
F7    F     F_    0.529886 0.223875 0.368177 -0.598045
F8    F     F_    0.470192 0.776108 0.631996 -0.598906
F9    F     F_    0.903349 0.715571 0.206387 -0.625268
F10   F     F_    0.102208 0.313228 0.802453 -0.622907
F11   F     F_    0.599453 0.200318 0.297976 -0.632705
F12   F     F_    0.400576 0.799622 0.702137 -0.633253

loop_
_geom_bond_atom_site_label_1
_geom_bond_atom_site_label_2
_ccdc_geom_bond_type
C55   C80   S    
O17   V3    S    
C59   C63   A    
C25   C29   A    
O1    C5    A    
C47   C51   A    
O19   V1    S    
C9    C21   A    
C2    C68   S    
N7    H33   S    
C10   C18   A    
C60   C64   A    
O15   V3    S    
C46   N6    S    
N3    H25   S    
C57   F5    S    
C5    C12   S    
C15   N3    S    
O7    C3    A    
C6    C11   S    
C35   C40   A    
C26   C30   A    
C47   N7    S    
C36   C39   A    
C40   C44   A    
O9    V1    S    
N10   H39   S    
N7    H34   S    
C23   H8    S    
C14   C18   A    
N5    H30   S    
C70   C77   A    
C48   C68   A    
C55   C59   A    
C69   C78   A    
C72   C76   A    
C54   C58   A    
O1    V3    S    
O13   V1    S    
O2    V4    S    
O3    V1    S    
C40   H16   S    
C28   C36   A    
O3    C7    A    
C1    O15   A    
C15   C31   A    
C48   C52   A    
C2    O16   A    
N2    H23   S    
C16   C32   A    
C16   N4    S    
C3    C65   S    
C43   H3    S    
N11   H42   S    
C61   F9    S    
C10   C22   A    
N9    H38   S    
C11   C19   A    
C70   C74   A    
C16   C20   A    
C51   N11   S    
C44   H4    S    
C64   F12   S    
C13   C29   A    
C34   C37   A    
O11   C7    A    
C38   H14   S    
C11   C23   A    
C35   C36   A    
O12   C8    A    
C63   F11   S    
C24   H7    S    
C46   C66   A    
O10   V2    S    
C45   C65   A    
C50   C54   A    
C59   F7    S    
C52   C56   A    
C61   C65   A    
C39   C43   A    
O7    V3    S    
C38   C42   A    
O8    V4    S    
C33   C38   A    
C75   C79   A    
C53   C78   S    
C72   C79   A    
N6    H32   S    
C46   C50   A    
C45   N5    S    
C17   H10   S    
C45   C49   A    
O18   V4    S    
C15   C19   A    
C19   H12   S    
C32   C44   A    
C49   C53   A    
C76   H20   S    
C39   H15   S    
C21   H6    S    
C26   C34   A    
C37   H13   S    
O5    C1    A    
C23   C27   A    
C71   C75   A    
C49   N9    S    
N11   H41   S    
C14   C30   A    
C21   C25   A    
O8    C4    A    
C7    C10   S    
O9    C5    A    
C74   H18   S    
C58   F6    S    
N4    H28   S    
C70   F2    S    
C73   H17   S    
C69   F1    S    
O6    V2    S    
C75   H19   S    
C71   F3    S    
O14   V2    S    
N8    H36   S    
C12   C20   A    
C27   C35   A    
C50   N10   S    
O5    V1    S    
C53   C57   A    
C64   C68   A    
C29   C41   A    
N12   H43   S    
O16   V4    S    
C52   N12   S    
N3    H26   S    
C3    O13   A    
C76   C80   A    
C56   C79   S    
C71   C80   A    
N8    H35   S    
C48   N8    S    
C20   H11   S    
N6    H31   S    
O6    C2    A    
C25   C33   A    
C31   C43   A    
O11   V3    S    
C30   C42   A    
C69   C73   A    
O12   V4    S    
C73   C77   A    
C22   C26   A    
C8    C9    S    
C60   F8    S    
C9    C17   A    
O10   C6    A    
N10   H40   S    
N1    H21   S    
N12   H44   S    
C58   C62   A    
N5    H29   S    
C4    C66   S    
C33   C34   A    
C42   H2    S    
C62   F10   S    
O4    C8    A    
C41   H1    S    
C56   C60   A    
O20   V2    S    
O2    C6    A    
C13   N1    S    
C12   C24   A    
C27   C31   A    
C13   C17   A    
C57   C61   A    
C72   F4    S    
N4    H27   S    
C51   C55   A    
C74   C78   A    
C54   C77   S    
C37   C41   A    
C24   C28   A    
C47   C67   A    
C18   H9    S    
N2    H24   S    
C62   C66   A    
C4    O14   A    
C1    C67   S    
C63   C67   A    
N9    H37   S    
C22   H5    S    
O4    V2    S    
C28   C32   A    
C14   N2    S    
N1    H22   S    
