data_mof_unit_32865.cif
_audit_creation_date              2012-12-11T17:15:03-0500
_audit_creation_method            fapswitch 2.2
_symmetry_space_group_name_H-M    P1
_symmetry_Int_Tables_number       1
_space_group_crystal_system       triclinic
_cell_length_a                    7.221224
_cell_length_b                    12.163014
_cell_length_c                    21.299547
_cell_angle_alpha                 90.011797
_cell_angle_beta                  90.773012
_cell_angle_gamma                 90.078639
_cell_volume                      1870.60651838

loop_
_atom_site_label
_atom_site_type_symbol
_atom_type_description
_atom_site_fract_x
_atom_site_fract_y
_atom_site_fract_z
_atom_type_partial_charge
O1    O     O_R   0.354460 0.152320 0.595720 -0.534201
O2    O     O_R   0.645540 0.847680 0.404280 -0.534201
O3    O     O_R   0.145540 0.652320 0.404280 -0.534765
O4    O     O_R   0.854460 0.347680 0.595720 -0.534768
O5    O     O_R   0.683670 0.140090 0.727290 -0.536733
O6    O     O_R   0.316330 0.859910 0.272710 -0.536733
O7    O     O_R   0.816330 0.640090 0.272710 -0.535204
O8    O     O_R   0.183670 0.359910 0.727290 -0.535201
O9    O     O_R   0.854010 0.349340 0.727750 -0.538740
O10   O     O_R   0.145990 0.650660 0.272250 -0.538737
O11   O     O_R   0.645990 0.849340 0.272250 -0.537637
O12   O     O_R   0.354010 0.150660 0.727750 -0.537637
C1    C     C_R   0.516572 0.111921 0.746705 0.738943
C2    C     C_R   0.483428 0.888079 0.253295 0.738943
C3    C     C_R   0.983151 0.611840 0.253287 0.738576
C4    C     C_R   0.016850 0.388162 0.746713 0.738570
O13   O     O_R   0.684170 0.139420 0.596190 -0.532071
O14   O     O_R   0.315830 0.860580 0.403810 -0.532070
O15   O     O_R   0.815830 0.639420 0.403810 -0.530915
O16   O     O_R   0.184170 0.360580 0.596190 -0.530912
C5    C     C_R   0.514899 0.113141 0.574448 0.746706
C6    C     C_R   0.485101 0.886859 0.425552 0.746706
C7    C     C_R   0.985007 0.613127 0.425555 0.746167
C8    C     C_R   0.014993 0.386873 0.574445 0.746165
O17   O     O_3   0.520730 0.319480 0.661730 -0.375641
O18   O     O_3   0.479270 0.680520 0.338270 -0.375642
O19   O     O_3   0.979270 0.819480 0.338270 -0.376090
O20   O     O_3   0.020730 0.180520 0.661730 -0.376090
V1    V     V_3+5 0.795560 0.238090 0.661730 1.520512
V2    V     V_3+5 0.204440 0.761910 0.338270 1.520515
V3    V     V_3+5 0.704440 0.738090 0.338270 1.524849
V4    V     V_3+5 0.295560 0.261910 0.661730 1.524856
C9    C     C_R   0.014644 0.467700 0.797985 -0.098926
C10   C     C_R   0.985366 0.532306 0.202014 -0.098927
C11   C     C_R   0.487553 0.967325 0.201975 -0.098645
C12   C     C_R   0.512443 0.032677 0.798026 -0.098644
C13   C     C_R   0.058109 0.651686 0.838103 -0.183446
C14   C     C_R   0.942010 0.348311 0.161896 -0.183437
C15   C     C_R   0.477872 0.153289 0.162642 -0.183786
C16   C     C_R   0.522091 0.846712 0.837359 -0.183798
C17   C     C_R   0.047857 0.579640 0.787339 0.267326
C18   C     C_R   0.952220 0.420359 0.212660 0.267318
C19   C     C_R   0.477666 0.080630 0.213182 0.267965
C20   C     C_R   0.522314 0.919372 0.786819 0.267968
C21   C     C_R   0.992014 0.428479 0.858994 -0.272242
C22   C     C_R   0.007978 0.571532 0.141005 -0.272238
C23   C     C_R   0.497024 0.927267 0.140702 -0.272293
C24   C     C_R   0.502968 0.072736 0.859298 -0.272291
C25   C     C_R   0.005826 0.499481 0.911376 0.088531
C26   C     C_R   0.994236 0.500526 0.088624 0.088528
C27   C     C_R   0.495124 0.999132 0.088613 0.089978
C28   C     C_R   0.504844 0.000871 0.911387 0.089983
C29   C     C_R   0.038913 0.612687 0.899681 0.071274
C30   C     C_R   0.961197 0.387313 0.100319 0.071267
C31   C     C_R   0.485853 0.113744 0.100821 0.069765
C32   C     C_R   0.514105 0.886259 0.899179 0.069768
C33   C     C_R   0.990810 0.461637 0.974695 0.064869
C34   C     C_R   0.009278 0.538367 0.025305 0.064874
C35   C     C_R   0.501272 0.961036 0.025135 0.065508
C36   C     C_R   0.498686 0.038967 0.974865 0.065503
C37   C     C_R   0.041264 0.650326 0.010890 -0.191754
C38   C     C_R   0.958870 0.349674 0.989111 -0.191759
C39   C     C_R   0.490403 0.152263 0.989762 -0.192975
C40   C     C_R   0.509541 0.847740 0.010238 -0.192978
C41   C     C_R   0.055045 0.686308 0.949412 -0.181564
C42   C     C_R   0.945106 0.313689 0.050588 -0.181552
C43   C     C_R   0.483884 0.188402 0.051390 -0.183784
C44   C     C_R   0.516060 0.811601 0.948610 -0.183809
H1    H     H_    0.080279 0.772891 0.940767 0.140957
H2    H     H_    0.919910 0.227102 0.059233 0.140947
H3    H     H_    0.477227 0.276071 0.060410 0.139957
H4    H     H_    0.522705 0.723932 0.939590 0.139962
H5    H     H_    0.031236 0.658589 0.136408 0.110437
H6    H     H_    0.968689 0.341431 0.863590 0.110443
H7    H     H_    0.496042 0.160717 0.864233 0.109138
H8    H     H_    0.503968 0.839287 0.135767 0.109140
H9    H     H_    0.083912 0.738174 0.829440 0.160695
H10   H     H_    0.916247 0.261818 0.170559 0.160696
H11   H     H_    0.470779 0.240898 0.171708 0.161853
H12   H     H_    0.529173 0.759103 0.828292 0.161853
H13   H     H_    0.057275 0.713330 0.045981 0.127901
H14   H     H_    0.942903 0.286666 0.954020 0.127902
H15   H     H_    0.488610 0.216294 0.954957 0.128323
H16   H     H_    0.511316 0.783709 0.045043 0.128323
C45   C     C_1   0.995517 0.533134 0.478081 -0.108481
C46   C     C_1   0.004483 0.466865 0.521919 -0.108480
C47   C     C_1   0.504361 0.033144 0.521921 -0.107864
C48   C     C_1   0.495639 0.966856 0.478079 -0.107864
Br1   Br    Br    0.919887 0.363001 0.295702 -0.485850
Br2   Br    Br    0.080218 0.636991 0.704297 -0.485849
Br3   Br    Br    0.535818 0.861011 0.703327 -0.486617
Br4   Br    Br    0.464164 0.138990 0.296673 -0.486617

loop_
_geom_bond_atom_site_label_1
_geom_bond_atom_site_label_2
_ccdc_geom_bond_type
C47   C48   T    
C5    C47   S    
O1    C5    A    
C9    C21   A    
O3    C7    A    
C10   C18   A    
O15   V3    S    
C25   C33   A    
C33   C38   A    
C45   C46   T    
C35   C40   A    
C26   C30   A    
C36   C39   A    
C40   C44   A    
O20   V1    S    
O9    C4    A    
C23   H8    S    
C14   C18   A    
C24   C28   A    
O10   C3    A    
O4    C8    A    
O11   C2    A    
C25   C29   A    
C43   H3    S    
O13   V1    S    
C40   H16   S    
C28   C36   A    
C15   C31   A    
O16   C8    A    
C16   C32   A    
O2    C6    A    
C16   H12   S    
C10   C22   A    
C6    C48   S    
C11   C19   A    
C3    C10   S    
O5    C1    A    
O4    V1    S    
O9    V1    S    
C13   C29   A    
C34   C37   A    
O7    C3    A    
C17   Br2   S    
C38   H14   S    
C11   C23   A    
C35   C36   A    
O8    C4    A    
O12   V4    S    
O19   V2    S    
C24   H7    S    
O5    V1    S    
C15   C19   A    
C39   C43   A    
O7    V3    S    
C38   C42   A    
O8    V4    S    
C1    C12   S    
C2    C11   S    
C23   C27   A    
C14   H10   S    
C32   C44   A    
C13   H9    S    
O1    V4    S    
O13   C5    A    
C39   H15   S    
O2    V3    S    
C26   C34   A    
O3    V2    S    
O15   C7    A    
C4    C9    S    
O6    C2    A    
O10   V2    S    
C14   C30   A    
C21   C25   A    
C44   H4    S    
C20   Br3   S    
O14   V2    S    
O6    V2    S    
C16   C20   A    
C12   C20   A    
C27   C35   A    
C29   C41   A    
O16   V4    S    
O14   C6    A    
C31   C43   A    
C30   C42   A    
C22   C26   A    
C19   Br4   S    
C18   Br1   S    
C9    C17   A    
C37   H13   S    
C33   C34   A    
C42   H2    S    
O17   V4    S    
C41   H1    S    
C12   C24   A    
C27   C31   A    
C13   C17   A    
O11   V3    S    
C37   C41   A    
O18   V3    S    
O12   C1    A    
C7    C45   S    
C21   H6    S    
C8    C46   S    
C22   H5    S    
C28   C32   A    
C15   H11   S    
