data_mof_unit_38990.cif
_audit_creation_date              2012-12-10T20:40:00-0500
_audit_creation_method            fapswitch 2.2
_symmetry_space_group_name_H-M    P1
_symmetry_Int_Tables_number       1
_space_group_crystal_system       triclinic
_cell_length_a                    23.416108
_cell_length_b                    10.674634
_cell_length_c                    9.843266
_cell_angle_alpha                 89.999803
_cell_angle_beta                  90.177663
_cell_angle_gamma                 90.075116
_cell_volume                      2460.39290609

loop_
_atom_site_label
_atom_site_type_symbol
_atom_type_description
_atom_site_fract_x
_atom_site_fract_y
_atom_site_fract_z
_atom_type_partial_charge
C1    C     C_R   0.501612 0.259898 0.500067 0.890917
C2    C     C_R   0.970326 0.274412 0.422038 -0.154794
C3    C     C_R   0.029793 0.274026 0.422981 -0.152963
C4    C     C_R   0.060148 0.379965 0.467341 -0.018440
C5    C     C_R   0.030325 0.486819 0.511984 -0.020780
C6    C     C_R   0.060355 0.593529 0.557035 -0.016917
C7    C     C_R   0.030304 0.699524 0.601382 -0.151373
C8    C     C_R   0.970886 0.700044 0.600061 -0.155622
C9    C     C_R   0.119802 0.382739 0.466997 0.515397
C10   C     C_R   0.119937 0.591529 0.555515 0.512915
C11   C     C_R   0.235876 0.567330 0.409477 -0.062338
C12   C     C_R   0.389472 0.502525 0.499780 0.852105
C13   C     C_R   0.295426 0.576132 0.406652 -0.056832
C14   C     C_R   0.327400 0.502926 0.499716 -0.129710
C15   C     C_R   0.299614 0.425988 0.594322 -0.208391
C16   C     C_R   0.240546 0.419812 0.596659 -0.079973
C17   C     C_R   0.208802 0.490338 0.504344 0.257700
C18   C     C_R   0.761804 0.489266 0.626932 -0.097961
C19   C     C_R   0.702598 0.492774 0.625561 -0.213437
C20   C     C_R   0.673020 0.497186 0.501332 -0.042212
C21   C     C_R   0.703420 0.497968 0.378617 -0.215633
C22   C     C_R   0.762701 0.494595 0.380384 -0.097928
C23   C     C_R   0.501675 0.740095 0.500018 0.874573
C24   C     C_R   0.791795 0.490335 0.504493 0.317070
C25   C     C_R   0.508987 0.063868 0.623616 0.141828
C26   C     C_R   0.510441 0.128550 0.500915 -0.106482
C27   C     C_R   0.522645 0.064829 0.379843 -0.212333
C28   C     C_R   0.522706 0.935298 0.379837 -0.213198
C29   C     C_R   0.510552 0.871471 0.500902 -0.103175
C30   C     C_R   0.509075 0.936131 0.623623 0.126093
C31   C     C_3   0.467035 0.928723 0.737400 -0.457564
C32   C     C_3   0.466876 0.070738 0.737263 -0.485951
C33   C     C_R   0.471471 0.408813 0.071133 0.202653
C34   C     C_R   0.610744 0.499699 0.500227 0.873362
C35   C     C_R   0.532267 0.583093 0.072293 -0.126968
C36   C     C_R   0.532262 0.583122 0.928144 -0.129464
C37   C     C_R   0.471432 0.408878 0.928410 0.210081
C38   C     C_3   0.408876 0.383051 0.922467 -0.507798
C39   C     C_3   0.408980 0.382669 0.076677 -0.470391
C40   C     C_R   0.880973 0.593278 0.551114 0.504865
C41   C     C_R   0.880606 0.383893 0.464261 0.505571
C42   C     C_R   0.940246 0.380794 0.465299 -0.016071
C43   C     C_R   0.970329 0.487274 0.510850 -0.020054
C44   C     C_R   0.940564 0.594481 0.554636 -0.015726
H1    H     H_    0.948069 0.191451 0.386888 0.195511
H2    H     H_    0.680113 0.491859 0.721546 0.163692
H3    H     H_    0.681522 0.501332 0.281608 0.162793
H4    H     H_    0.786119 0.495935 0.285694 0.142837
H5    H     H_    0.528233 0.113943 0.284470 0.171469
H6    H     H_    0.528336 0.886232 0.284466 0.168020
H7    H     H_    0.425519 0.886989 0.705771 0.212042
H8    H     H_    0.486156 0.887869 0.830932 0.205194
H9    H     H_    0.425290 0.111675 0.705316 0.202605
H10   H     H_    0.485819 0.112055 0.830810 0.205178
H11   H     H_    0.557400 0.651722 0.127028 0.144078
H12   H     H_    0.051837 0.190822 0.388425 0.196512
H13   H     H_    0.557377 0.651788 0.873781 0.147429
H14   H     H_    0.384146 0.462097 0.878276 0.232616
H15   H     H_    0.399307 0.289767 0.877735 0.196127
H16   H     H_    0.384222 0.461317 0.121265 0.231470
H17   H     H_    0.399708 0.289046 0.120914 0.207276
H18   H     H_    0.052548 0.782511 0.636520 0.196630
H19   H     H_    0.948859 0.783371 0.634335 0.195507
H20   H     H_    0.209964 0.622521 0.340515 0.182338
H21   H     H_    0.323759 0.369452 0.665593 0.154304
H22   H     H_    0.219332 0.360822 0.670487 0.152621
H23   H     H_    0.784504 0.485900 0.722891 0.142532
N1    N     N_R   0.852545 0.489105 0.506464 -0.359864
N2    N     N_R   0.148106 0.487684 0.509872 -0.357445
N3    N     N_R   0.499610 0.499140 0.142800 -0.107411
N4    N     N_R   0.499610 0.499180 0.857150 -0.104891
O1    O     O_R   0.500010 0.316790 0.614690 -0.615736
O2    O     O_2   0.850757 0.282715 0.422282 -0.549507
O3    O     O_2   0.149397 0.282334 0.422819 -0.543461
O4    O     O_2   0.149678 0.692267 0.599232 -0.541939
O5    O     O_R   0.500000 0.316760 0.385350 -0.619525
O6    O     O_R   0.416160 0.499980 0.614700 -0.609575
O7    O     O_R   0.416150 0.499940 0.385360 -0.629815
O8    O     O_R   0.500000 0.683240 0.614650 -0.617195
O9    O     O_R   0.499990 0.683210 0.385310 -0.630379
O10   O     O_R   0.583850 0.500060 0.614640 -0.622930
O11   O     O_R   0.583840 0.500020 0.385300 -0.622459
O12   O     O_2   0.851507 0.695446 0.590910 -0.550304
Zn1   Zn    Zn3+2 0.500000 0.500020 0.653130 0.951311
Zn2   Zn    Zn3+2 0.500000 0.499980 0.346870 0.945648
C45   C     C_2   0.322740 0.666724 0.312126 0.400895
H24   H     H_    0.366922 0.694580 0.325449 0.084094
O13   O     O_2   0.295757 0.713192 0.218510 -0.552940

loop_
_geom_bond_atom_site_label_1
_geom_bond_atom_site_label_2
_ccdc_geom_bond_type
C22   H4    S    
C17   N2    S    
C41   C42   A    
C19   C20   A    
C31   H8    S    
C19   H2    S    
C7    C8    A    
C26   C27   A    
C37   C38   S    
C18   C24   A    
C23   C29   S    
C28   C29   A    
C9    N2    A    
O8    Zn1   S    
C45   O13   D    
C15   C16   A    
C15   H21   S    
C18   C19   A    
C10   O4    S    
C38   H14   S    
C28   H6    S    
C35   C36   A    
C35   N3    A    
C16   C17   A    
C12   O7    A    
C13   C45   S    
C34   O10   A    
C23   O9    A    
C29   C30   A    
C42   C43   A    
C36   N4    A    
C20   C34   S    
C25   C32   S    
C5    C43   A    
C13   C14   A    
C40   O12   S    
C32   H10   S    
C41   N1    A    
C2    H1    S    
C38   C39   S    
C39   H17   S    
C1    O1    A    
C35   H11   S    
C36   H13   S    
C45   H24   S    
O6    Zn1   S    
C25   C26   A    
C33   C37   A    
C43   C44   A    
C7    H18   S    
O9    Zn2   S    
C3    H12   S    
C31   C32   S    
C30   C31   S    
C12   O6    A    
C33   C39   S    
O1    Zn1   S    
C33   N3    A    
O7    Zn2   S    
C12   C14   S    
C11   H20   S    
C37   N4    A    
C1    C26   S    
C22   C24   A    
C16   H22   S    
C9    O3    S    
C3    C4    A    
C32   H9    S    
O10   Zn1   S    
N4    Zn1   S    
C25   C30   A    
C11   C17   A    
C1    O5    A    
C8    C44   A    
C31   H7    S    
C4    C5    A    
C6    C10   A    
C6    C7    A    
O11   Zn2   S    
C2    C3    A    
C18   H23   S    
C11   C13   A    
C5    C6    A    
C2    C42   A    
C39   H16   S    
C24   N1    S    
C8    H19   S    
C41   O2    S    
C38   H15   S    
C10   N2    A    
C40   C44   A    
C20   C21   A    
C40   N1    A    
C27   C28   A    
C14   C15   A    
C34   O11   A    
C23   O8    A    
C4    C9    A    
C21   C22   A    
N3    Zn2   S    
O5    Zn2   S    
C27   H5    S    
C21   H3    S    
