data_mof_unit_29194.cif
_audit_creation_date              2012-10-26T20:43:31-0400
_audit_creation_method            fapswitch 2.2
_symmetry_space_group_name_H-M    P1
_symmetry_Int_Tables_number       1
_space_group_crystal_system       triclinic
_cell_length_a                    10.910209
_cell_length_b                    9.478174
_cell_length_c                    23.559839
_cell_angle_alpha                 89.467507
_cell_angle_beta                  89.627496
_cell_angle_gamma                 89.762885
_cell_volume                      2436.11911414

loop_
_atom_site_label
_atom_site_type_symbol
_atom_type_description
_atom_site_fract_x
_atom_site_fract_y
_atom_site_fract_z
_atom_type_partial_charge
C1    C     C_R   0.261972 0.500385 0.501046 0.584044
C2    C     C_R   0.536647 0.616780 0.700862 -0.172704
C3    C     C_R   0.460157 0.381917 0.240016 -0.064653
C4    C     C_R   0.539689 0.618227 0.759980 -0.064651
C5    C     C_R   0.499845 0.499456 0.208824 0.188344
C6    C     C_R   0.500194 0.500617 0.791180 0.188393
C7    C     C_R   0.064018 0.375305 0.513789 0.210212
C8    C     C_R   0.935982 0.624716 0.486220 0.210247
C9    C     C_R   0.936764 0.372288 0.508966 0.211552
C10   C     C_R   0.063239 0.627730 0.491046 0.211563
C11   C     C_R   0.871928 0.498683 0.497939 -0.060517
C12   C     C_R   0.738029 0.499617 0.498956 0.584090
C13   C     C_R   0.128074 0.501331 0.502066 -0.060549
C14   C     C_R   0.424163 0.075707 0.464775 0.025954
C15   C     C_R   0.575835 0.924292 0.535225 0.025941
C16   C     C_R   0.575686 0.073406 0.535287 0.027491
C17   C     C_R   0.424310 0.926594 0.464715 0.027516
C18   C     C_R   0.503120 0.500779 0.390811 0.533116
C19   C     C_R   0.496885 0.499221 0.609190 0.533144
C20   C     C_R   0.609119 0.499765 0.880161 0.408252
C21   C     C_R   0.390917 0.500364 0.119840 0.408250
C22   C     C_R   0.390277 0.505166 0.880522 0.403912
C23   C     C_R   0.542859 0.618335 0.236977 0.007631
C24   C     C_R   0.609758 0.494924 0.119478 0.403887
C25   C     C_R   0.386750 0.497240 0.940422 0.028435
C26   C     C_R   0.613285 0.502875 0.059578 0.028434
C27   C     C_R   0.499388 0.499470 0.969985 -0.074529
C28   C     C_R   0.500647 0.500655 0.030016 -0.074523
C29   C     C_R   0.611033 0.500333 0.939609 -0.017701
C30   C     C_R   0.389002 0.499797 0.060392 -0.017691
C31   C     C_R   0.275327 0.490912 0.971950 0.240889
C32   C     C_R   0.724708 0.509213 0.028052 0.240899
C33   C     C_R   0.277808 0.496680 0.031019 -0.044911
C34   C     C_R   0.457374 0.381631 0.763038 0.007605
C35   C     C_R   0.722227 0.503455 0.968982 -0.044903
C36   C     C_3   0.121602 0.235336 0.587761 -0.086139
C37   C     C_3   0.878563 0.764972 0.412295 -0.086237
C38   C     C_3   0.880333 0.163604 0.470302 -0.077925
C39   C     C_3   0.119659 0.836344 0.529772 -0.077928
C40   C     C_R   0.549560 0.620315 0.296067 0.219364
C41   C     C_R   0.450672 0.379607 0.703948 0.219336
C42   C     C_R   0.506715 0.502091 0.328089 -0.002828
C43   C     C_R   0.493309 0.497915 0.671915 -0.002846
C44   C     C_R   0.463189 0.383333 0.299133 -0.172704
Cu1   Cu    Cu3+1 0.500000 0.640660 0.500000 0.978750
Cu2   Cu    Cu3+1 0.500000 0.359340 0.500000 0.978720
H1    H     H_    0.191384 0.493635 0.053934 0.210732
H2    H     H_    0.636581 0.866909 0.563350 0.129464
H3    H     H_    0.636236 0.128972 0.563478 0.156470
H4    H     H_    0.363756 0.871028 0.436525 0.156409
H5    H     H_    0.169844 0.397187 0.919745 0.361332
H6    H     H_    0.830183 0.602918 0.080267 0.361329
H7    H     H_    0.646319 0.707496 0.354200 0.331486
H8    H     H_    0.353987 0.292173 0.645855 0.331478
H9    H     H_    0.152950 0.331785 0.610003 0.101498
H10   H     H_    0.183956 0.147472 0.599815 0.138187
H11   H     H_    0.027935 0.206508 0.602463 0.166884
H12   H     H_    0.808651 0.506507 0.946067 0.210731
H13   H     H_    0.815946 0.852594 0.400249 0.138257
H14   H     H_    0.847660 0.668484 0.389944 0.101626
H15   H     H_    0.972182 0.794321 0.397702 0.166967
H16   H     H_    0.839222 0.219963 0.433317 0.116209
H17   H     H_    0.825879 0.066696 0.478066 0.153639
H18   H     H_    0.975593 0.129822 0.460066 0.160603
H19   H     H_    0.174165 0.933231 0.522050 0.153653
H20   H     H_    0.160699 0.779891 0.566752 0.116189
H21   H     H_    0.024402 0.870166 0.539993 0.160648
H22   H     H_    0.574699 0.708579 0.212556 0.154850
H23   H     H_    0.425687 0.291328 0.787467 0.154796
H24   H     H_    0.430082 0.291659 0.322259 0.141005
H25   H     H_    0.569599 0.708521 0.677732 0.141064
H26   H     H_    0.427121 0.289357 0.218386 0.152835
H27   H     H_    0.572580 0.710866 0.781603 0.152792
H28   H     H_    0.363416 0.133091 0.436651 0.129432
N1    N     N_R   0.500036 0.502652 0.852049 -0.400269
N2    N     N_R   0.500000 0.497451 0.147953 -0.400254
N3    N     N_R   0.500000 0.852070 0.500000 -0.233941
N4    N     N_R   0.500000 0.147930 0.500000 -0.233953
O1    O     O_R   0.319640 0.618740 0.500000 -0.469044
O2    O     O_2   0.284621 0.503815 0.149445 -0.477083
O3    O     O_2   0.285802 0.519234 0.850672 -0.458978
O4    O     O_2   0.714234 0.480813 0.149325 -0.458989
O5    O     O_3   0.162460 0.475749 0.947030 -0.626797
O6    O     O_3   0.837574 0.524378 0.052972 -0.626800
O7    O     O_3   0.600461 0.738042 0.320203 -0.697524
O8    O     O_3   0.399990 0.261740 0.679824 -0.697499
O9    O     O_3   0.125816 0.252375 0.528246 -0.552117
O10   O     O_3   0.874164 0.747660 0.471796 -0.552189
O11   O     O_3   0.875860 0.246782 0.519677 -0.550089
O12   O     O_R   0.680360 0.381260 0.500000 -0.469071
O13   O     O_3   0.124145 0.753253 0.480374 -0.550197
O14   O     O_R   0.680360 0.618740 0.500000 -0.464962
O15   O     O_R   0.319640 0.381260 0.500000 -0.465008
O16   O     O_R   0.499960 0.618810 0.417880 -0.491358
O17   O     O_R   0.500040 0.381190 0.582120 -0.491356
O18   O     O_R   0.500040 0.618810 0.582120 -0.519044
O19   O     O_R   0.499960 0.381190 0.417880 -0.519029
O20   O     O_2   0.715415 0.496339 0.850556 -0.477043

loop_
_geom_bond_atom_site_label_1
_geom_bond_atom_site_label_2
_ccdc_geom_bond_type
C25   C31   A    
C26   C32   A    
C27   C29   A    
C41   C43   A    
C37   O10   S    
C6    N1    S    
Cu1   Cu2   S    
C41   O8    S    
C21   N2    A    
C35   H12   S    
C14   H28   S    
C12   O12   A    
C23   H22   S    
C24   C26   A    
C18   C42   S    
C23   C40   A    
C31   O5    S    
H6    O6    S    
Cu1   O14   S    
C24   O4    S    
C7    O9    S    
Cu2   O17   S    
C22   C25   A    
C31   C33   A    
C44   H24   S    
C18   O19   A    
C40   C42   A    
C39   H19   S    
C14   C17   A    
C34   C41   A    
C42   C44   A    
C22   N1    A    
Cu1   O16   S    
C39   O13   S    
C19   C43   S    
C15   H2    S    
C38   H18   S    
C20   C29   A    
C36   O9    S    
C32   O6    S    
C3    C44   A    
C22   O3    S    
C16   H3    S    
C4    C6    A    
C36   H11   S    
C9    O11   S    
H8    O8    S    
C24   N2    A    
C6    C34   A    
C20   N1    A    
C8    O10   S    
C40   O7    S    
C2    C4    A    
C32   C35   A    
C36   H10   S    
C5    C23   A    
C2    C43   A    
C17   N3    A    
Cu1   O1    S    
C9    C11   A    
C34   H23   S    
C4    H27   S    
C37   H13   S    
C8    C10   A    
Cu2   O19   S    
C10   O13   S    
C33   H1    S    
C39   H20   S    
C1    C13   S    
C2    H25   S    
H5    O5    S    
C19   O17   A    
C1    O1    A    
Cu2   N4    S    
C38   H17   S    
C7    C9    A    
C30   C33   A    
C39   H21   S    
C12   O14   A    
C3    C5    A    
C10   C13   A    
C17   H4    S    
C37   H15   S    
C11   C12   S    
Cu2   O12   S    
C25   C27   A    
C21   C30   A    
C29   C35   A    
C26   C28   A    
C38   O11   S    
C5    N2    S    
C28   C30   A    
C3    H26   S    
C36   H9    S    
C15   N3    A    
Cu2   O15   S    
C8    C11   A    
C18   O16   A    
C21   O2    S    
C16   N4    A    
C14   N4    A    
C37   H14   S    
C7    C13   A    
C20   O20   S    
C1    O15   A    
C27   C28   A    
H7    O7    S    
Cu1   N3    S    
Cu1   O18   S    
C19   O18   A    
C15   C16   A    
C38   H16   S    
