data_mof_unit_33677.cif
_audit_creation_date              2013-03-05T16:48:30-0500
_audit_creation_method            fapswitch 2.2
_symmetry_space_group_name_H-M    P1
_symmetry_Int_Tables_number       1
_space_group_crystal_system       triclinic
_cell_length_a                    10.950373
_cell_length_b                    14.647108
_cell_length_c                    14.905043
_cell_angle_alpha                 63.908703
_cell_angle_beta                  104.101086
_cell_angle_gamma                 102.300131
_cell_volume                      2066.8822062

loop_
_atom_site_label
_atom_site_type_symbol
_atom_site_description
_atom_site_fract_x
_atom_site_fract_y
_atom_site_fract_z
_atom_type_partial_charge
O1    O     O_R   0.455540 0.022090 0.338120 -0.599173
O2    O     O_R   0.544460 0.977910 0.661880 -0.611545
O3    O     O_R   0.512510 0.160150 0.379180 -0.539646
O4    O     O_R   0.487490 0.839850 0.620820 -0.554260
C1    C     C_R   0.472988 0.121255 0.312499 0.826958
C2    C     C_R   0.515756 0.879388 0.688027 0.801736
O5    O     O_R   0.291160 0.930970 0.479480 -0.550244
O6    O     O_R   0.708840 0.069030 0.520520 -0.530521
O7    O     O_R   0.348130 0.069020 0.520540 -0.587973
O8    O     O_R   0.651870 0.930980 0.479460 -0.581547
C3    C     C_R   0.263945 0.996260 0.506712 0.828294
C4    C     C_R   0.738094 0.996555 0.503923 0.849808
Cu1   Cu    Cu3+1 0.466270 0.918260 0.475690 0.963859
Cu2   Cu    Cu3+1 0.533730 0.081740 0.524310 0.984417
C5    C     C_R   0.341780 0.062634 0.784315 -0.161535
C6    C     C_R   0.773967 0.774878 0.324483 -0.158395
H1    H     H_    0.393190 0.011139 0.854003 0.170425
H2    H     H_    0.764866 0.785826 0.246556 0.144367
C7    C     C_R   0.263428 0.024462 0.716296 -0.214752
C8    C     C_R   0.802132 0.859806 0.348951 -0.144083
H3    H     H_    0.254641 0.943306 0.734786 0.136003
H4    H     H_    0.819828 0.935475 0.289984 0.136695
C9    C     C_R   0.192386 0.089507 0.627127 0.152723
C10   C     C_R   0.822659 0.845910 0.450761 0.199939
C11   C     C_R   0.204926 0.194875 0.605102 0.209439
C12   C     C_R   0.801561 0.747020 0.526580 0.094012
C13   C     C_R   0.283528 0.232344 0.674083 -0.220351
C14   C     C_R   0.786156 0.662898 0.502413 -0.195992
H5    H     H_    0.291108 0.312648 0.658523 0.177008
H6    H     H_    0.794398 0.587603 0.562332 0.198842
C15   C     C_R   0.349660 0.165991 0.764409 0.185458
C16   C     C_R   0.772115 0.676255 0.401935 0.180364
C17   C     C_R   0.967751 0.039874 0.564817 0.443629
C18   C     C_R   0.039747 0.917573 0.490647 0.395891
C19   C     C_R   0.873321 0.988192 0.514006 -0.253233
C20   C     C_R   0.132182 0.987270 0.519698 -0.269168
C21   C     C_R   0.910799 0.922819 0.481237 -0.120663
C22   C     C_R   0.096916 0.043033 0.564381 -0.107940
C23   C     C_R   0.427471 0.194001 0.208764 -0.140463
C24   C     C_R   0.515703 0.812663 0.797441 -0.118874
C25   C     C_R   0.256622 0.237527 0.064694 -0.148968
C26   C     C_R   0.595131 0.790011 0.972186 -0.179811
C27   C     C_R   0.320805 0.163976 0.149537 -0.238926
C28   C     C_R   0.585830 0.850636 0.868859 -0.264195
C29   C     C_R   0.473842 0.299011 0.179145 0.375844
C30   C     C_R   0.446041 0.713569 0.831814 0.356339
C31   C     C_R   0.401606 0.374653 0.100030 -0.015976
C32   C     C_R   0.449038 0.653413 0.938042 -0.017274
C33   C     C_R   0.294966 0.342259 0.040156 0.113431
C34   C     C_R   0.532531 0.690340 0.006963 0.109698
C35   C     C_R   0.435212 0.481626 0.074746 0.057601
C36   C     C_R   0.384204 0.552298 0.978047 0.063239
C37   C     C_R   0.272155 0.518900 0.925121 -0.133628
C38   C     C_R   0.513611 0.521415 0.142777 -0.119796
C39   C     C_R   0.227343 0.415066 0.956551 -0.195244
C40   C     C_R   0.556698 0.625611 0.109817 -0.180783
H7    H     H_    0.142690 0.391494 0.912571 0.163485
H8    H     H_    0.616055 0.654536 0.163513 0.167849
H9    H     H_    0.638504 0.926525 0.844809 0.169334
H10   H     H_    0.283567 0.083882 0.171460 0.167527
H11   H     H_    0.174257 0.212480 0.019912 0.155703
H12   H     H_    0.655791 0.819811 0.024997 0.146709
H13   H     H_    0.218573 0.572773 0.859001 0.197279
H14   H     H_    0.537665 0.473943 0.222543 0.215103
N1    N     N_R   0.584450 0.204570 0.560790 -0.185060
N2    N     N_R   0.415550 0.795430 0.439210 -0.188171
C41   C     C_R   0.688797 0.267935 0.684604 -0.250093
C42   C     C_R   0.298968 0.728520 0.319417 -0.280702
C43   C     C_R   0.667240 0.193583 0.647391 0.119772
C44   C     C_R   0.328652 0.805671 0.354243 0.093293
C45   C     C_R   0.520845 0.287235 0.506694 0.079864
C46   C     C_R   0.474987 0.710401 0.492869 0.011933
C47   C     C_R   0.539247 0.366806 0.539351 -0.027719
C48   C     C_R   0.444894 0.626710 0.464434 -0.040254
C49   C     C_R   0.623785 0.354491 0.632076 0.124451
C50   C     C_R   0.357957 0.638706 0.373224 0.101453
C51   C     C_R   0.476722 0.456849 0.483877 0.054358
C52   C     C_R   0.500004 0.533327 0.522280 0.052241
C53   C     C_R   0.577955 0.514247 0.617500 -0.289942
C54   C     C_R   0.394309 0.473974 0.390410 -0.212435
C55   C     C_R   0.640232 0.427927 0.671234 0.182547
C56   C     C_R   0.333663 0.561737 0.336983 0.182179
H15   H     H_    0.547453 0.711778 0.555210 0.148945
H16   H     H_    0.453440 0.286251 0.441234 0.132729
H17   H     H_    0.283592 0.874978 0.312342 0.145172
H18   H     H_    0.712017 0.124447 0.689770 0.132388
H19   H     H_    0.753757 0.255398 0.755138 0.175760
H20   H     H_    0.230807 0.740556 0.250484 0.183489
H21   H     H_    0.597457 0.567446 0.651442 0.177859
H22   H     H_    0.373931 0.420270 0.356007 0.159729
I1    I     I_    0.453326 0.219427 0.874551 -0.437054
I2    I     I_    0.768513 0.548329 0.370953 -0.424653
I3    I     I_    0.762904 0.418564 0.809656 -0.404541
I4    I     I_    0.209575 0.571926 0.199200 -0.380826
I5    I     I_    0.106349 0.300237 0.470731 -0.345367
I6    I     I_    0.816571 0.722641 0.680948 -0.504034
O9    O     O_3   0.935537 0.083268 0.620556 -0.545520
C57   C     C_3   0.924149 0.007255 0.719325 0.073364
H23   H     H_    0.979911 0.942000 0.744228 0.145776
H24   H     H_    0.822817 0.975527 0.722008 0.156572
C58   C     C_3   0.970819 0.055408 0.795601 -0.781051
H25   H     H_    0.922755 0.123710 0.772547 0.245389
H26   H     H_    0.951180 0.998842 0.871608 0.203869
H27   H     H_    0.074538 0.079358 0.800545 0.260575
O10   O     O_3   0.073290 0.844799 0.467578 -0.563863
C59   C     C_3   0.107648 0.758680 0.558486 0.109296
H28   H     H_    0.041326 0.734489 0.612164 0.157655
H29   H     H_    0.202887 0.774875 0.599582 0.196749
C60   C     C_3   0.108745 0.668660 0.533621 -0.705520
H30   H     H_    0.195451 0.678630 0.503333 0.238223
H31   H     H_    0.106141 0.596276 0.603001 0.210116
H32   H     H_    0.025938 0.662825 0.475808 0.272003
O11   O     O_3   0.380354 0.674638 0.761786 -0.614679
C61   C     C_3   0.448744 0.601611 0.764154 0.104146
H33   H     H_    0.493395 0.551934 0.841646 0.160610
H34   H     H_    0.526437 0.642639 0.720574 0.171943
C62   C     C_3   0.359744 0.531143 0.719214 -0.785785
H35   H     H_    0.336161 0.571855 0.636093 0.237711
H36   H     H_    0.405037 0.462659 0.737895 0.245027
H37   H     H_    0.270235 0.504303 0.750174 0.251634
O12   O     O_3   0.590512 0.326106 0.228492 -0.588699
C63   C     C_3   0.685539 0.328568 0.178017 0.035781
H38   H     H_    0.674636 0.389526 0.099314 0.172702
H39   H     H_    0.682541 0.253169 0.175347 0.147457
C64   C     C_3   0.814788 0.352106 0.235312 -0.637142
H40   H     H_    0.828485 0.291761 0.313907 0.265777
H41   H     H_    0.890671 0.354321 0.196446 0.213480
H42   H     H_    0.821848 0.427612 0.238234 0.275041

loop_
_geom_bond_atom_site_label_1
_geom_bond_atom_site_label_2
_geom_bond_distance
_ccdc_geom_bond_type
O5    Cu1   1.982134 S    
C58   H25   1.108951 S    
C56   I4    2.131479 S    
C13   H5    1.082592 S    
C18   C21   1.399869 A    
C25   C27   1.394612 A    
C25   H11   1.083813 S    
C61   H33   1.113431 S    
C31   C33   1.419071 A    
C16   I2    2.108672 S    
C51   C52   1.420791 A    
O5    C3    1.299950 A    
C48   C50   1.419829 A    
O1    C1    1.312042 A    
C3    C20   1.472864 S    
C19   C21   1.414332 A    
C10   C12   1.404741 A    
O11   C61   1.414721 S    
C62   H36   1.108484 S    
C59   H28   1.103277 S    
C28   H9    1.083436 S    
O4    Cu1   1.932828 S    
C6    C16   1.397102 A    
C5    C7    1.395327 A    
N2    C46   1.352753 A    
C8    C10   1.405818 A    
C64   H42   1.111442 S    
C26   H12   1.084090 S    
C18   C20   1.410386 A    
O6    C4    1.305837 A    
C23   C29   1.413384 A    
C29   C31   1.418973 A    
C58   H26   1.110542 S    
Cu1   Cu2   2.704884 S    
C47   C49   1.424108 A    
O2    C2    1.305701 A    
C26   C28   1.389234 A    
C25   C33   1.403635 A    
O9    C57   1.418078 S    
C30   C32   1.429771 A    
Cu1   N2    2.031865 S    
C37   C39   1.393070 A    
C12   I6    2.136949 S    
C38   C40   1.392775 A    
C13   C15   1.398359 A    
C35   C36   1.415136 A    
C61   C62   1.524889 S    
C14   C16   1.395599 A    
C46   C48   1.416932 A    
C62   H37   1.106725 S    
C50   C56   1.404069 A    
C53   C55   1.384042 A    
C52   C53   1.408353 A    
C49   C55   1.395885 A    
C31   C35   1.426525 A    
C29   O12   1.383306 S    
C33   C39   1.398696 A    
C34   C40   1.396372 A    
C41   C43   1.381076 A    
C7    C9    1.406231 A    
O7    Cu2   1.990152 S    
C55   I3    2.135226 S    
C24   C28   1.404524 A    
C6    C8    1.398681 A    
C10   C21   1.476516 S    
C42   C50   1.404503 A    
C4    C19   1.477485 S    
O7    C3    1.307719 A    
O12   C63   1.411286 S    
O3    Cu2   1.932828 S    
O8    C4    1.304172 A    
C27   H10   1.083172 S    
C26   C34   1.396784 A    
C54   C56   1.390398 A    
C8    H4    1.083086 S    
C11   I5    2.120299 S    
C58   H27   1.109345 S    
C15   I1    2.107104 S    
C39   H7    1.083911 S    
C64   H40   1.111825 S    
C42   H20   1.080226 S    
C2    C24   1.487610 S    
C60   H32   1.105936 S    
O4    C2    1.310521 A    
C41   C49   1.402489 A    
C24   C30   1.419743 A    
C63   H39   1.115746 S    
C20   C22   1.413507 A    
C57   C58   1.523086 S    
C36   C37   1.406819 A    
C45   C47   1.409620 A    
C45   H16   1.074205 S    
C51   C54   1.412309 A    
C5    H1    1.082405 S    
C1    C23   1.475145 S    
O6    Cu2   1.982135 S    
C30   O11   1.383823 S    
C7    H3    1.083629 S    
C18   O10   1.392865 S    
C12   C14   1.395923 A    
O3    C1    1.297334 A    
O8    Cu1   1.990151 S    
C61   H34   1.102251 S    
C5    C15   1.396082 A    
C11   C13   1.401077 A    
C9    C22   1.487050 S    
O10   C59   1.420937 S    
C41   H19   1.080016 S    
C17   C22   1.406791 A    
C35   C38   1.409715 A    
C63   C64   1.520989 S    
C60   H31   1.109665 S    
C14   H6    1.076483 S    
N1    C45   1.352111 A    
C62   H35   1.103205 S    
C37   H13   1.081499 S    
N2    C44   1.355855 A    
C59   H29   1.109166 S    
N1    C43   1.350245 A    
C32   C34   1.415663 A    
C17   C19   1.415991 A    
Cu2   N1    2.031865 S    
C40   H8    1.081654 S    
C17   O9    1.386162 S    
C9    C11   1.412286 A    
C54   H22   1.075050 S    
O2    Cu2   1.935701 S    
C57   H24   1.111040 S    
C53   H21   1.063925 S    
C46   H15   1.069515 S    
C32   C36   1.426383 A    
O1    Cu1   1.935700 S    
C38   H14   1.079203 S    
C6    H2    1.082270 S    
C57   H23   1.118187 S    
C48   C52   1.428022 A    
C23   C27   1.398995 A    
C64   H41   1.110687 S    
C42   C44   1.389017 A    
C47   C51   1.428829 A    
C63   H38   1.115106 S    
C60   H30   1.103812 S    
C44   H17   1.081485 S    
C43   H18   1.078355 S    
C59   C60   1.521452 S    
