data_mof_unit_66084.cif
_audit_creation_date              2012-12-10T18:32:03-0500
_audit_creation_method            fapswitch 2.2
_symmetry_space_group_name_H-M    P1
_symmetry_Int_Tables_number       1
_space_group_crystal_system       triclinic
_cell_length_a                    23.585652
_cell_length_b                    22.350863
_cell_length_c                    27.692067
_cell_angle_alpha                 89.315122
_cell_angle_beta                  86.375773
_cell_angle_gamma                 90.74593
_cell_volume                      14566.5175095

loop_
_atom_site_label
_atom_site_type_symbol
_atom_type_description
_atom_site_fract_x
_atom_site_fract_y
_atom_site_fract_z
_atom_type_partial_charge
C1    C     C_R   0.390844 0.499836 0.498339 0.913675
C2    C     C_R   0.609141 0.500151 0.501553 0.914249
C3    C     C_R   0.490429 0.500090 0.254584 0.255034
C4    C     C_R   0.495114 0.496227 0.746480 0.266221
C5    C     C_R   0.479130 0.497312 0.103300 -0.135080
C6    C     C_R   0.485151 0.495419 0.898945 -0.109771
C7    C     C_R   0.491157 0.443868 0.128727 -0.085265
C8    C     C_R   0.497965 0.549569 0.872865 -0.088010
C9    C     C_R   0.501884 0.390950 0.102151 0.326308
C10   C     C_R   0.507500 0.602590 0.898919 0.322157
C11   C     C_R   0.470184 0.551293 0.128681 -0.058945
C12   C     C_R   0.478013 0.441133 0.873911 -0.104910
C13   C     C_R   0.498058 0.500844 0.355068 -0.142259
C14   C     C_R   0.497180 0.498669 0.645234 -0.142120
C15   C     C_R   0.472717 0.441325 0.976694 -0.023790
C16   C     C_R   0.470696 0.550956 0.026284 0.010281
C17   C     C_R   0.482024 0.550385 0.975254 0.015046
C18   C     C_R   0.480746 0.442216 0.027151 0.014620
C19   C     C_R   0.479786 0.495658 0.950275 0.063787
C20   C     C_R   0.476564 0.496835 0.052280 0.068266
C21   C     C_R   0.458183 0.388749 0.951569 0.152728
C22   C     C_R   0.454076 0.603004 0.052403 0.079107
C23   C     C_R   0.500338 0.500298 0.407540 0.883456
C24   C     C_R   0.499414 0.499646 0.592482 0.882698
C25   C     C_R   0.462327 0.388232 0.900872 0.175200
C26   C     C_R   0.455074 0.603325 0.103132 0.185260
C27   C     C_R   0.497023 0.391065 0.052357 -0.249431
C28   C     C_R   0.499811 0.602100 0.949104 -0.248704
C29   C     C_R   0.878806 0.525084 0.542276 0.652937
C30   C     C_R   0.121001 0.474686 0.457959 0.652647
C31   C     C_R   0.880280 0.462366 0.473257 0.653032
C32   C     C_R   0.119562 0.536585 0.527462 0.653302
C33   C     C_R   0.940283 0.464079 0.468740 -0.040615
C34   C     C_R   0.059557 0.534831 0.532006 -0.041267
C35   C     C_R   0.969787 0.497868 0.502461 -0.086109
C36   C     C_R   0.030046 0.501168 0.498207 -0.086220
C37   C     C_R   0.938941 0.528323 0.540377 -0.098989
C38   C     C_R   0.060882 0.470865 0.460201 -0.097960
C39   C     C_R   0.971038 0.433844 0.431094 0.103333
C40   C     C_R   0.028807 0.564819 0.569797 0.103281
C41   C     C_R   0.030745 0.437321 0.426555 0.256313
C42   C     C_R   0.969093 0.561441 0.574269 0.255998
C43   C     C_R   0.466641 0.317434 0.533506 0.346022
C44   C     C_R   0.533481 0.682509 0.466529 0.345376
C45   C     C_R   0.534972 0.320695 0.466717 0.349559
C46   C     C_R   0.465032 0.679473 0.533171 0.351762
C47   C     C_R   0.465672 0.253999 0.532636 0.160579
C48   C     C_R   0.534561 0.745955 0.467329 0.161075
C49   C     C_R   0.534939 0.257232 0.465203 0.160966
C50   C     C_R   0.465166 0.742943 0.534631 0.161282
C51   C     C_R   0.242939 0.546923 0.466045 0.120883
C52   C     C_R   0.756644 0.454054 0.535407 0.122344
C53   C     C_R   0.302584 0.545209 0.467063 0.147474
C54   C     C_R   0.697028 0.455897 0.534192 0.147958
C55   C     C_R   0.328276 0.500112 0.494493 -0.143640
C56   C     C_R   0.671654 0.499783 0.505377 -0.141874
C57   C     C_R   0.293478 0.455681 0.518560 0.042805
C58   C     C_R   0.706685 0.542725 0.479787 0.039235
C59   C     C_R   0.234186 0.457654 0.517030 0.223503
C60   C     C_R   0.765949 0.540751 0.481576 0.224663
C61   C     C_R   0.209129 0.503580 0.491427 0.236619
C62   C     C_R   0.790721 0.496083 0.508761 0.236461
C63   C     C_R   0.460995 0.871520 0.476095 0.684296
C64   C     C_R   0.539328 0.128549 0.523649 0.684106
C65   C     C_R   0.538561 0.872537 0.526784 0.681259
C66   C     C_R   0.461731 0.127544 0.472992 0.681453
C67   C     C_R   0.541858 0.936422 0.524873 -0.132225
C68   C     C_R   0.458473 0.063654 0.474849 -0.131881
C69   C     C_R   0.457973 0.935308 0.476598 -0.134456
C70   C     C_R   0.542367 0.064764 0.523116 -0.134360
C71   C     C_R   0.500046 0.967992 0.500293 -0.072228
C72   C     C_R   0.500290 0.032083 0.499423 -0.072282
C73   C     C_R   0.585644 0.969539 0.546141 0.258267
C74   C     C_R   0.414718 0.030532 0.453539 0.258311
C75   C     C_R   0.414396 0.967254 0.454515 0.257410
C76   C     C_R   0.585967 0.032817 0.545167 0.257212
C77   C     C_R   0.493003 0.446076 0.179519 0.581137
C78   C     C_R   0.500917 0.548227 0.821873 0.601880
C79   C     C_R   0.499925 0.223539 0.498254 0.122427
C80   C     C_R   0.500293 0.776530 0.501614 0.122632
C81   C     C_R   0.475116 0.550918 0.179221 0.607871
C82   C     C_R   0.484423 0.442628 0.822765 0.561321
C83   C     C_R   0.544199 0.503526 0.274137 0.104629
C84   C     C_R   0.443688 0.497993 0.723122 0.102267
C85   C     C_R   0.547955 0.503511 0.324488 0.304831
C86   C     C_R   0.444776 0.498794 0.672463 0.306011
C87   C     C_R   0.444903 0.497810 0.335506 -0.274144
C88   C     C_R   0.548050 0.497076 0.668531 -0.278013
C89   C     C_R   0.440824 0.497320 0.285387 0.205612
C90   C     C_R   0.547281 0.495706 0.719088 0.205610
Cu1   Cu    Cu3+1 0.500000 0.559570 0.500000 1.087670
Cu2   Cu    Cu3+1 0.500000 0.440430 0.500000 1.085888
H1    H     H_    0.509037 0.351034 0.033176 0.179361
H2    H     H_    0.510688 0.642377 0.967660 0.182743
H3    H     H_    0.406534 0.495510 0.359221 0.175098
H4    H     H_    0.588357 0.496839 0.647435 0.181796
N1    N     N_R   0.486189 0.499037 0.203068 -0.466971
N2    N     N_R   0.494109 0.495568 0.798430 -0.450688
N3    N     N_R   0.851556 0.493337 0.508805 -0.450684
N4    N     N_R   0.148269 0.506136 0.491593 -0.450340
N5    N     N_R   0.500000 0.350920 0.500000 -0.265638
N6    N     N_R   0.500000 0.649080 0.500000 -0.265387
N7    N     N_R   0.499765 0.841863 0.501718 -0.431474
N8    N     N_R   0.500524 0.158211 0.498066 -0.431344
O1    O     O_R   0.417880 0.550320 0.500010 -0.524917
O2    O     O_R   0.582120 0.449680 0.499990 -0.526562
O3    O     O_R   0.582120 0.550320 0.499990 -0.553725
O4    O     O_R   0.417880 0.449680 0.500010 -0.553678
O5    O     O_R   0.500010 0.550300 0.430260 -0.527627
O6    O     O_R   0.499990 0.449700 0.569740 -0.526935
O7    O     O_R   0.499990 0.550300 0.569740 -0.560916
O8    O     O_R   0.500010 0.449700 0.430260 -0.562555
O9    O     O_2   0.426321 0.838711 0.449766 -0.427798
O10   O     O_2   0.574009 0.161349 0.549978 -0.428722
O11   O     O_2   0.573195 0.840620 0.553680 -0.436875
O12   O     O_2   0.427048 0.159477 0.446154 -0.437919
O13   O     O_2   0.501125 0.396119 0.205732 -0.447862
O14   O     O_2   0.509434 0.598853 0.795387 -0.450097
O15   O     O_2   0.480957 0.392101 0.796976 -0.527429
O16   O     O_2   0.469430 0.601812 0.204679 -0.464305
O17   O     O_2   0.846976 0.553892 0.576461 -0.443128
O18   O     O_2   0.152816 0.446864 0.423194 -0.445429
O19   O     O_2   0.850188 0.430890 0.442125 -0.447949
O20   O     O_2   0.149667 0.567634 0.558847 -0.448245
Br1   Br    Br    0.418442 0.207437 0.578919 -0.302834
Br2   Br    Br    0.581955 0.792392 0.421073 -0.299750
Br3   Br    Br    0.582908 0.215174 0.418347 -0.283825
Br4   Br    Br    0.417171 0.785177 0.581369 -0.287930
N9    N     N_3   0.941346 0.399371 0.396964 -0.462938
H5    H     H_    0.950803 0.416860 0.362161 0.272018
H6    H     H_    0.954437 0.354922 0.398538 0.271975
N10   N     N_3   0.058508 0.598970 0.604123 -0.463897
H7    H     H_    0.049089 0.581153 0.638824 0.271563
H8    H     H_    0.045383 0.643426 0.602833 0.271692
Br5   Br    Br    0.067646 0.394490 0.372872 -0.340673
Br6   Br    Br    0.932215 0.603319 0.628482 -0.338391
N11   N     N_3   0.215738 0.592447 0.439301 -0.522532
H9    H     H_    0.229865 0.589586 0.402867 0.269383
H10   H     H_    0.227770 0.634204 0.452189 0.284461
N12   N     N_3   0.783536 0.409696 0.563580 -0.522455
H11   H     H_    0.771345 0.367389 0.551932 0.283529
H12   H     H_    0.769293 0.414268 0.599847 0.270425
Br7   Br    Br    0.347457 0.602968 0.428088 -0.440881
Br8   Br    Br    0.651661 0.399939 0.574516 -0.449522
N13   N     N_3   0.318401 0.409047 0.545446 -0.478238
H13   H     H_    0.301900 0.410561 0.581344 0.303081
H14   H     H_    0.307085 0.367935 0.530921 0.279289
N14   N     N_3   0.682010 0.587647 0.450975 -0.478601
H15   H     H_    0.693515 0.629621 0.463800 0.282024
H16   H     H_    0.698568 0.583848 0.415241 0.302741
Br9   Br    Br    0.186623 0.397828 0.550779 -0.389200
Br10  Br    Br    0.813846 0.598825 0.446086 -0.387599
Br11  Br    Br    0.422656 0.353721 0.585482 -0.328818
Br12  Br    Br    0.577490 0.646175 0.414652 -0.325156
Br13  Br    Br    0.588245 0.362165 0.422202 -0.283091
Br14  Br    Br    0.411591 0.638300 0.577542 -0.283596
N15   N     N_3   0.386361 0.493720 0.265463 -0.533772
H17   H     H_    0.365829 0.454682 0.278925 0.248337
H18   H     H_    0.362554 0.530160 0.278002 0.256142
N16   N     N_3   0.599362 0.493773 0.742894 -0.528206
H19   H     H_    0.621358 0.455775 0.731132 0.252157
H20   H     H_    0.623849 0.531348 0.731721 0.254467
Br15  Br    Br    0.525923 0.316242 0.129094 -0.319207
Br16  Br    Br    0.533343 0.678047 0.870520 -0.320051
Br17  Br    Br    0.649138 0.930641 0.574548 -0.219553
Br18  Br    Br    0.351282 0.069419 0.425032 -0.222374
Br19  Br    Br    0.350198 0.926657 0.427818 -0.222834
Br20  Br    Br    0.650195 0.073411 0.571817 -0.222716
Br21  Br    Br    0.374144 0.499277 0.641264 -0.349567
Br22  Br    Br    0.621514 0.505974 0.350795 -0.341959
N17   N     N_3   0.390145 0.499484 0.750595 -0.493130
H21   H     H_    0.390247 0.536528 0.773286 0.244168
H22   H     H_    0.385924 0.460818 0.772174 0.248847
N18   N     N_3   0.595155 0.507331 0.243128 -0.489850
H23   H     H_    0.592508 0.544637 0.220286 0.242894
H24   H     H_    0.597542 0.469109 0.221773 0.258771
N19   N     N_3   0.447739 0.333157 0.878222 -0.506872
H25   H     H_    0.483539 0.316597 0.858909 0.279807
H26   H     H_    0.414625 0.340437 0.855568 0.272550
N20   N     N_3   0.438871 0.656588 0.128713 -0.473770
H27   H     H_    0.397045 0.666752 0.121573 0.262030
H28   H     H_    0.465455 0.691847 0.115841 0.246775
N21   N     N_3   0.430545 0.337938 0.975817 -0.528185
H29   H     H_    0.410245 0.349567 0.008940 0.245640
H30   H     H_    0.460139 0.304254 0.980252 0.246496
N22   N     N_3   0.427709 0.652847 0.029744 -0.583558
H31   H     H_    0.409419 0.640380 0.997912 0.258181
H32   H     H_    0.457541 0.687409 0.023187 0.237235

loop_
_geom_bond_atom_site_label_1
_geom_bond_atom_site_label_2
_ccdc_geom_bond_type
C15   C18   A    
C54   Br8   S    
N17   H21   S    
C88   H4    S    
N15   H17   S    
C4    N2    S    
C86   Br21  S    
C82   N2    A    
Cu1   O1    S    
C66   C68   A    
C35   C36   A    
C51   C61   A    
C74   Br18  S    
C84   N17   S    
Cu2   O6    S    
N13   H13   S    
C39   C41   A    
C5    C20   A    
C11   C81   A    
C15   C19   A    
C23   O8    A    
N17   H22   S    
C81   O16   S    
C13   C23   S    
C33   C39   A    
C66   O12   S    
C34   C40   A    
C42   Br6   S    
C78   O14   S    
N12   H12   S    
C5    C11   A    
C57   N13   S    
N21   H30   S    
C6    C12   A    
C58   N14   S    
C57   C59   A    
C29   C37   A    
C68   C74   A    
C30   N4    A    
C2    O3    A    
C30   C38   A    
C18   C20   A    
C60   C62   A    
C60   Br10  S    
C14   C24   S    
C37   C42   A    
C9    Br15  S    
C32   O20   S    
N18   H23   S    
C33   C35   A    
Cu2   O4    S    
C63   C69   A    
N20   H28   S    
N10   H7    S    
N19   H26   S    
C87   H3    S    
C78   N2    A    
C16   C22   A    
C31   C33   A    
C77   N1    A    
C45   Br13  S    
C31   N3    A    
C34   C36   A    
C68   C72   A    
C7    C77   A    
C40   C42   A    
C14   C88   A    
C40   N10   S    
C69   C71   A    
N15   H18   S    
C46   N6    A    
C8    C78   A    
C65   O11   S    
C24   O7    A    
C82   O15   S    
C23   O5    A    
N13   H14   S    
C52   C54   A    
C47   Br1   S    
C58   C60   A    
C4    C90   A    
C53   C55   A    
C49   Br3   S    
C54   C56   A    
C59   C61   A    
C64   O10   S    
C74   C75   A    
C29   N3    A    
C80   N7    S    
C66   N8    A    
C24   O6    A    
N12   H11   S    
C14   C86   A    
C38   C41   A    
C63   N7    A    
Cu1   Cu2   S    
C5    C7    A    
C44   N6    A    
Cu2   O8    S    
C28   H2    S    
C6    C8    A    
C39   N9    S    
C11   C26   A    
C65   C67   A    
C48   Br2   S    
C2    O2    A    
C49   C79   A    
C29   O17   S    
C51   C53   A    
C32   C34   A    
C22   N22   S    
N21   H29   S    
C43   N5    A    
C6    C19   A    
Cu1   O3    S    
C59   Br9   S    
N11   H10   S    
C3    N1    S    
C4    C84   A    
C45   C49   A    
C16   C20   A    
C13   C87   A    
C12   C82   A    
N14   H15   S    
C76   Br20  S    
C45   N5    A    
Cu2   N5    S    
N10   H8    S    
C67   C73   A    
C51   N11   S    
Cu2   O2    S    
C83   C85   A    
C73   Br17  S    
C88   C90   A    
C64   C70   A    
C55   C57   A    
C3    C83   A    
C73   C76   A    
C79   N8    S    
C27   H1    S    
C61   N4    S    
C50   Br4   S    
C65   N7    A    
Cu1   N6    S    
N22   H32   S    
C41   Br5   S    
N20   H27   S    
C9    C27   A    
N9    H5    S    
C10   C28   A    
C7    C9    A    
C21   C25   A    
C10   Br16  S    
C35   C37   A    
C17   C28   A    
C64   N8    A    
C18   C27   A    
N14   H16   S    
C50   C80   A    
C75   Br19  S    
C89   N15   S    
C26   N20   S    
C46   Br14  S    
N11   H9    S    
C46   C50   A    
C77   O13   S    
C85   Br22  S    
C1    O1    A    
C21   N21   S    
C12   C25   A    
C3    C89   A    
C44   Br12  S    
N16   H19   S    
Cu1   O5    S    
C87   C89   A    
C1    C55   S    
C31   O19   S    
C71   C72   A    
C2    C56   S    
C47   C79   A    
C70   C76   A    
C48   C80   A    
C16   C17   A    
C81   N1    A    
C30   O18   S    
C36   C38   A    
C52   N12   S    
C56   C58   A    
C69   C75   A    
C67   C71   A    
C90   N16   S    
N18   H24   S    
C1    O4    A    
Cu1   O7    S    
C62   N3    S    
C63   O9    S    
C17   C19   A    
C32   N4    A    
C15   C21   A    
C8    C10   A    
N19   H25   S    
C22   C26   A    
C83   N18   S    
C13   C85   A    
C52   C62   A    
C84   C86   A    
C70   C72   A    
C53   Br7   S    
N22   H31   S    
C43   Br11  S    
C25   N19   S    
C43   C47   A    
C44   C48   A    
N16   H20   S    
N9    H6    S    
