data_mof_unit_59017.cif
_audit_creation_date              2012-12-11T14:49:41-0500
_audit_creation_method            fapswitch 2.2
_symmetry_space_group_name_H-M    P1
_symmetry_Int_Tables_number       1
_space_group_crystal_system       monoclinic
_cell_length_a                    17.191066
_cell_length_b                    7.104311
_cell_length_c                    16.659575
_cell_angle_alpha                 90.0
_cell_angle_beta                  100.426574
_cell_angle_gamma                 90.0
_cell_volume                      2001.04841626

loop_
_atom_site_label
_atom_site_type_symbol
_atom_type_description
_atom_site_fract_x
_atom_site_fract_y
_atom_site_fract_z
_atom_type_partial_charge
O1    O     O_R   0.579510 0.506290 0.439030 -0.540277
O2    O     O_R   0.420490 0.006290 0.560970 -0.540277
O3    O     O_R   0.412540 0.170090 0.405290 -0.503375
O4    O     O_R   0.587460 0.670090 0.594710 -0.503375
C1    C     C_R   0.384220 0.345708 0.383240 0.908613
C2    C     C_R   0.615780 0.845708 0.616760 0.908613
O5    O     O_R   0.578390 0.176230 0.429330 -0.535698
O6    O     O_R   0.421610 0.676230 0.570670 -0.535698
O7    O     O_R   0.587530 0.011250 0.585190 -0.502248
O8    O     O_R   0.412470 0.511250 0.414810 -0.502248
C3    C     C_R   0.605238 0.344910 0.414726 0.880367
C4    C     C_R   0.394762 0.844910 0.585274 0.880367
O9    O     O_3   0.502800 0.340940 0.551110 -0.375547
O10   O     O_3   0.497200 0.840940 0.448890 -0.375547
V1    V     V_3+5 0.499480 0.064020 0.490520 1.830116
V2    V     V_3+5 0.500520 0.564020 0.509480 1.830116
C5    C     C_R   0.165576 0.909995 0.861294 -0.407350
C6    C     C_R   0.834424 0.409995 0.138706 -0.407351
C7    C     C_R   0.330828 0.853701 0.635198 -0.400291
C8    C     C_R   0.669172 0.353701 0.364802 -0.400291
C9    C     C_R   0.191933 0.813773 0.645904 0.741236
C10   C     C_R   0.808067 0.313773 0.354096 0.741236
C11   C     C_R   0.253269 0.801122 0.600709 0.541973
C12   C     C_R   0.746731 0.301121 0.399291 0.541974
C13   C     C_R   0.346462 0.914722 0.717083 0.398421
C14   C     C_R   0.653538 0.414722 0.282917 0.398421
C15   C     C_R   0.287161 0.904749 0.766280 -0.315355
C16   C     C_R   0.712839 0.404749 0.233720 -0.315355
C17   C     C_R   0.207963 0.865118 0.729180 -0.367973
C18   C     C_R   0.792037 0.365118 0.270820 -0.367973
C19   C     C_R   0.147106 0.876549 0.776516 0.703440
C20   C     C_R   0.852894 0.376549 0.223484 0.703440
C21   C     C_R   0.245307 0.922327 0.898675 0.227932
C22   C     C_R   0.754693 0.422327 0.101325 0.227933
C23   C     C_R   0.305065 0.927405 0.851936 0.769953
C24   C     C_R   0.694935 0.427405 0.148063 0.769953
C25   C     C_3   0.753476 0.763265 0.832156 0.720167
C26   C     C_3   0.246524 0.263265 0.167844 0.720167
C27   C     C_3   0.682806 0.728035 0.759396 0.711999
C28   C     C_3   0.317194 0.228035 0.240604 0.711999
C29   C     C_3   0.842448 0.845794 0.726356 0.741780
C30   C     C_3   0.157552 0.345794 0.273644 0.741779
C31   C     C_3   0.770515 0.101258 0.789758 0.790566
C32   C     C_3   0.229485 0.601258 0.210242 0.790566
C33   C     C_3   0.815209 0.909754 0.808513 -0.749207
C34   C     C_3   0.184791 0.409754 0.191487 -0.749207
C35   C     C_3   0.688386 0.865225 0.686759 -0.732464
C36   C     C_3   0.311614 0.365225 0.313241 -0.732464
C37   C     C_3   0.768062 0.820266 0.655021 0.765797
C38   C     C_3   0.231938 0.320266 0.344979 0.765798
C39   C     C_3   0.696817 0.076541 0.719880 0.733607
C40   C     C_3   0.303183 0.576541 0.280120 0.733608
O11   O     O_R   0.087500 0.266000 0.085220 -0.510523
O12   O     O_R   0.912500 0.766000 0.914780 -0.510523
O13   O     O_R   0.921600 0.589950 0.070670 -0.541389
O14   O     O_R   0.078400 0.089950 0.929330 -0.541389
C41   C     C_R   0.897409 0.420993 0.088272 0.871309
C42   C     C_R   0.102590 0.920993 0.911728 0.871309
O15   O     O_R   0.087460 0.596020 0.094710 -0.510451
O16   O     O_R   0.912540 0.096020 0.905290 -0.510451
O17   O     O_R   0.079520 0.760970 0.939020 -0.536967
O18   O     O_R   0.920480 0.260970 0.060980 -0.536967
C43   C     C_R   0.114148 0.426413 0.119542 0.943484
C44   C     C_R   0.885852 0.926413 0.880458 0.943484
O19   O     O_3   0.997180 0.425140 0.948910 -0.377528
O20   O     O_3   0.002820 0.925140 0.051090 -0.377528
V3    V     V_3+5 0.000520 0.702080 0.009480 1.814703
V4    V     V_3+5 0.999480 0.202080 0.990520 1.814703
F1    F     F_    0.070203 0.853738 0.740901 -0.526882
F2    F     F_    0.929797 0.353738 0.259098 -0.526882
F3    F     F_    0.687955 0.544961 0.732845 -0.506556
F4    F     F_    0.312045 0.044961 0.267155 -0.506556
Cl1   Cl    Cl    0.908859 0.650781 0.741391 -0.268888
Cl2   Cl    Cl    0.091141 0.150781 0.258609 -0.268888
Cl3   Cl    Cl    0.766045 0.595463 0.604653 -0.261201
Cl4   Cl    Cl    0.233955 0.095463 0.395347 -0.261202
Cl5   Cl    Cl    0.833669 0.279534 0.763030 -0.195447
Cl6   Cl    Cl    0.166331 0.779534 0.236969 -0.195447
F5    F     F_    0.748348 0.170741 0.859719 -0.529070
F6    F     F_    0.251652 0.670741 0.140281 -0.529070
Cl7   Cl    Cl    0.610324 0.162112 0.753964 -0.261689
Cl8   Cl    Cl    0.389676 0.662112 0.246036 -0.261689
F7    F     F_    0.704447 0.195410 0.655532 -0.491408
F8    F     F_    0.295553 0.695410 0.344468 -0.491407
F9    F     F_    0.891225 0.980568 0.701630 -0.486355
F10   F     F_    0.108775 0.480568 0.298370 -0.486355
F11   F     F_    0.775142 0.946430 0.593221 -0.486213
F12   F     F_    0.224857 0.446430 0.406779 -0.486213
Cl9   Cl    Cl    0.273124 0.914190 0.005190 -0.231737
Cl10  Cl    Cl    0.726876 0.414190 0.994809 -0.231737
F13   F     F_    0.117365 0.769262 0.608415 -0.457722
F14   F     F_    0.882635 0.269262 0.391585 -0.457722
F15   F     F_    0.380993 0.938956 0.892217 -0.481046
F16   F     F_    0.619007 0.438955 0.107782 -0.481046
F17   F     F_    0.236245 0.743865 0.521780 -0.486191
F18   F     F_    0.763754 0.243865 0.478220 -0.486191
Cl11  Cl    Cl    0.437481 0.022822 0.754173 -0.359358
Cl12  Cl    Cl    0.562519 0.522822 0.245827 -0.359358
F19   F     F_    0.790620 0.592562 0.851575 -0.523581
F20   F     F_    0.209380 0.092562 0.148425 -0.523581
Cl13  Cl    Cl    0.721244 0.834914 0.925096 -0.335564
Cl14  Cl    Cl    0.278756 0.334913 0.074904 -0.335564
Cl15  Cl    Cl    0.587444 0.731508 0.789263 -0.299912
Cl16  Cl    Cl    0.412556 0.231508 0.210737 -0.299912

loop_
_geom_bond_atom_site_label_1
_geom_bond_atom_site_label_2
_ccdc_geom_bond_type
O20   V4    S    
C15   C17   A    
C37   F11   S    
O1    C3    A    
O2    C4    A    
C2    O7    A    
C41   O18   A    
C35   C37   S    
O5    C3    A    
O12   C44   A    
C38   Cl4   S    
C12   F18   S    
C31   F5    S    
C30   C34   S    
C40   F8    S    
O11   V4    S    
C25   Cl13  S    
O15   V3    S    
C8    C12   A    
O14   C42   A    
C16   C18   A    
O19   V3    S    
C37   Cl3   S    
C30   F10   S    
C18   C20   A    
C10   C18   A    
C39   Cl7   S    
C38   F12   S    
C5    C42   S    
C26   Cl14  S    
C32   C40   S    
C42   O17   A    
C36   C38   S    
O20   V3    S    
O6    V2    S    
C5    C21   A    
C29   C37   S    
C32   C34   S    
C23   F15   S    
C1    C36   S    
C3    C8    S    
C30   Cl2   S    
C2    C35   S    
C32   F6    S    
C26   F20   S    
C20   F2    S    
O12   V3    S    
C15   C23   A    
O14   V4    S    
C9    C17   A    
O4    V2    S    
C7    C11   A    
C32   Cl6   S    
C22   Cl10  S    
C21   Cl9   S    
C28   Cl16  S    
C6    C22   A    
O17   V3    S    
C6    C41   S    
O13   V3    S    
C19   F1    S    
O6    C4    A    
O19   V4    S    
O1    V2    S    
C29   C33   S    
C40   Cl8   S    
O2    V1    S    
C31   C33   S    
O16   V4    S    
C14   Cl12  S    
C13   Cl11  S    
C30   C38   S    
O13   C41   A    
C13   C15   A    
C5    C19   A    
C10   C12   A    
O4    C2    A    
C6    C20   A    
C25   C33   S    
C39   F7    S    
C25   F19   S    
O3    V1    S    
C27   C35   S    
C9    F13   S    
C28   C36   S    
C10   F14   S    
C28   F4    S    
O15   C43   A    
O3    C1    A    
C35   C39   S    
C27   Cl15  S    
C31   Cl5   S    
C29   F9    S    
C33   C44   S    
C14   C16   A    
O18   V4    S    
C34   C43   S    
O16   C44   A    
C9    C11   A    
O7    V1    S    
C1    O8    A    
C25   C27   S    
O8    V2    S    
C26   C28   S    
O11   C43   A    
C31   C39   S    
C8    C14   A    
C4    C7    S    
O5    V1    S    
C21   C23   A    
C11   F17   S    
C22   C24   A    
C7    C13   A    
C26   C34   S    
C29   Cl1   S    
C24   F16   S    
C36   C40   S    
C16   C24   A    
C17   C19   A    
O9    V2    S    
C27   F3    S    
O10   V1    S    
