data_mof_unit_8082.cif
_audit_creation_date              2012-12-10T18:00:43-0500
_audit_creation_method            fapswitch 2.2
_symmetry_space_group_name_H-M    P1
_symmetry_Int_Tables_number       1
_space_group_crystal_system       triclinic
_cell_length_a                    15.869322
_cell_length_b                    10.886219
_cell_length_c                    9.530572
_cell_angle_alpha                 89.11225
_cell_angle_beta                  90.611423
_cell_angle_gamma                 90.90786
_cell_volume                      1645.97841916

loop_
_atom_site_label
_atom_site_type_symbol
_atom_type_description
_atom_site_fract_x
_atom_site_fract_y
_atom_site_fract_z
_atom_type_partial_charge
C1    C     C_R   0.501972 0.262212 0.501543 0.873385
C2    C     C_R   0.555043 0.573010 0.075092 -0.077399
C3    C     C_R   0.339841 0.499989 0.499354 0.817810
C4    C     C_R   0.660158 0.500011 0.500646 0.817811
C5    C     C_3   0.972332 0.418546 0.599140 -0.208701
C6    C     C_3   0.027668 0.581454 0.400860 -0.208701
C7    C     C_3   0.026379 0.389933 0.470780 0.332399
C8    C     C_3   0.973621 0.610067 0.529220 0.332400
C9    C     C_1   0.250228 0.500567 0.498157 -0.165800
C10   C     C_1   0.749772 0.499433 0.501843 -0.165799
C11   C     C_3   0.029809 0.532978 0.628177 -0.244731
C12   C     C_R   0.498028 0.737788 0.498457 0.873385
C13   C     C_3   0.970191 0.467022 0.371823 -0.244731
C14   C     C_3   0.083154 0.501594 0.499136 0.085821
C15   C     C_3   0.916846 0.498406 0.500864 0.085821
C16   C     C_1   0.174741 0.501100 0.498177 -0.047114
C17   C     C_1   0.825259 0.498900 0.501823 -0.047114
C18   C     C_R   0.537768 0.067190 0.388493 0.165491
C19   C     C_R   0.462231 0.932810 0.611506 0.165494
C20   C     C_3   0.994731 0.174743 0.422332 -0.700791
C21   C     C_3   0.005269 0.825256 0.577668 -0.700792
C22   C     C_3   0.668409 0.164884 0.315444 -0.669393
C23   C     C_R   0.528965 0.939318 0.380135 0.152817
C24   C     C_3   0.331587 0.835113 0.684542 -0.669389
C25   C     C_3   0.490366 0.872221 0.148023 -0.672989
C26   C     C_3   0.509640 0.127775 0.851974 -0.672978
C27   C     C_1   0.386888 0.344195 0.144273 0.275566
C28   C     C_1   0.613112 0.655805 0.855727 0.275564
C29   C     C_R   0.471034 0.060681 0.619864 0.152814
C30   C     C_R   0.494891 0.871959 0.494943 -0.175783
C31   C     C_R   0.505108 0.128040 0.505056 -0.175783
C32   C     C_R   0.445015 0.426046 0.073457 0.075599
C33   C     C_R   0.554985 0.573954 0.926542 0.075600
C34   C     C_R   0.444957 0.426990 0.924908 -0.077396
Cu1   Cu    Cu3+1 0.500000 0.500020 0.640660 0.969058
Cu2   Cu    Cu3+1 0.500000 0.499980 0.359340 0.969056
H1    H     H_    0.948997 0.350846 0.678481 0.142483
H2    H     H_    0.956953 0.164875 0.519389 0.232363
H3    H     H_    0.898930 0.727091 0.642584 0.256795
H4    H     H_    0.974409 0.914181 0.596801 0.230133
H5    H     H_    0.043047 0.835125 0.480610 0.232363
H6    H     H_    0.047496 0.803511 0.668134 0.221389
H7    H     H_    0.573032 0.105517 0.180358 0.255411
H8    H     H_    0.705807 0.079591 0.323533 0.211313
H9    H     H_    0.673032 0.214737 0.416146 0.219356
H10   H     H_    0.695345 0.225096 0.231608 0.226743
H11   H     H_    0.426959 0.894485 0.819640 0.255408
H12   H     H_    0.051003 0.649154 0.321519 0.142484
H13   H     H_    0.294190 0.920407 0.676450 0.211316
H14   H     H_    0.304648 0.774902 0.768377 0.226741
H15   H     H_    0.326969 0.785260 0.583841 0.219354
H16   H     H_    0.612927 0.906419 0.219341 0.250302
H17   H     H_    0.469060 0.965487 0.116982 0.207803
H18   H     H_    0.435035 0.817779 0.185416 0.252135
H19   H     H_    0.515793 0.827515 0.053998 0.209131
H20   H     H_    0.387075 0.093582 0.780664 0.250298
H21   H     H_    0.530939 0.034506 0.883018 0.207804
H22   H     H_    0.484218 0.172488 0.945999 0.209132
H23   H     H_    0.945172 0.437739 0.268182 0.145221
H24   H     H_    0.564974 0.182207 0.814575 0.252127
H25   H     H_    0.054828 0.562261 0.731818 0.145221
H26   H     H_    0.401208 0.368568 0.867681 0.151378
H27   H     H_    0.598792 0.631431 0.132319 0.151380
H28   H     H_    0.101070 0.272909 0.357416 0.256795
H29   H     H_    0.025590 0.085819 0.403198 0.230133
H30   H     H_    0.952504 0.196489 0.331866 0.221389
N1    N     N_R   0.500020 0.500030 0.852070 -0.177895
N2    N     N_1   0.659987 0.722138 0.799644 -0.311587
N3    N     N_R   0.499980 0.499970 0.147930 -0.177896
N4    N     N_2   0.058377 0.270079 0.438229 -0.423090
N5    N     N_2   0.941623 0.729921 0.561771 -0.423090
N6    N     N_2   0.581415 0.135329 0.281588 -0.402401
N7    N     N_2   0.418580 0.864671 0.718408 -0.402400
N8    N     N_2   0.554868 0.878523 0.256705 -0.408395
N9    N     N_2   0.445134 0.121476 0.743297 -0.408395
N10   N     N_1   0.340013 0.277861 0.200355 -0.311587
O1    O     O_R   0.500000 0.319660 0.618740 -0.566238
O2    O     O_R   0.500000 0.680340 0.381260 -0.566241
O3    O     O_R   0.499990 0.319630 0.381170 -0.548809
O4    O     O_R   0.500010 0.680370 0.618830 -0.548808
O5    O     O_R   0.379080 0.500000 0.618760 -0.579081
O6    O     O_R   0.620920 0.500000 0.381240 -0.579081
O7    O     O_R   0.379080 0.499970 0.381190 -0.579707
O8    O     O_R   0.620920 0.500030 0.618810 -0.579706

loop_
_geom_bond_atom_site_label_1
_geom_bond_atom_site_label_2
_ccdc_geom_bond_type
H7    N6    S    
C5    H1    S    
C1    O1    A    
Cu1   Cu2   S    
C1    C31   S    
C7    N4    S    
Cu1   O5    S    
C2    H27   S    
C6    H12   S    
C21   N5    S    
C20   H30   S    
C28   N2    T    
C9    C16   T    
C25   H17   S    
C5    C11   S    
H16   N8    S    
C11   C14   S    
C24   N7    S    
Cu2   O7    S    
Cu1   O4    S    
C34   H26   S    
C25   N8    S    
C7    C14   S    
C22   H8    S    
Cu2   O6    S    
C12   O2    A    
C3    O5    A    
H28   N4    S    
C2    N3    A    
C24   H15   S    
H20   N9    S    
C18   N6    S    
C20   N4    S    
C22   N6    S    
C24   H14   S    
C18   C23   A    
C23   C30   A    
C20   H29   S    
C19   N7    S    
C25   H18   S    
H11   N7    S    
C5    C7    S    
C6    C8    S    
Cu1   O1    S    
C32   C34   A    
C3    C9    S    
C6    C14   S    
C20   H2    S    
C4    O8    A    
Cu1   N1    S    
C26   N9    S    
C26   H22   S    
C21   H5    S    
C2    C33   A    
C22   H10   S    
C28   C33   S    
C8    C15   S    
C13   C15   S    
C3    O7    A    
C1    O3    A    
C14   C16   S    
C29   N9    S    
C23   N8    S    
C4    C10   S    
C27   N10   T    
C19   C29   A    
Cu2   N3    S    
C33   N1    A    
C24   H13   S    
C15   C17   S    
C8    N5    S    
C12   C30   S    
C27   C32   S    
C25   H19   S    
C11   H25   S    
Cu2   O3    S    
C34   N1    A    
Cu1   O8    S    
C32   N3    A    
C13   H23   S    
C29   C31   A    
Cu2   O2    S    
C6    C13   S    
C21   H4    S    
C8    C11   S    
C12   O4    A    
C26   H21   S    
C5    C15   S    
C21   H6    S    
C7    C13   S    
C22   H9    S    
C4    O6    A    
H3    N5    S    
C18   C31   A    
C10   C17   T    
C19   C30   A    
C26   H24   S    
