data_mof_unit_63999.cif
_audit_creation_date              2012-12-10T18:10:56-0500
_audit_creation_method            fapswitch 2.2
_symmetry_space_group_name_H-M    P1
_symmetry_Int_Tables_number       1
_space_group_crystal_system       tetragonal
_cell_length_a                    21.628716
_cell_length_b                    21.628716
_cell_length_c                    35.543524
_cell_angle_alpha                 90.0
_cell_angle_beta                  90.0
_cell_angle_gamma                 90.0
_cell_volume                      16627.3087174

loop_
_atom_site_label
_atom_site_type_symbol
_atom_type_description
_atom_site_fract_x
_atom_site_fract_y
_atom_site_fract_z
_atom_type_partial_charge
C1    C     C_R   0.500000 0.879899 0.000000 0.894810
C2    C     C_1   0.000000 0.500000 0.733187 -0.069038
C3    C     C_R   0.943836 0.500250 0.634593 -0.199616
C4    C     C_R   0.499755 0.056164 0.365407 -0.199615
C5    C     C_R   0.056164 0.500247 0.365407 -0.199617
C6    C     C_R   0.500245 0.943836 0.365407 -0.199615
C7    C     C_R   0.943836 0.499752 0.365407 -0.199616
C8    C     C_R   0.999753 0.443836 0.134593 -0.199616
C9    C     C_R   0.556164 0.999750 0.134593 -0.199616
C10   C     C_R   0.000247 0.556164 0.134593 -0.199617
C11   C     C_R   0.443836 0.000250 0.134593 -0.199616
C12   C     C_R   0.999754 0.556164 0.865407 -0.199617
C13   C     C_1   0.500000 0.000000 0.266813 -0.069039
C14   C     C_R   0.556164 0.000251 0.865407 -0.199617
C15   C     C_R   0.000246 0.443836 0.865407 -0.199616
C16   C     C_R   0.443836 0.999749 0.865407 -0.199616
C17   C     C_R   0.500000 1.000000 0.614720 -0.037175
C18   C     C_R   0.000000 0.500000 0.614720 -0.037175
C19   C     C_R   0.500000 0.000000 0.385280 -0.037177
C20   C     C_R   0.000000 0.500000 0.385280 -0.037176
C21   C     C_R   0.000000 0.500000 0.114720 -0.037176
C22   C     C_R   0.500000 0.000000 0.114720 -0.037175
C23   C     C_R   0.000000 0.500000 0.885280 -0.037176
C24   C     C_1   1.000000 0.500000 0.266813 -0.069038
C25   C     C_R   0.500000 0.000000 0.885280 -0.037175
C26   C     C_R   0.500000 1.000000 0.693185 0.161184
C27   C     C_R   0.000000 0.500000 0.693185 0.161184
C28   C     C_R   0.500000 0.000000 0.306815 0.161184
C29   C     C_R   1.000000 0.500000 0.306815 0.161184
C30   C     C_R   1.000000 0.500000 0.193185 0.161184
C31   C     C_R   0.500000 0.000000 0.193185 0.161184
C32   C     C_R   0.000000 0.500000 0.806815 0.161184
C33   C     C_R   0.500000 1.000000 0.806815 0.161184
C34   C     C_1   1.000000 0.500000 0.233187 -0.069038
C35   C     C_1   0.500000 0.000000 0.233187 -0.069039
C36   C     C_1   0.000000 0.500000 0.766813 -0.069038
C37   C     C_1   0.500000 1.000000 0.766813 -0.069038
C38   C     C_R   0.542797 0.718354 0.022772 0.079270
C39   C     C_R   0.281646 0.542797 0.022772 0.079270
C40   C     C_R   0.457203 0.281646 0.022772 0.079270
C41   C     C_R   0.120100 0.500000 0.000000 0.894810
C42   C     C_R   0.718354 0.457203 0.022772 0.079270
C43   C     C_R   0.542797 0.281646 0.977228 0.079270
C44   C     C_R   0.281646 0.457203 0.977228 0.079270
C45   C     C_R   0.457203 0.718354 0.977228 0.079270
C46   C     C_R   0.718354 0.542797 0.977228 0.079270
C47   C     C_R   0.042797 0.218354 0.522772 0.079270
C48   C     C_R   0.781646 0.042797 0.522772 0.079270
C49   C     C_R   0.957203 0.781646 0.522772 0.079270
C50   C     C_R   0.218354 0.957203 0.522772 0.079270
C51   C     C_R   0.042797 0.781646 0.477228 0.079270
C52   C     C_R   0.500000 0.120100 0.000000 0.894810
C53   C     C_R   0.781646 0.957203 0.477228 0.079270
C54   C     C_R   0.957203 0.218354 0.477228 0.079270
C55   C     C_R   0.218354 0.042797 0.477228 0.079270
C56   C     C_R   0.379655 0.500000 0.000000 0.880199
C57   C     C_R   0.500000 0.379656 0.000000 0.880199
C58   C     C_R   0.620344 0.500000 0.000000 0.880199
C59   C     C_R   0.500000 0.620344 0.000000 0.880199
C60   C     C_R   0.879656 0.000000 0.500000 0.880199
C61   C     C_R   0.000000 0.879656 0.500000 0.880199
C62   C     C_R   0.120344 0.000000 0.500000 0.880199
C63   C     C_R   0.879899 0.500000 0.000000 0.894811
C64   C     C_R   0.000000 0.120344 0.500000 0.880199
C65   C     C_R   0.542750 0.782491 0.022239 -0.224159
C66   C     C_R   0.217509 0.542749 0.022239 -0.224158
C67   C     C_R   0.457250 0.217509 0.022239 -0.224158
C68   C     C_R   0.782491 0.457250 0.022239 -0.224158
C69   C     C_R   0.542749 0.217509 0.977761 -0.224158
C70   C     C_R   0.217509 0.457250 0.977761 -0.224159
C71   C     C_R   0.457250 0.782491 0.977761 -0.224158
C72   C     C_R   0.782491 0.542749 0.977761 -0.224159
C73   C     C_R   0.042750 0.282491 0.522239 -0.224159
C74   C     C_R   0.000000 0.379900 0.500000 0.894811
C75   C     C_R   0.717509 0.042749 0.522239 -0.224158
C76   C     C_R   0.957250 0.717509 0.522239 -0.224159
C77   C     C_R   0.282491 0.957250 0.522239 -0.224158
C78   C     C_R   0.042750 0.717509 0.477761 -0.224159
C79   C     C_R   0.717509 0.957250 0.477761 -0.224159
C80   C     C_R   0.957250 0.282491 0.477761 -0.224159
C81   C     C_R   0.282491 0.042750 0.477761 -0.224159
C82   C     C_R   0.500000 0.000000 0.926502 0.865790
C83   C     C_R   0.000000 0.500000 0.926502 0.865790
C84   C     C_R   0.500000 0.000000 0.073498 0.865793
C85   C     C_R   0.620100 0.000000 0.500000 0.894810
C86   C     C_R   0.000000 0.500000 0.073498 0.865792
C87   C     C_R   0.000000 0.500000 0.426502 0.865790
C88   C     C_R   0.500000 0.000000 0.426502 0.865790
C89   C     C_R   0.000000 0.500000 0.573498 0.865792
C90   C     C_R   0.500000 1.000000 0.573498 0.865792
C91   C     C_R   0.500000 0.686600 0.000000 -0.051079
C92   C     C_R   0.313399 0.500000 0.000000 -0.051079
C93   C     C_R   0.500000 0.313399 0.000000 -0.051079
C94   C     C_R   0.686600 0.500000 0.000000 -0.051079
C95   C     C_R   0.000000 0.186601 0.500000 -0.051079
C96   C     C_R   0.000000 0.620100 0.500000 0.894810
C97   C     C_R   0.813399 0.000000 0.500000 -0.051079
C98   C     C_R   0.000000 0.813399 0.500000 -0.051079
C99   C     C_R   0.186601 0.000000 0.500000 -0.051079
C100  C     C_R   0.500000 0.813885 0.000000 -0.065347
C101  C     C_R   0.186115 0.500000 0.000000 -0.065348
C102  C     C_R   0.500000 0.186115 0.000000 -0.065347
C103  C     C_R   0.813885 0.500000 0.000000 -0.065348
C104  C     C_R   0.000000 0.313885 0.500000 -0.065348
C105  C     C_R   0.686115 0.000000 0.500000 -0.065348
C106  C     C_R   0.000000 0.686115 0.500000 -0.065348
C107  C     C_R   0.379900 0.000000 0.500000 0.894811
C108  C     C_R   0.313885 0.000000 0.500000 -0.065348
C109  C     C_R   0.499749 0.943915 0.673743 -0.164415
C110  C     C_R   0.056085 0.499748 0.673743 -0.164415
C111  C     C_R   0.500251 0.056085 0.673743 -0.164415
C112  C     C_R   0.943915 0.500252 0.673743 -0.164415
C113  C     C_R   0.499754 0.056085 0.326257 -0.164414
C114  C     C_R   0.056085 0.500249 0.326257 -0.164415
C115  C     C_R   0.500246 0.943915 0.326257 -0.164415
C116  C     C_R   0.943915 0.499751 0.326257 -0.164415
C117  C     C_R   0.999751 0.443915 0.173743 -0.164415
C118  C     C_1   0.500000 1.000000 0.733187 -0.069038
C119  C     C_R   0.556085 0.999749 0.173743 -0.164415
C120  C     C_R   0.000249 0.556085 0.173743 -0.164416
C121  C     C_R   0.443915 0.000251 0.173743 -0.164416
C122  C     C_R   0.999753 0.556085 0.826257 -0.164415
C123  C     C_R   0.556085 0.000252 0.826257 -0.164414
C124  C     C_R   0.000247 0.443915 0.826257 -0.164415
C125  C     C_R   0.443915 0.999748 0.826257 -0.164415
C126  C     C_R   0.499751 0.943836 0.634593 -0.199616
C127  C     C_R   0.056164 0.499750 0.634593 -0.199616
C128  C     C_R   0.500249 0.056164 0.634593 -0.199617
H1    H     H_    0.499552 0.900371 0.688827 0.135326
H2    H     H_    0.599629 0.999551 0.188827 0.135326
H3    H     H_    0.000444 0.599629 0.188827 0.135326
H4    H     H_    0.400371 0.000449 0.188827 0.135326
H5    H     H_    0.999558 0.599629 0.811173 0.135326
H6    H     H_    0.599629 0.000450 0.811173 0.135326
H7    H     H_    0.000442 0.400371 0.811173 0.135326
H8    H     H_    0.400371 0.999549 0.811173 0.135326
H9    H     H_    0.499546 0.899927 0.619952 0.157599
H10   H     H_    0.100073 0.499544 0.619952 0.157598
H11   H     H_    0.500454 0.100073 0.619952 0.157599
H12   H     H_    0.099629 0.499550 0.688827 0.135326
H13   H     H_    0.899927 0.500456 0.619952 0.157599
H14   H     H_    0.499553 0.100073 0.380048 0.157598
H15   H     H_    0.100073 0.500451 0.380048 0.157599
H16   H     H_    0.500446 0.899927 0.380048 0.157598
H17   H     H_    0.899927 0.499549 0.380048 0.157599
H18   H     H_    0.999549 0.399927 0.119952 0.157599
H19   H     H_    0.600073 0.999545 0.119952 0.157599
H20   H     H_    0.000451 0.600073 0.119952 0.157599
H21   H     H_    0.399927 0.000455 0.119952 0.157599
H22   H     H_    0.999552 0.600073 0.880048 0.157599
H23   H     H_    0.500448 0.099629 0.688827 0.135326
H24   H     H_    0.600073 0.000457 0.880048 0.157599
H25   H     H_    0.000448 0.399927 0.880048 0.157599
H26   H     H_    0.399927 0.999543 0.880048 0.157599
H27   H     H_    0.575380 0.808007 0.039421 0.146201
H28   H     H_    0.191993 0.575380 0.039421 0.146201
H29   H     H_    0.424620 0.191993 0.039421 0.146200
H30   H     H_    0.808007 0.424620 0.039421 0.146201
H31   H     H_    0.575380 0.191993 0.960579 0.146200
H32   H     H_    0.191993 0.424619 0.960579 0.146201
H33   H     H_    0.424620 0.808007 0.960579 0.146200
H34   H     H_    0.900371 0.500450 0.688827 0.135326
H35   H     H_    0.808007 0.575380 0.960579 0.146201
H36   H     H_    0.075380 0.308007 0.539421 0.146201
H37   H     H_    0.691993 0.075380 0.539421 0.146201
H38   H     H_    0.924620 0.691993 0.539421 0.146201
H39   H     H_    0.308007 0.924620 0.539421 0.146201
H40   H     H_    0.075380 0.691993 0.460579 0.146201
H41   H     H_    0.691993 0.924620 0.460579 0.146201
H42   H     H_    0.924620 0.308007 0.460579 0.146201
H43   H     H_    0.308007 0.075380 0.460579 0.146201
H44   H     H_    0.612118 0.715870 0.062328 0.180970
H45   H     H_    0.499560 0.099629 0.311173 0.135325
H46   H     H_    0.617610 0.663239 0.027899 0.162628
H47   H     H_    0.284129 0.612118 0.062328 0.180970
H48   H     H_    0.336761 0.617610 0.027899 0.162629
H49   H     H_    0.387882 0.284129 0.062328 0.180970
H50   H     H_    0.382390 0.336761 0.027899 0.162629
H51   H     H_    0.715871 0.387881 0.062328 0.180969
H52   H     H_    0.663239 0.382390 0.027899 0.162629
H53   H     H_    0.612118 0.284129 0.937672 0.180970
H54   H     H_    0.617610 0.336761 0.972101 0.162629
H55   H     H_    0.284129 0.387881 0.937672 0.180970
H56   H     H_    0.099629 0.500445 0.311173 0.135326
H57   H     H_    0.336761 0.382390 0.972101 0.162629
H58   H     H_    0.387882 0.715871 0.937672 0.180969
H59   H     H_    0.382390 0.663239 0.972101 0.162629
H60   H     H_    0.715870 0.612118 0.937672 0.180970
H61   H     H_    0.663239 0.617610 0.972101 0.162629
H62   H     H_    0.112118 0.215870 0.562328 0.180970
H63   H     H_    0.117610 0.163239 0.527899 0.162629
H64   H     H_    0.784129 0.112118 0.562328 0.180970
H65   H     H_    0.836761 0.117610 0.527899 0.162629
H66   H     H_    0.887881 0.784129 0.562328 0.180969
H67   H     H_    0.500440 0.900371 0.311173 0.135326
H68   H     H_    0.882390 0.836761 0.527899 0.162629
H69   H     H_    0.215871 0.887881 0.562328 0.180969
H70   H     H_    0.163239 0.882390 0.527899 0.162629
H71   H     H_    0.112118 0.784129 0.437672 0.180970
H72   H     H_    0.117610 0.836761 0.472101 0.162629
H73   H     H_    0.784129 0.887882 0.437672 0.180970
H74   H     H_    0.836761 0.882390 0.472101 0.162629
H75   H     H_    0.887882 0.215871 0.437672 0.180970
H76   H     H_    0.882390 0.163239 0.472101 0.162629
H77   H     H_    0.215870 0.112118 0.437672 0.180970
H78   H     H_    0.900371 0.499555 0.311173 0.135326
H79   H     H_    0.163239 0.117610 0.472101 0.162629
H80   H     H_    0.999556 0.400371 0.188827 0.135326
N1    N     N_3   0.586313 0.685247 0.045843 -0.429081
N2    N     N_3   0.814753 0.086313 0.545842 -0.429081
N3    N     N_3   0.913686 0.814753 0.545842 -0.429081
N4    N     N_3   0.185247 0.913686 0.545842 -0.429081
N5    N     N_3   0.086313 0.814753 0.454157 -0.429081
N6    N     N_3   0.814753 0.913686 0.454157 -0.429081
N7    N     N_3   0.913686 0.185247 0.454157 -0.429081
N8    N     N_3   0.185247 0.086313 0.454157 -0.429081
N9    N     N_3   0.314753 0.586313 0.045842 -0.429081
N10   N     N_3   0.413687 0.314753 0.045843 -0.429081
N11   N     N_3   0.685247 0.413687 0.045842 -0.429081
N12   N     N_3   0.586313 0.314753 0.954157 -0.429081
N13   N     N_3   0.314753 0.413686 0.954157 -0.429081
N14   N     N_3   0.413687 0.685247 0.954157 -0.429080
N15   N     N_3   0.685247 0.586313 0.954157 -0.429081
N16   N     N_3   0.086313 0.185247 0.545842 -0.429082
O1    O     O_R   0.448380 0.908480 0.999900 -0.623610
O2    O     O_R   0.591520 0.948380 0.499900 -0.623610
O3    O     O_R   0.051620 0.591520 0.499900 -0.623610
O4    O     O_R   0.408480 0.051620 0.499900 -0.623610
O5    O     O_R   0.948380 0.591520 0.500100 -0.623610
O6    O     O_R   0.591520 0.051620 0.500100 -0.623611
O7    O     O_R   0.051620 0.408480 0.500100 -0.623610
O8    O     O_R   0.408480 0.948380 0.500100 -0.623610
O9    O     O_R   0.448380 0.000100 0.944450 -0.626119
O10   O     O_R   0.999900 0.448380 0.944450 -0.626119
O11   O     O_R   0.551620 0.999900 0.944450 -0.626119
O12   O     O_R   0.091520 0.448380 0.999900 -0.623610
O13   O     O_R   0.000100 0.551620 0.944450 -0.626119
O14   O     O_R   0.448380 0.999900 0.055550 -0.626120
O15   O     O_R   0.999900 0.551620 0.055550 -0.626120
O16   O     O_R   0.551620 0.000100 0.055550 -0.626121
O17   O     O_R   0.000100 0.448380 0.055550 -0.626120
O18   O     O_R   0.948380 0.500100 0.444450 -0.626119
O19   O     O_R   0.499900 0.948380 0.444450 -0.626119
O20   O     O_R   0.051620 0.499900 0.444450 -0.626119
O21   O     O_R   0.500100 0.051620 0.444450 -0.626119
O22   O     O_R   0.948380 0.499900 0.555550 -0.626120
O23   O     O_R   0.551620 0.091520 0.999900 -0.623610
O24   O     O_R   0.499900 0.051620 0.555550 -0.626120
O25   O     O_R   0.051620 0.500100 0.555550 -0.626120
O26   O     O_R   0.500100 0.948380 0.555550 -0.626120
O27   O     O_R   0.408370 0.500100 0.031180 -0.605978
O28   O     O_R   0.499900 0.408370 0.031180 -0.605978
O29   O     O_R   0.591630 0.499900 0.031180 -0.605978
O30   O     O_R   0.500100 0.591630 0.031180 -0.605978
O31   O     O_R   0.408370 0.499900 0.968820 -0.605977
O32   O     O_R   0.499900 0.591630 0.968820 -0.605977
O33   O     O_R   0.591630 0.500100 0.968820 -0.605977
O34   O     O_R   0.908480 0.551620 0.999900 -0.623610
O35   O     O_R   0.500100 0.408370 0.968820 -0.605977
O36   O     O_R   0.908370 0.000100 0.531180 -0.605978
O37   O     O_R   0.999900 0.908370 0.531180 -0.605978
O38   O     O_R   0.091630 0.999900 0.531180 -0.605978
O39   O     O_R   0.000100 0.091630 0.531180 -0.605978
O40   O     O_R   0.908370 0.999900 0.468820 -0.605977
O41   O     O_R   0.999900 0.091630 0.468820 -0.605977
O42   O     O_R   0.091630 0.000100 0.468820 -0.605977
O43   O     O_R   0.000100 0.908370 0.468820 -0.605977
O44   O     O_R   0.448380 0.091520 0.000100 -0.623610
O45   O     O_R   0.091520 0.551620 0.000100 -0.623610
O46   O     O_R   0.551620 0.908480 0.000100 -0.623610
O47   O     O_R   0.908480 0.448380 0.000100 -0.623610
O48   O     O_R   0.948380 0.408480 0.499900 -0.623610
Zn1   Zn    Zn3+2 0.431030 0.000000 0.000000 0.944192
Zn2   Zn    Zn3+2 0.500000 0.500000 0.958310 0.996864
Zn3   Zn    Zn3+2 0.000000 0.000000 0.541690 0.996864
Zn4   Zn    Zn3+2 0.000000 0.000000 0.458310 0.996865
Zn5   Zn    Zn3+2 0.000000 0.431030 0.000000 0.944192
Zn6   Zn    Zn3+2 0.568970 0.000000 0.000000 0.944192
Zn7   Zn    Zn3+2 0.000000 0.568970 0.000000 0.944192
Zn8   Zn    Zn3+2 0.931030 0.500000 0.500000 0.944192
Zn9   Zn    Zn3+2 0.500000 0.931030 0.500000 0.944192
Zn10  Zn    Zn3+2 0.068970 0.500000 0.500000 0.944192
Zn11  Zn    Zn3+2 0.500000 0.068970 0.500000 0.944192
Zn12  Zn    Zn3+2 0.500000 0.500000 0.041690 0.996864

loop_
_geom_bond_atom_site_label_1
_geom_bond_atom_site_label_2
_ccdc_geom_bond_type
C26   C111  A    
C29   C114  A    
C83   O13   A    
C126  H9    S    
H54   N12   S    
C53   N6    S    
C113  H45   S    
C5    C114  A    
C45   C71   A    
C120  H3    S    
C60   O40   A    
O7    Zn10  S    
C61   C98   S    
C3    H13   S    
C68   C103  A    
O18   Zn8   S    
C40   C93   A    
C47   N16   S    
C117  H80   S    
C39   C66   A    
C62   O38   A    
C88   O19   A    
H65   N2    S    
C64   O39   A    
C110  H12   S    
C5    C20   A    
C11   C121  A    
C69   C102  A    
C89   O22   A    
C48   C97   A    
C90   O26   A    
C12   C23   A    
C52   C102  S    
C50   C99   A    
O40   Zn4   S    
C23   C83   S    
C3    C18   A    
C9    H19   S    
C45   N14   S    
C32   C36   S    
H75   N7    S    
C53   C79   A    
C128  H11   S    
C6    C19   A    
C13   C35   T    
C73   H36   S    
C64   O41   A    
O28   Zn12  S    
C4    H14   S    
C85   C105  S    
C9    C22   A    
C5    H15   S    
C1    O1    A    
H46   N1    S    
C20   C87   S    
H79   N8    S    
C119  H2    S    
O35   Zn2   S    
O45   Zn7   S    
C58   O29   A    
C44   N13   S    
C18   C89   S    
C63   O47   A    
C24   C29   S    
C61   O43   A    
C96   C106  S    
O17   Zn5   S    
C69   H31   S    
H66   N3    S    
O36   Zn3   S    
C32   C124  A    
C11   H21   S    
C73   C104  A    
C37   C118  T    
C43   N12   S    
H77   N8    S    
O42   Zn4   S    
C40   C67   A    
C90   O24   A    
O44   Zn1   S    
O21   Zn11  S    
C45   C91   A    
C107  C108  S    
C38   C65   A    
C13   C28   S    
C76   H38   S    
C2    C27   S    
C127  H10   S    
C80   H42   S    
O8    Zn9   S    
C55   C81   A    
O14   Zn1   S    
C4    C19   A    
C16   C125  A    
H49   N10   S    
C46   C72   A    
C44   C92   A    
O29   Zn12  S    
C110  C127  A    
H51   N11   S    
C51   N5    S    
C51   C98   A    
C15   C23   A    
C49   C98   A    
C81   C108  A    
C50   N4    S    
O3    Zn10  S    
O48   Zn8   S    
O10   Zn5   S    
C57   C93   S    
C82   O11   A    
C59   O30   A    
C42   C68   A    
H47   N9    S    
C48   C75   A    
O32   Zn2   S    
C84   O16   A    
C68   H30   S    
C38   N1    S    
C1    C100  S    
C66   C101  A    
C8    C117  A    
C86   O15   A    
C54   C80   A    
C10   C21   A    
C54   N7    S    
H73   N6    S    
C84   O14   A    
O43   Zn4   S    
C70   C101  A    
C15   H25   S    
O25   Zn10  S    
C30   C34   S    
O31   Zn2   S    
O12   Zn5   S    
C96   O3    A    
C12   H22   S    
C4    C113  A    
C14   H24   S    
C47   C73   A    
C70   H32   S    
C75   H37   S    
C60   C97   S    
C15   C124  A    
C63   O34   A    
C55   N8    S    
C74   O48   A    
C87   O18   A    
H50   N10   S    
C1    O46   A    
C58   O33   A    
C41   O12   A    
C53   C97   A    
C38   C91   A    
C57   O35   A    
C24   C34   T    
C46   N15   S    
C72   C103  A    
O15   Zn7   S    
O13   Zn7   S    
C22   C84   S    
C7    C116  A    
C122  H5    S    
H72   N5    S    
O38   Zn3   S    
C28   C115  A    
H62   N16   S    
C18   C127  A    
O41   Zn4   S    
C46   C94   A    
C83   O10   A    
C56   C92   S    
C3    C112  A    
H55   N13   S    
C31   C119  A    
C107  O4    A    
C49   N3    S    
H53   N12   S    
C33   C125  A    
C8    C21   A    
O33   Zn2   S    
C49   C76   A    
H68   N3    S    
C67   H29   S    
C59   C91   S    
C96   O5    A    
H74   N6    S    
C57   O28   A    
O22   Zn8   S    
O19   Zn9   S    
C26   C109  A    
C31   C121  A    
C54   C95   A    
C89   O25   A    
C125  H8    S    
C63   C103  S    
H59   N14   S    
C29   C116  A    
C48   N2    S    
C27   C112  A    
C19   C88   S    
O39   Zn3   S    
H48   N9    S    
C16   H26   S    
C25   C82   S    
C9    C119  A    
O26   Zn9   S    
C31   C35   S    
C82   O9    A    
H64   N2    S    
C121  H4    S    
C6    H16   S    
C107  O8    A    
C50   C77   A    
C39   C92   A    
C111  C128  A    
C64   C95   S    
H70   N4    S    
C44   C70   A    
O4    Zn11  S    
C32   C122  A    
C74   C104  S    
C2    C36   T    
C16   C25   A    
C80   C104  A    
C115  H67   S    
C21   C86   S    
C76   C106  A    
C14   C123  A    
C71   H33   S    
C124  H7    S    
C40   N10   S    
C59   O32   A    
C42   C94   A    
O11   Zn6   S    
O1    Zn1   S    
C39   N9    S    
C77   C108  A    
C8    H18   S    
C17   C90   S    
C26   C118  S    
C65   C100  A    
C74   O7    A    
C111  H23   S    
C85   O6    A    
C52   O23   A    
H61   N15   S    
C17   C128  A    
C75   C105  A    
O37   Zn3   S    
C30   C117  A    
C77   H39   S    
C112  H34   S    
C71   C100  A    
O5    Zn8   S    
C78   H40   S    
C27   C110  A    
C78   C106  A    
O9    Zn1   S    
C88   O21   A    
O46   Zn6   S    
O23   Zn6   S    
H71   N5    S    
C58   C94   S    
C51   C78   A    
C61   O37   A    
C52   O44   A    
H69   N4    S    
C62   O42   A    
C66   H28   S    
C56   O27   A    
C85   O2    A    
C79   H41   S    
C87   O20   A    
C30   C120  A    
C86   O17   A    
C114  H56   S    
O6    Zn11  S    
H76   N7    S    
C42   N11   S    
O20   Zn10  S    
C43   C93   A    
C72   H35   S    
C41   C101  S    
C33   C37   S    
O16   Zn6   S    
O27   Zn12  S    
C81   H43   S    
C14   C25   A    
H58   N14   S    
C17   C126  A    
C116  H78   S    
C6    C115  A    
O2    Zn9   S    
C79   C105  A    
C10   C120  A    
C28   C113  A    
C62   C99   S    
H60   N15   S    
C109  C126  A    
O47   Zn5   S    
C12   C122  A    
H44   N1    S    
C11   C22   A    
C65   H27   S    
C7    C20   A    
C56   O31   A    
C55   C99   A    
O34   Zn7   S    
C33   C123  A    
C47   C95   A    
H52   N11   S    
H57   N13   S    
C41   O45   A    
C43   C69   A    
C109  H1    S    
H63   N16   S    
O24   Zn11  S    
C123  H6    S    
C60   O36   A    
C67   C102  A    
C10   H20   S    
C7    H17   S    
O30   Zn12  S    
