data_mof_unit_56058.cif
_audit_creation_date              2012-12-11T16:19:01-0500
_audit_creation_method            fapswitch 2.2
_symmetry_space_group_name_H-M    P1
_symmetry_Int_Tables_number       1
_space_group_crystal_system       triclinic
_cell_length_a                    6.948524
_cell_length_b                    31.255535
_cell_length_c                    35.059349
_cell_angle_alpha                 90.002478
_cell_angle_beta                  89.982989
_cell_angle_gamma                 89.987356
_cell_volume                      7614.18310571

loop_
_atom_site_label
_atom_site_type_symbol
_atom_type_description
_atom_site_fract_x
_atom_site_fract_y
_atom_site_fract_z
_atom_type_partial_charge
O1    O     O_R   0.417270 0.211480 0.210950 -0.541305
O2    O     O_R   0.582730 0.788520 0.789050 -0.534737
O3    O     O_R   0.582730 0.788520 0.710950 -0.541570
O4    O     O_R   0.417270 0.211480 0.289050 -0.535294
O5    O     O_R   0.917270 0.288520 0.289050 -0.541329
O6    O     O_R   0.082730 0.711480 0.710950 -0.535448
O7    O     O_R   0.082730 0.711480 0.789050 -0.541327
O8    O     O_R   0.917270 0.288520 0.210950 -0.535271
O9    O     O_R   0.746940 0.206370 0.288750 -0.543598
O10   O     O_R   0.253060 0.793630 0.711250 -0.537151
O11   O     O_R   0.253060 0.793630 0.788750 -0.544221
O12   O     O_R   0.746940 0.206370 0.211250 -0.536986
O13   O     O_R   0.246940 0.293630 0.211250 -0.543581
O14   O     O_R   0.753060 0.706370 0.788750 -0.536605
O15   O     O_R   0.753060 0.706370 0.711250 -0.543790
O16   O     O_R   0.246940 0.293630 0.288750 -0.536913
C1    C     C_R   0.578073 0.195931 0.301863 0.736646
C2    C     C_R   0.421876 0.803953 0.698021 0.736542
C3    C     C_R   0.421913 0.804109 0.801844 0.742036
C4    C     C_R   0.578179 0.196031 0.198028 0.737494
C5    C     C_R   0.078084 0.304068 0.198135 0.736732
C6    C     C_R   0.921866 0.696036 0.801972 0.739577
C7    C     C_R   0.921949 0.695932 0.698137 0.735935
C8    C     C_R   0.078101 0.303953 0.301977 0.737546
O17   O     O_3   0.583760 0.276950 0.250000 -0.370420
O18   O     O_3   0.416240 0.723050 0.750000 -0.370697
O19   O     O_3   0.083760 0.223050 0.250000 -0.370497
O20   O     O_3   0.916240 0.776950 0.750000 -0.370821
V1    V     V_3+5 0.858600 0.245000 0.250000 1.452634
V2    V     V_3+5 0.141400 0.755000 0.750000 1.453921
V3    V     V_3+5 0.358600 0.255000 0.250000 1.452757
V4    V     V_3+5 0.641400 0.745000 0.750000 1.454706
C9    C     C_R   0.020038 0.588166 0.539546 0.797062
C10   C     C_R   0.069801 0.410406 0.463382 0.788017
C11   C     C_R   0.980141 0.411771 0.039511 0.797140
C12   C     C_R   0.929660 0.589499 0.963315 0.787733
C13   C     C_R   0.520788 0.912034 0.960194 0.776636
C14   C     C_R   0.573692 0.089547 0.036721 0.787965
C15   C     C_R   0.480043 0.088165 0.460455 0.797077
C16   C     C_R   0.430238 0.910405 0.536607 0.788001
N1    N     N_R   0.982921 0.573516 0.575668 -0.551812
N2    N     N_R   0.049971 0.424625 0.426572 -0.551386
N3    N     N_R   0.017144 0.426440 0.075630 -0.551804
N4    N     N_R   0.949655 0.575276 0.926506 -0.551654
N5    N     N_R   0.485256 0.926827 0.924053 -0.551890
N6    N     N_R   0.552099 0.075288 0.073476 -0.551224
N7    N     N_R   0.517214 0.073513 0.424333 -0.551798
N8    N     N_R   0.449970 0.924622 0.573421 -0.551365
C17   C     C_R   0.980623 0.530681 0.583411 0.669802
C18   C     C_R   0.038880 0.467400 0.418734 0.652691
C19   C     C_R   0.019230 0.469280 0.083362 0.669818
C20   C     C_R   0.960891 0.532500 0.918673 0.652631
C21   C     C_R   0.485076 0.969675 0.916372 0.672742
C22   C     C_R   0.539438 0.032523 0.081243 0.652012
C23   C     C_R   0.519560 0.030677 0.416589 0.669837
C24   C     C_R   0.461015 0.967397 0.581261 0.652632
C25   C     C_R   0.009640 0.500626 0.554141 -0.070862
C26   C     C_R   0.041630 0.497676 0.448373 -0.071144
C27   C     C_R   0.990090 0.499319 0.054087 -0.070605
C28   C     C_R   0.958230 0.502231 0.948319 -0.071083
C29   C     C_R   0.514361 0.999608 0.945731 -0.071836
C30   C     C_R   0.541997 0.002293 0.051559 -0.071754
C31   C     C_R   0.490526 0.000623 0.445856 -0.070887
C32   C     C_R   0.458325 0.997674 0.551623 -0.071148
C33   C     C_R   0.027021 0.514628 0.516208 -0.040135
C34   C     C_R   0.040638 0.483788 0.486488 -0.039339
C35   C     C_R   0.972836 0.485300 0.016157 -0.040129
C36   C     C_R   0.959098 0.516129 0.986432 -0.038930
C37   C     C_R   0.529560 0.985495 0.983672 -0.038237
C38   C     C_R   0.543146 0.016251 0.013462 -0.039708
C39   C     C_R   0.473071 0.014627 0.483790 -0.040133
C40   C     C_R   0.459410 0.983786 0.513507 -0.039321
C41   C     C_R   0.032381 0.559273 0.508123 -0.151717
C42   C     C_R   0.054710 0.439289 0.494790 -0.159021
C43   C     C_R   0.967715 0.440652 0.008082 -0.151821
C44   C     C_R   0.944767 0.560627 0.994727 -0.159368
C45   C     C_R   0.532439 0.940823 0.991699 -0.182001
C46   C     C_R   0.559166 0.060741 0.005249 -0.160296
C47   C     C_R   0.467677 0.059271 0.491877 -0.151734
C48   C     C_R   0.445381 0.939288 0.505202 -0.159051
C49   C     C_R   0.023371 0.456944 0.562454 -0.160615
C50   C     C_R   0.046880 0.541511 0.440281 -0.169005
C51   C     C_R   0.976071 0.542999 0.062393 -0.160342
C52   C     C_R   0.953208 0.458391 0.940235 -0.169118
C53   C     C_R   0.530190 0.043275 0.937509 -0.160746
C54   C     C_R   0.544393 0.958431 0.059595 -0.170291
C55   C     C_R   0.476843 0.956942 0.437541 -0.160559
C56   C     C_R   0.453051 0.041510 0.559718 -0.169048
C57   C     C_R   0.053141 0.426228 0.533917 0.350741
C58   C     C_R   0.050075 0.572471 0.469201 0.356327
C59   C     C_R   0.946129 0.573696 0.033852 0.348526
C60   C     C_R   0.950137 0.427439 0.969162 0.356451
C61   C     C_R   0.559806 0.073877 0.966142 0.351022
C62   C     C_R   0.546705 0.927496 0.030646 0.338832
C63   C     C_R   0.447042 0.926228 0.466074 0.350701
C64   C     C_R   0.449916 0.072470 0.530799 0.356357
O21   O     O_2   0.046511 0.630416 0.534639 -0.411822
O22   O     O_2   0.105942 0.368644 0.469039 -0.407933
O23   O     O_2   0.953838 0.369515 0.034614 -0.411829
O24   O     O_2   0.893372 0.631257 0.968967 -0.405395
O25   O     O_2   0.545825 0.869723 0.965061 -0.391102
O26   O     O_2   0.610869 0.131283 0.031184 -0.408085
O27   O     O_2   0.453527 0.130416 0.465364 -0.411823
O28   O     O_2   0.394143 0.868645 0.530943 -0.407921
O29   O     O_2   0.950823 0.517166 0.619498 -0.493791
O30   O     O_2   0.025047 0.480674 0.382200 -0.498933
O31   O     O_2   0.048921 0.482816 0.119444 -0.493641
O32   O     O_2   0.974805 0.519219 0.882140 -0.499080
O33   O     O_2   0.457105 0.983319 0.880270 -0.492563
O34   O     O_2   0.524099 0.019222 0.117747 -0.499176
O35   O     O_2   0.549417 0.017159 0.380503 -0.493754
O36   O     O_2   0.474752 0.980671 0.617798 -0.498972
H1    H     H_    0.014958 0.446708 0.591881 0.223485
H2    H     H_    0.052966 0.551743 0.410830 0.223527
H3    H     H_    0.984357 0.553247 0.091818 0.223409
H4    H     H_    0.947216 0.448148 0.910786 0.223497
H5    H     H_    0.523443 0.053584 0.908086 0.223847
H6    H     H_    0.548331 0.948144 0.089043 0.224238
H7    H     H_    0.485318 0.946705 0.408114 0.223498
H8    H     H_    0.446903 0.051742 0.589169 0.223513
C65   C     C_R   0.207226 0.394426 0.369641 -0.012672
C66   C     C_R   0.107664 0.607568 0.633811 -0.023178
C67   C     C_R   0.792567 0.605503 0.869582 -0.012422
C68   C     C_R   0.892386 0.392401 0.133793 -0.023183
C69   C     C_R   0.708561 0.105536 0.130441 -0.013560
C70   C     C_R   0.609519 0.892345 0.866041 -0.032556
C71   C     C_R   0.292680 0.894428 0.630347 -0.012667
C72   C     C_R   0.392461 0.107571 0.366187 -0.023219
H9    H     H_    0.323818 0.416987 0.373535 0.185610
H10   H     H_    0.234333 0.587536 0.631668 0.192046
H11   H     H_    0.675952 0.582944 0.873466 0.185451
H12   H     H_    0.765682 0.412420 0.131651 0.192116
H13   H     H_    0.825409 0.083023 0.126571 0.185582
H14   H     H_    0.736807 0.912135 0.868147 0.199337
H15   H     H_    0.176068 0.916994 0.626451 0.185593
H16   H     H_    0.265815 0.087543 0.368327 0.192060
C73   C     C_R   0.216348 0.365226 0.339447 -0.134563
C74   C     C_R   0.095865 0.637611 0.663218 -0.163983
C75   C     C_R   0.783511 0.634733 0.839411 -0.134513
C76   C     C_R   0.904186 0.362372 0.163208 -0.163906
C77   C     C_R   0.717183 0.134777 0.160608 -0.135238
C78   C     C_R   0.597207 0.862168 0.836768 -0.164038
C79   C     C_R   0.283565 0.865230 0.660543 -0.134606
C80   C     C_R   0.404234 0.137613 0.336781 -0.163910
H17   H     H_    0.339743 0.365978 0.320577 0.148302
H18   H     H_    0.214162 0.640166 0.683202 0.145669
H19   H     H_    0.660137 0.634004 0.820549 0.147950
H20   H     H_    0.785846 0.359815 0.183196 0.145791
H21   H     H_    0.840533 0.134110 0.179478 0.148220
H22   H     H_    0.716095 0.859210 0.816951 0.146951
H23   H     H_    0.160157 0.865989 0.679410 0.148182
H24   H     H_    0.285938 0.140171 0.316796 0.145751
C81   C     C_R   0.067928 0.335511 0.333648 -0.121846
C82   C     C_R   0.932685 0.663711 0.667055 -0.119059
C83   C     C_R   0.931964 0.664449 0.833624 -0.122006
C84   C     C_R   0.067404 0.336287 0.167049 -0.119283
C85   C     C_R   0.568333 0.164420 0.166386 -0.121942
C86   C     C_R   0.432824 0.836484 0.832821 -0.129570
C87   C     C_R   0.432011 0.835508 0.666347 -0.121552
C88   C     C_R   0.567383 0.163707 0.332945 -0.119243
C89   C     C_R   0.909579 0.335840 0.358608 -0.265073
C90   C     C_R   0.781088 0.658999 0.640829 -0.259980
C91   C     C_R   0.090307 0.664078 0.858568 -0.258138
C92   C     C_R   0.219049 0.341006 0.140816 -0.259715
C93   C     C_R   0.410037 0.163968 0.141427 -0.264616
C94   C     C_R   0.280212 0.841890 0.858745 -0.249923
C95   C     C_R   0.590372 0.835828 0.641390 -0.265077
C96   C     C_R   0.718976 0.158988 0.359174 -0.259941
H25   H     H_    0.794439 0.312967 0.354449 0.175412
H26   H     H_    0.654342 0.678893 0.643720 0.176478
H27   H     H_    0.205509 0.686939 0.854412 0.177299
H28   H     H_    0.345831 0.321127 0.143709 0.176552
H29   H     H_    0.294539 0.186768 0.145573 0.175598
H30   H     H_    0.152018 0.822528 0.855616 0.179037
H31   H     H_    0.705534 0.812950 0.645550 0.175388
H32   H     H_    0.845700 0.178877 0.356285 0.176496
C97   C     C_R   0.899299 0.364833 0.389257 0.406658
C98   C     C_R   0.793183 0.629453 0.610549 0.413046
C99   C     C_R   0.100511 0.635057 0.889196 0.404822
C100  C     C_R   0.206953 0.370538 0.110525 0.413169
C101  C     C_R   0.400359 0.134948 0.110784 0.406514
C102  C     C_R   0.292921 0.871568 0.888940 0.490146
C103  C     C_R   0.600649 0.864818 0.610740 0.406594
C104  C     C_R   0.706903 0.129444 0.389454 0.413088
C105  C     C_R   0.051525 0.394307 0.395222 0.241911
C106  C     C_R   0.960079 0.603710 0.606715 0.247731
C107  C     C_R   0.948222 0.605594 0.895156 0.241861
C108  C     C_R   0.040006 0.396262 0.106687 0.247720
C109  C     C_R   0.553018 0.105565 0.104851 0.242576
C110  C     C_R   0.461433 0.896715 0.892972 0.233980
C111  C     C_R   0.448403 0.894302 0.604770 0.241909
C112  C     C_R   0.540036 0.103706 0.393286 0.247743
S1    S     S_3+6 0.086184 0.372607 0.549881 0.184679
O37   O     O_2   0.277814 0.356300 0.536271 -0.213657
O38   O     O_2   0.082484 0.370028 0.592704 -0.271861
O39   O     O_3   0.910551 0.341134 0.532631 -0.386183
H33   H     H_    0.789255 0.354969 0.540915 0.381925
S2    S     S_3+6 0.076351 0.626551 0.453980 0.180654
O40   O     O_2   0.253938 0.645428 0.471754 -0.206599
O41   O     O_2   0.096386 0.629325 0.411344 -0.274486
O42   O     O_3   0.883356 0.655415 0.467169 -0.400191
H34   H     H_    0.772123 0.640505 0.455530 0.377228
S3    S     S_3+6 0.912514 0.627305 0.049812 0.189190
O43   O     O_2   0.720861 0.643533 0.036164 -0.210698
O44   O     O_2   0.915840 0.629886 0.092636 -0.271277
O45   O     O_3   0.088026 0.658850 0.032600 -0.381710
H35   H     H_    0.209365 0.645086 0.040938 0.382571
S4    S     S_3+6 0.924168 0.373347 0.953953 0.180410
O46   O     O_2   0.746636 0.354432 0.971735 -0.206653
O47   O     O_2   0.904242 0.370553 0.911317 -0.274666
O48   O     O_3   0.117277 0.344536 0.967141 -0.400372
H36   H     H_    0.228462 0.359468 0.955496 0.377123
S5    S     S_3+6 0.595538 0.127467 0.950324 0.184297
O49   O     O_2   0.787057 0.143389 0.964312 -0.213744
O50   O     O_2   0.594060 0.130134 0.907500 -0.271874
O51   O     O_3   0.420181 0.159235 0.967307 -0.387291
H37   H     H_    0.298822 0.145687 0.958717 0.381975
S6    S     S_3+6 0.565908 0.873270 0.045906 0.172501
O52   O     O_2   0.743626 0.853502 0.028959 -0.229831
O53   O     O_2   0.580565 0.870349 0.088620 -0.273952
O54   O     O_3   0.371856 0.845349 0.031803 -0.380576
H38   H     H_    0.261465 0.859636 0.044366 0.366124
S7    S     S_3+6 0.414079 0.872608 0.450103 0.184761
O55   O     O_2   0.222433 0.856312 0.463696 -0.213672
O56   O     O_2   0.417876 0.870029 0.407280 -0.271771
O57   O     O_3   0.589701 0.841125 0.467366 -0.386133
H39   H     H_    0.711004 0.854955 0.459095 0.381948
S8    S     S_3+6 0.423634 0.126553 0.546023 0.180568
O58   O     O_2   0.246058 0.145448 0.528246 -0.206597
O59   O     O_2   0.403576 0.129331 0.588659 -0.274579
O60   O     O_3   0.616637 0.155397 0.532840 -0.400223
H40   H     H_    0.727865 0.140476 0.544478 0.377189
S9    S     S_3+6 0.692615 0.363549 0.418821 0.050625
O61   O     O_2   0.632513 0.408252 0.429198 -0.320533
O62   O     O_2   0.529688 0.341620 0.398602 -0.338144
O63   O     O_3   0.740078 0.336145 0.458901 -0.409141
H41   H     H_    0.782310 0.307529 0.450092 0.380208
S10   S     S_3+6 0.594854 0.624280 0.579112 0.040225
O64   O     O_2   0.537576 0.578021 0.576415 -0.321347
O65   O     O_2   0.426677 0.649971 0.593280 -0.331464
O66   O     O_3   0.652386 0.641868 0.535346 -0.431940
H42   H     H_    0.677576 0.672847 0.538608 0.394144
S11   S     S_3+6 0.307227 0.636260 0.918729 0.055930
O67   O     O_2   0.367497 0.591521 0.928932 -0.321730
O68   O     O_2   0.470045 0.658309 0.898562 -0.334376
O69   O     O_3   0.259745 0.663468 0.958922 -0.405375
H43   H     H_    0.217346 0.692113 0.950227 0.390903
S12   S     S_3+6 0.405359 0.375725 0.079087 0.040207
O70   O     O_2   0.462634 0.421986 0.076409 -0.321350
O71   O     O_2   0.573504 0.350029 0.093241 -0.331462
O72   O     O_3   0.347959 0.358157 0.035313 -0.432053
H44   H     H_    0.322874 0.327171 0.038557 0.394254
S13   S     S_3+6 0.193932 0.136016 0.081165 0.050112
O73   O     O_2   0.133361 0.091209 0.071291 -0.321393
O74   O     O_2   0.031088 0.158353 0.101092 -0.337199
O75   O     O_3   0.242151 0.162765 0.040765 -0.410724
H45   H     H_    0.284348 0.191506 0.049235 0.381051
S14   S     S_3+6 0.092254 0.878365 0.919548 0.032075
O76   O     O_2   0.029985 0.924416 0.918411 -0.364292
O77   O     O_2   0.928817 0.850240 0.907022 -0.316255
O78   O     O_3   0.149445 0.865278 0.964563 -0.435633
H46   H     H_    0.048914 0.878861 0.980526 0.390368
S15   S     S_3+6 0.807356 0.863518 0.581183 0.050631
O79   O     O_2   0.867397 0.908215 0.570795 -0.320543
O80   O     O_2   0.970303 0.841596 0.601413 -0.338154
O81   O     O_3   0.759965 0.836096 0.541110 -0.409099
H47   H     H_    0.717756 0.807486 0.549927 0.380178
S16   S     S_3+6 0.905228 0.124264 0.420893 0.040210
O82   O     O_2   0.962599 0.078004 0.423577 -0.321346
O83   O     O_2   0.073359 0.149959 0.406735 -0.331465
O84   O     O_3   0.847644 0.141840 0.464663 -0.431971
H48   H     H_    0.822420 0.172820 0.461411 0.394169

loop_
_geom_bond_atom_site_label_1
_geom_bond_atom_site_label_2
_ccdc_geom_bond_type
O17   V3    S    
S15   O81   S    
C84   C92   A    
S3    O43   D    
C56   C64   A    
O18   V4    S    
C13   N5    A    
O12   V1    S    
O19   V1    S    
O42   H34   S    
C37   C45   A    
S7    O55   D    
C10   N2    A    
C62   S6    S    
C76   H20   S    
S8    O59   D    
S7    O57   S    
C77   H21   S    
S15   O79   D    
S5    O49   D    
C8    C81   S    
O16   V3    S    
S3    O44   D    
S10   O66   S    
O11   C3    A    
C52   H4    S    
C69   C109  A    
O8    V1    S    
C64   S8    S    
C42   C57   A    
C73   H17   S    
C27   C51   A    
C41   C58   A    
C26   C50   A    
C97   S9    S    
S13   O73   D    
C66   C106  A    
C38   C46   A    
C46   C61   A    
C29   C37   A    
S11   O67   D    
C34   C42   A    
C67   C75   A    
C45   C62   A    
O1    V3    S    
C40   C48   A    
C97   C105  A    
O63   H41   S    
C22   O34   S    
O3    C2    A    
C96   H32   S    
O66   H42   S    
C65   C73   A    
N7    C112  S    
C70   C110  A    
C1    C88   S    
O13   V3    S    
N8    C111  S    
C2    C87   S    
C54   C62   A    
C27   C35   A    
O69   H43   S    
C101  C109  A    
C26   C34   A    
C95   C103  A    
O11   V2    S    
C69   C77   A    
S4    O46   D    
S11   O68   D    
C94   C102  A    
C104  C112  A    
C52   C60   A    
C16   C48   A    
S2    O40   D    
C56   H8    S    
C11   N3    A    
S9    O61   D    
C92   C100  A    
S12   O72   S    
O9    V1    S    
C31   C55   A    
S11   O69   S    
O15   C7    A    
O84   H48   S    
N7    C23   A    
N5    C21   A    
C49   C57   A    
O16   C8    A    
O7    V2    S    
C79   H23   S    
C30   C38   A    
O12   C4    A    
O3    V4    S    
C21   C29   A    
C78   C86   A    
C19   O31   S    
C11   O23   S    
N1    C17   A    
S8    O58   D    
C68   H12   S    
S12   O71   D    
C19   C27   A    
O5    V1    S    
C6    C83   S    
S5    O50   D    
C76   C84   A    
O17   V1    S    
C102  S14   S    
S3    O45   S    
S10   O65   D    
C94   H30   S    
C71   C111  A    
O57   H39   S    
C61   S5    S    
C35   C36   A    
C18   C26   A    
C51   H3    S    
O20   V4    S    
O51   H37   S    
C66   C74   A    
O72   H44   S    
C33   C41   A    
C85   C93   A    
S13   O74   D    
O45   H35   S    
C17   O29   S    
C93   C101  A    
C14   C46   A    
C96   C104  A    
C13   C45   A    
C70   C78   A    
C63   S7    S    
C39   C47   A    
C101  S13   S    
C23   C31   A    
C72   C112  A    
S1    O38   D    
C44   C59   A    
C30   C54   A    
S14   O77   D    
C55   H7    S    
O54   H38   S    
C60   S4    S    
C55   C63   A    
S9    O62   D    
O10   V2    S    
N4    C20   A    
S6    O53   D    
O48   H36   S    
C90   H26   S    
S16   O84   S    
C75   C83   A    
N2    C18   A    
S1    O39   S    
C75   H19   S    
O75   H45   S    
N6    C22   A    
S2    O42   S    
C24   C32   A    
O8    C5    A    
C35   C43   A    
C73   C81   A    
C12   O24   S    
C71   C79   A    
O9    C1    A    
C48   C63   A    
C53   H5    S    
C72   C80   A    
C50   H2    S    
C100  C108  A    
C29   C53   A    
C43   C60   A    
C10   C42   A    
C58   S2    S    
C57   S1    S    
C77   C85   A    
N2    C105  S    
C9    C41   A    
O6    V2    S    
C31   C39   A    
C33   C34   A    
C9    N1    A    
C4    C85   S    
C54   H6    S    
O19   V3    S    
C91   C99   A    
O14   C6    A    
C104  S16   S    
C25   C49   A    
C12   N4    A    
S14   O78   S    
C80   C88   A    
O4    C1    A    
N6    C109  S    
C89   C97   A    
C49   H1    S    
C100  S12   S    
C98   S10   S    
C91   H27   S    
S12   O70   D    
C86   C94   A    
S6    O54   S    
C15   N7    A    
C23   O35   S    
S5    O51   S    
C69   H13   S    
C16   N8    A    
S10   O64   D    
C65   H9    S    
O1    C4    A    
C32   C56   A    
C68   C108  A    
C67   H11   S    
O2    C3    A    
S16   O83   D    
C3    C86   S    
C68   C76   A    
C11   C43   A    
C71   H15   S    
O39   H33   S    
O15   V4    S    
C82   C90   A    
S13   O75   S    
S2    O41   D    
N5    C110  S    
S7    O56   D    
C15   O27   S    
C103  C111  A    
N8    C24   A    
C36   C44   A    
O7    C6    A    
C51   C59   A    
C50   C58   A    
C74   H18   S    
C28   C36   A    
C83   C91   A    
C87   C95   A    
C78   H22   S    
C72   H16   S    
C16   O28   S    
C89   H25   S    
C47   C64   A    
C14   O26   S    
S4    O47   D    
S15   O80   D    
O13   C5    A    
C14   N6    A    
C13   O25   S    
C28   C52   A    
N3    C19   A    
S6    O52   D    
O78   H46   S    
O5    C8    A    
N3    C108  S    
O10   C2    A    
S4    O48   S    
C103  S15   S    
O6    C7    A    
O20   V2    S    
C10   O22   S    
C5    C84   S    
C66   H10   S    
N1    C106  S    
S14   O76   D    
C95   H31   S    
C9    O21   S    
C79   C87   A    
C32   C40   A    
C67   C107  A    
C37   C38   A    
S9    O63   S    
C88   C96   A    
C90   C98   A    
O4    V3    S    
C92   H28   S    
O81   H47   S    
N4    C107  S    
C65   C105  A    
C98   C106  A    
C17   C25   A    
C12   C44   A    
C53   C61   A    
C99   C107  A    
S16   O82   D    
C70   H14   S    
C20   C28   A    
S1    O37   D    
C7    C82   S    
C81   C89   A    
O60   H40   S    
C18   O30   S    
C59   S3    S    
C22   C30   A    
C20   O32   S    
C21   O33   S    
C102  C110  A    
C39   C40   A    
C74   C82   A    
C93   H29   S    
O14   V4    S    
C24   O36   S    
S8    O60   S    
C99   S11   S    
C80   H24   S    
C15   C47   A    
O2    V4    S    
C25   C33   A    
O18   V2    S    
