data_mof_unit_45841.cif
_audit_creation_date              2012-10-26T19:23:42-0400
_audit_creation_method            fapswitch 2.2
_symmetry_space_group_name_H-M    P1
_symmetry_Int_Tables_number       1
_space_group_crystal_system       triclinic
_cell_length_a                    27.704773
_cell_length_b                    12.977217
_cell_length_c                    11.76119
_cell_angle_alpha                 98.94727
_cell_angle_beta                  93.367461
_cell_angle_gamma                 91.709321
_cell_volume                      4166.58901188

loop_
_atom_site_label
_atom_site_type_symbol
_atom_type_description
_atom_site_fract_x
_atom_site_fract_y
_atom_site_fract_z
_atom_type_partial_charge
C1    C     C_R   0.501172 0.299853 0.479302 0.571164
C2    C     C_R   0.870693 0.482722 0.396270 0.031947
C3    C     C_R   0.010799 0.662673 0.804698 -0.074677
C4    C     C_2   0.429399 0.824480 0.403371 0.570769
C5    C     C_2   0.556994 0.197735 0.646850 0.645298
C6    C     C_R   0.354818 0.489271 0.501914 0.000386
C7    C     C_R   0.644853 0.496759 0.496472 0.027765
C8    C     C_R   0.971891 0.457964 0.393822 0.009606
C9    C     C_R   0.027722 0.463794 0.605109 0.009061
C10   C     C_R   0.977402 0.482764 0.607004 0.001798
C11   C     C_R   0.022363 0.440499 0.392212 0.001939
C12   C     C_R   0.949421 0.473109 0.500427 0.020659
C13   C     C_R   0.050257 0.450666 0.498796 0.019995
C14   C     C_R   0.943556 0.469074 0.292890 -0.140654
C15   C     C_R   0.499709 0.700107 0.520059 0.541824
C16   C     C_R   0.056014 0.450661 0.705413 -0.141184
C17   C     C_R   0.893849 0.478992 0.293590 -0.113206
C18   C     C_R   0.105875 0.442572 0.704807 -0.115462
C19   C     C_R   0.407653 0.499138 0.500717 0.546358
C20   C     C_R   0.592207 0.498459 0.499030 0.576198
C21   C     C_R   0.046383 0.409519 0.288571 -0.033284
C22   C     C_R   0.953865 0.516058 0.710843 -0.032850
C23   C     C_R   0.505618 0.812227 0.527094 -0.055459
C24   C     C_R   0.502981 0.186670 0.466235 -0.034414
C25   C     C_R   0.472474 0.022340 0.356647 0.066360
C26   C     C_R   0.101293 0.445019 0.499243 -0.031928
C27   C     C_R   0.556940 0.965934 0.596603 0.058306
C28   C     C_R   0.477235 0.129867 0.370337 -0.161313
C29   C     C_R   0.544889 0.861124 0.595760 -0.165361
C30   C     C_R   0.530067 0.135401 0.544643 0.051518
C31   C     C_R   0.478095 0.866597 0.453037 0.080973
C32   C     C_R   0.527459 0.024657 0.529145 -0.042629
C33   C     C_R   0.492608 0.970170 0.444808 -0.012723
C34   C     C_R   0.460398 0.386529 0.027386 -0.068428
C35   C     C_R   0.550059 0.592222 0.970658 -0.057368
C36   C     C_R   0.463292 0.401992 0.148005 0.026461
C37   C     C_R   0.898506 0.482404 0.500286 -0.030053
C38   C     C_R   0.543479 0.584335 0.850727 0.034255
C39   C     C_R   0.519139 0.545557 0.155341 0.196163
C40   C     C_R   0.480411 0.455202 0.844659 0.209239
C41   C     C_R   0.519244 0.532023 0.031956 -0.047171
C42   C     C_R   0.486419 0.456260 0.966848 -0.043115
C43   C     C_R   0.175240 0.447299 0.399553 0.433357
C44   C     C_R   0.824651 0.493980 0.601609 0.428421
C45   C     C_R   0.179722 0.441030 0.601436 0.420281
C46   C     C_R   0.820357 0.490966 0.398055 0.418461
C47   C     C_R   0.278173 0.538320 0.578914 -0.090929
C48   C     C_R   0.124520 0.439990 0.395854 0.017603
C49   C     C_R   0.718123 0.415302 0.432923 -0.081415
C50   C     C_R   0.328421 0.554017 0.582009 -0.025961
C51   C     C_R   0.667648 0.415360 0.428458 -0.034256
C52   C     C_R   0.331026 0.405896 0.427637 -0.154586
C53   C     C_R   0.672630 0.579004 0.562518 -0.185238
C54   C     C_R   0.281292 0.384741 0.431592 0.098297
C55   C     C_R   0.723177 0.582336 0.561804 0.041678
C56   C     C_R   0.254146 0.455102 0.504352 0.199472
C57   C     C_R   0.746198 0.498017 0.498233 0.204108
C58   C     C_2   0.449856 0.968443 0.244429 0.594532
C59   C     C_R   0.875378 0.493104 0.604309 0.020004
C60   C     C_2   0.604441 0.004898 0.654623 0.605341
C61   C     C_2   0.439005 0.395448 0.778699 0.627987
C62   C     C_2   0.544137 0.638447 0.224439 0.632064
C63   C     C_R   0.434874 0.288368 0.971931 0.016297
C64   C     C_R   0.461385 0.199397 0.938508 -0.031758
C65   C     C_R   0.437458 0.104965 0.890147 -0.067228
C66   C     C_R   0.386930 0.098441 0.876970 -0.103023
C67   C     C_R   0.360273 0.186059 0.913156 -0.075166
C68   C     C_R   0.384100 0.280636 0.961575 -0.051642
C69   C     C_R   0.593116 0.655660 0.023617 0.015840
C70   C     C_R   0.096904 0.420558 0.291000 -0.108789
C71   C     C_R   0.634894 0.606496 0.057233 -0.064472
C72   C     C_R   0.676064 0.666366 0.104922 -0.076819
C73   C     C_R   0.675918 0.775313 0.117892 -0.088095
C74   C     C_R   0.634742 0.824588 0.082367 -0.087466
C75   C     C_R   0.593549 0.765017 0.034351 -0.056560
C76   C     C_2   0.259242 0.286701 0.363503 0.629512
C77   C     C_2   0.750959 0.676652 0.623070 0.638105
C78   C     C_R   0.639723 0.328552 0.354342 0.025597
C79   C     C_R   0.616884 0.343935 0.248771 -0.048846
C80   C     C_R   0.589229 0.262757 0.180674 -0.096125
C81   C     C_R   0.903265 0.510833 0.708786 -0.103270
C82   C     C_R   0.585012 0.165219 0.216387 -0.105643
C83   C     C_R   0.608730 0.148597 0.319848 -0.104371
C84   C     C_R   0.636123 0.229917 0.388581 -0.070996
C85   C     C_R   0.351920 0.638232 0.669547 0.048653
C86   C     C_R   0.381700 0.716208 0.636430 -0.061176
C87   C     C_R   0.404525 0.794146 0.719344 -0.095284
C88   C     C_R   0.397691 0.794828 0.836202 -0.104232
C89   C     C_R   0.367564 0.718374 0.870075 -0.093221
C90   C     C_R   0.344473 0.640765 0.787181 -0.049908
C91   C     C_R   0.021980 0.344509 0.184345 0.020287
C92   C     C_R   0.129159 0.443822 0.602892 0.028345
C93   C     C_R   0.991547 0.258542 0.196360 -0.078586
C94   C     C_R   0.968867 0.196234 0.099194 -0.104422
C95   C     C_R   0.976750 0.218175 0.989123 -0.094027
C96   C     C_R   0.007443 0.302254 0.976029 -0.110163
C97   C     C_R   0.030088 0.365246 0.072951 -0.112520
C98   C     C_R   0.979353 0.578013 0.815529 0.022196
C99   C     C_R   0.971151 0.555869 0.926323 -0.111740
C100  C     C_R   0.994668 0.616257 0.023866 -0.109502
C101  C     C_R   0.026383 0.699006 0.011945 -0.094428
C102  C     C_R   0.034390 0.722293 0.902459 -0.104362
Cu1   Cu    Cu3+1 0.503580 0.507730 0.615930 1.023914
Cu2   Cu    Cu3+1 0.496420 0.492270 0.384070 1.022029
H1    H     H_    0.352104 0.353313 0.371121 0.152078
H2    H     H_    0.257322 0.591641 0.635052 0.139030
H3    H     H_    0.873720 0.484581 0.213114 0.167195
H4    H     H_    0.126073 0.435955 0.784888 0.167293
H5    H     H_    0.959232 0.473237 0.212170 0.124060
H6    H     H_    0.040160 0.444291 0.785454 0.123379
H7    H     H_    0.400006 0.970928 0.112698 0.333015
H8    H     H_    0.667712 0.083419 0.645861 0.353227
H9    H     H_    0.413011 0.260779 0.682531 0.335179
H10   H     H_    0.603004 0.701468 0.322456 0.331352
H11   H     H_    0.500442 0.203262 0.950653 0.127939
H12   H     H_    0.654425 0.643111 0.610356 0.109622
H13   H     H_    0.458064 0.036817 0.863384 0.123861
H14   H     H_    0.368416 0.025353 0.839532 0.120016
H15   H     H_    0.321143 0.180602 0.903988 0.142234
H16   H     H_    0.363159 0.347907 0.990072 0.145923
H17   H     H_    0.635364 0.522147 0.047245 0.112802
H18   H     H_    0.708048 0.628320 0.131915 0.153712
H19   H     H_    0.707775 0.821536 0.155040 0.134827
H20   H     H_    0.634765 0.908914 0.091908 0.129433
H21   H     H_    0.561860 0.803840 0.006779 0.142889
H22   H     H_    0.206298 0.173990 0.345573 0.342476
H23   H     H_    0.567909 0.815367 0.644888 0.145844
H24   H     H_    0.711437 0.690235 0.764061 0.302715
H25   H     H_    0.619996 0.419085 0.220110 0.144417
H26   H     H_    0.571065 0.275574 0.100339 0.099413
H27   H     H_    0.563489 0.102476 0.163818 0.123794
H28   H     H_    0.605595 0.072911 0.347164 0.149245
H29   H     H_    0.654199 0.216482 0.468760 0.178657
H30   H     H_    0.387122 0.715947 0.546407 0.133177
H31   H     H_    0.427540 0.853894 0.693077 0.122504
H32   H     H_    0.415580 0.854742 0.900454 0.118840
H33   H     H_    0.362172 0.719118 0.960601 0.143094
H34   H     H_    0.459902 0.170161 0.305733 0.165572
H35   H     H_    0.321488 0.581597 0.814799 0.156413
H36   H     H_    0.985409 0.239735 0.281027 0.122025
H37   H     H_    0.945311 0.130656 0.109253 0.122122
H38   H     H_    0.959231 0.169760 0.913905 0.124557
H39   H     H_    0.013589 0.318412 0.890577 0.110417
H40   H     H_    0.053499 0.430552 0.061153 0.114170
H41   H     H_    0.946955 0.491495 0.937101 0.114299
H42   H     H_    0.988440 0.599034 0.108878 0.110915
H43   H     H_    0.044601 0.745356 0.087626 0.121161
H44   H     H_    0.058739 0.786856 0.893331 0.118689
H45   H     H_    0.566843 0.629380 0.804501 0.135124
H46   H     H_    0.017021 0.682496 0.720502 0.122356
H47   H     H_    0.357991 0.849721 0.386992 0.346527
H48   H     H_    0.567983 0.226826 0.819907 0.329579
H49   H     H_    0.443892 0.349001 0.193453 0.141370
H50   H     H_    0.114986 0.402634 0.211440 0.165280
H51   H     H_    0.885618 0.531806 0.788539 0.168986
H52   H     H_    0.735898 0.351082 0.384145 0.142961
N1    N     N_R   0.202006 0.446167 0.501288 -0.369559
N2    N     N_R   0.798163 0.494499 0.499545 -0.379212
N3    N     N_R   0.508960 0.519350 0.790140 -0.265390
N4    N     N_R   0.491040 0.480650 0.209860 -0.261829
O1    O     O_R   0.502540 0.354460 0.582000 -0.439340
O2    O     O_2   0.802015 0.494406 0.700202 -0.491765
O3    O     O_2   0.793801 0.495844 0.299193 -0.505560
O4    O     O_2   0.206415 0.433816 0.699447 -0.497267
O5    O     O_2   0.465847 0.886973 0.197610 -0.468232
O6    O     O_R   0.411658 0.013741 0.189525 -0.689289
O7    O     O_2   0.616480 0.983503 0.749689 -0.503677
O8    O     O_R   0.636337 0.061978 0.598143 -0.710297
O9    O     O_2   0.398981 0.432546 0.781197 -0.537987
O10   O     O_R   0.444443 0.293987 0.722059 -0.670016
O11   O     O_2   0.525752 0.723154 0.227772 -0.461109
O12   O     O_R   0.497460 0.645540 0.418000 -0.430213
O13   O     O_R   0.589676 0.631621 0.279593 -0.710063
O14   O     O_2   0.278095 0.244830 0.277605 -0.504830
O15   O     O_R   0.217652 0.240377 0.398961 -0.673904
O16   O     O_2   0.785793 0.710755 0.579644 -0.445059
O17   O     O_R   0.737880 0.728581 0.729509 -0.637513
O18   O     O_2   0.424355 0.739368 0.341861 -0.452711
O19   O     O_R   0.389140 0.885225 0.425525 -0.705385
O20   O     O_2   0.587318 0.264760 0.634163 -0.507469
O21   O     O_R   0.547448 0.179601 0.757510 -0.686062
O22   O     O_R   0.496500 0.341410 0.386200 -0.537815
O23   O     O_R   0.503500 0.658590 0.613800 -0.528760
O24   O     O_R   0.433290 0.506540 0.597890 -0.469364
O25   O     O_R   0.566710 0.493460 0.402110 -0.474788
O26   O     O_R   0.427240 0.493490 0.402090 -0.494443
O27   O     O_R   0.572760 0.506510 0.597910 -0.500496
O28   O     O_2   0.197532 0.456030 0.302317 -0.489279

loop_
_geom_bond_atom_site_label_1
_geom_bond_atom_site_label_2
_ccdc_geom_bond_type
C14   H5    S    
Cu2   O22   S    
C57   N2    S    
C93   C94   A    
C22   C98   S    
C39   N4    A    
C27   C29   A    
C44   N2    A    
C73   C74   A    
C49   H52   S    
C74   H20   S    
C95   C96   A    
C34   C42   A    
C87   C88   A    
C59   C81   A    
C90   H35   S    
C16   H6    S    
C97   H40   S    
C2    C37   A    
C85   C86   A    
C10   C22   A    
C25   C28   A    
Cu2   O25   S    
C101  C102  A    
Cu1   O23   S    
C23   C29   A    
C45   O4    S    
C6    C19   S    
C38   N3    A    
C27   C60   S    
C17   H3    S    
C19   O26   A    
C21   C91   S    
C55   C77   S    
C44   C59   A    
C26   C92   A    
H8    O8    S    
C6    C52   A    
C49   C57   A    
C41   C42   A    
C12   C37   A    
C69   C71   A    
C45   C92   A    
C9    C13   A    
C100  C101  A    
C40   N3    A    
C50   C85   S    
C102  H44   S    
C20   O25   A    
C86   H30   S    
H10   O13   S    
C99   C100  A    
C100  H42   S    
C73   H19   S    
C15   O23   A    
C31   C33   A    
C43   C48   A    
C38   H45   S    
C53   H12   S    
C26   C48   A    
Cu2   O12   S    
C15   C23   S    
C40   C42   A    
C66   C67   A    
C99   H41   S    
C1    O1    A    
C64   H11   S    
C2    C17   A    
C14   C17   A    
C44   O2    S    
Cu2   N4    S    
C35   C41   A    
C5    O21   S    
C52   C54   A    
C36   H49   S    
C47   C50   A    
C24   C30   A    
C53   C55   A    
C82   H27   S    
C54   C56   A    
C84   H29   S    
Cu1   O1    S    
C60   O7    D    
C80   H26   S    
C74   C75   A    
C67   C68   A    
C22   C81   A    
C87   H31   S    
C35   C38   A    
C45   N1    A    
C79   C80   A    
C88   H32   S    
C80   C82   A    
C48   C70   A    
C78   C79   A    
C49   C51   A    
C62   O13   S    
C11   C21   A    
C2    C46   A    
C40   C61   S    
Cu1   O24   S    
C58   O5    D    
C23   C31   A    
C5    O20   D    
C56   N1    S    
C62   O11   D    
C78   C84   A    
C91   C93   A    
C77   O17   S    
H47   O19   S    
C83   C84   A    
C8    C12   A    
C47   H2    S    
C96   C97   A    
Cu1   O27   S    
H7    O6    S    
C60   O8    S    
C91   C97   A    
C35   C69   S    
C37   C59   A    
C10   C12   A    
C1    C24   S    
C54   C76   S    
C3    C102  A    
C52   H1    S    
C98   C99   A    
C77   O16   D    
C89   H33   S    
C82   C83   A    
C55   C57   A    
C13   C26   A    
C61   O9    D    
C25   C58   S    
C7    C53   A    
C4    O19   S    
C28   H34   S    
C86   C87   A    
C5    C30   S    
C9    C10   A    
C39   C62   S    
C63   C68   A    
C101  H43   S    
C3    H46   S    
C8    C14   A    
C6    C50   A    
C72   H18   S    
C27   C32   A    
C70   H50   S    
C94   H37   S    
C9    C16   A    
C76   O15   S    
C24   C28   A    
C4    O18   D    
C72   C73   A    
C43   N1    A    
C19   O24   A    
C85   C90   A    
H9    O10   S    
C61   O10   S    
Cu2   O26   S    
C81   H51   S    
C21   C70   A    
C46   O3    S    
C18   C92   A    
C32   C33   A    
C79   H25   S    
C29   H23   S    
H48   O21   S    
C51   C78   S    
C7    C51   A    
C83   H28   S    
C93   H36   S    
C68   H16   S    
C20   O27   A    
C30   C32   A    
C11   C13   A    
C3    C98   A    
Cu1   N3    S    
C43   O28   S    
C8    C11   A    
C64   C65   A    
C76   O14   D    
C34   C63   S    
C15   O12   A    
C69   C75   A    
C34   C36   A    
C65   C66   A    
C94   C95   A    
C58   O6    S    
C18   H4    S    
C1    O22   A    
C4    C31   S    
C36   N4    A    
C63   C64   A    
C71   H17   S    
C71   C72   A    
C88   C89   A    
C39   C41   A    
C95   H38   S    
C16   C18   A    
C7    C20   S    
C66   H14   S    
Cu1   Cu2   S    
C65   H13   S    
H24   O17   S    
C75   H21   S    
C89   C90   A    
C67   H15   S    
H22   O15   S    
C25   C33   A    
C47   C56   A    
C96   H39   S    
C46   N2    A    
