data_mof_unit_23466.cif
_audit_creation_date              2012-12-10T18:29:44-0500
_audit_creation_method            fapswitch 2.2
_symmetry_space_group_name_H-M    P1
_symmetry_Int_Tables_number       1
_space_group_crystal_system       triclinic
_cell_length_a                    11.519248
_cell_length_b                    14.911365
_cell_length_c                    15.525961
_cell_angle_alpha                 81.151898
_cell_angle_beta                  89.950308
_cell_angle_gamma                 105.595329
_cell_volume                      2535.61013418

loop_
_atom_site_label
_atom_site_type_symbol
_atom_type_description
_atom_site_fract_x
_atom_site_fract_y
_atom_site_fract_z
_atom_type_partial_charge
C1    C     C_R   0.475155 0.440114 0.662331 0.930148
C2    C     C_R   0.595088 0.675798 0.972734 -0.141024
C3    C     C_R   0.688654 0.841528 0.636201 0.443727
C4    C     C_R   0.310702 0.152426 0.371655 0.426591
C5    C     C_R   0.648696 0.750588 0.613731 -0.119269
C6    C     C_R   0.347785 0.244609 0.389475 -0.125944
C7    C     C_R   0.514902 0.796903 0.512900 0.073096
C8    C     C_R   0.489909 0.206278 0.487917 0.062637
C9    C     C_R   0.537969 0.885897 0.539426 -0.104002
C10   C     C_R   0.452582 0.110811 0.478798 -0.092498
C11   C     C_R   0.631418 0.910968 0.598234 -0.099376
C12   C     C_R   0.516854 0.559672 0.337545 0.963901
C13   C     C_R   0.365038 0.084446 0.415836 -0.120430
C14   C     C_R   0.473483 0.950655 0.505014 -0.067103
C15   C     C_R   0.507413 0.043558 0.524630 -0.084863
C16   C     C_R   0.718403 0.501576 0.500589 0.891624
C17   C     C_R   0.281538 0.498211 0.499917 0.858577
C18   C     C_R   0.588756 0.064532 0.592889 0.324344
C19   C     C_R   0.369715 0.921410 0.456554 0.338496
C20   C     C_R   0.662225 0.003290 0.619694 0.439281
C21   C     C_R   0.332676 0.990761 0.399507 0.396837
C22   C     C_1   0.839740 0.503799 0.502121 -0.188020
C23   C     C_R   0.446190 0.345617 0.936789 -0.050710
C24   C     C_1   0.159964 0.495235 0.500149 -0.206884
C25   C     C_1   0.941223 0.501489 0.502240 -0.027126
C26   C     C_1   0.058337 0.497076 0.501181 -0.018082
C27   C     C_R   0.448563 0.401431 0.755763 -0.341060
C28   C     C_R   0.529403 0.598181 0.244003 -0.331722
C29   C     C_R   0.419439 0.276429 0.881501 0.334963
C30   C     C_R   0.615597 0.718910 0.119172 0.346023
C31   C     C_R   0.422356 0.304380 0.790525 0.263457
C32   C     C_R   0.598936 0.690796 0.210046 0.272244
C33   C     C_R   0.446516 0.465357 0.812349 0.372413
C34   C     C_R   0.575324 0.651603 0.063258 -0.063134
C35   C     C_R   0.475244 0.536913 0.186831 0.370512
C36   C     C_R   0.466548 0.442108 0.900839 -0.102900
C37   C     C_R   0.514790 0.557184 0.098896 -0.095028
C38   C     C_3   0.652810 0.195151 0.667694 0.154947
C39   C     C_3   0.686591 0.185042 0.763522 -0.253793
C40   C     C_3   0.779552 0.273666 0.781962 -1.001863
C41   C     C_3   0.225721 0.782360 0.429243 0.120280
C42   C     C_3   0.093678 0.784963 0.429434 -0.314394
C43   C     C_3   0.027923 0.740477 0.354747 -0.879021
C44   C     C_3   0.269955 0.470503 0.192427 0.081355
C45   C     C_R   0.502476 0.512681 0.954314 0.108220
C46   C     C_3   0.204105 0.490063 0.270097 -0.352153
C47   C     C_3   0.079664 0.501205 0.246450 -0.950583
C48   C     C_3   0.290818 0.534807 0.805021 0.110953
C49   C     C_3   0.210572 0.502781 0.730658 -0.327545
C50   C     C_3   0.077162 0.477939 0.758096 -0.968704
C51   C     C_3   0.857972 0.095180 0.625634 0.066813
C52   C     C_3   0.964638 0.052918 0.623798 -0.318238
C53   C     C_3   0.079155 0.127029 0.584944 -0.885850
C54   C     C_3   0.346008 0.958968 0.260441 0.081226
C55   C     C_3   0.402968 0.053749 0.202231 -0.344311
C56   C     C_R   0.492972 0.486034 0.045513 0.113099
C57   C     C_3   0.485972 0.042220 0.130460 -0.819993
C58   C     C_3   0.863436 0.815283 0.702585 0.067269
C59   C     C_3   0.845394 0.735818 0.780703 -0.331839
C60   C     C_3   0.949502 0.690469 0.785181 -0.942782
C61   C     C_3   0.115919 0.139376 0.325969 0.103749
C62   C     C_3   0.034621 0.043089 0.367508 -0.302642
C63   C     C_3   0.904055 0.045741 0.379100 -0.949905
C64   C     C_R   0.471724 0.389571 0.080682 -0.189580
C65   C     C_R   0.556176 0.608187 0.919155 -0.198403
C66   C     C_R   0.450462 0.320851 0.027177 -0.156904
Cl1   Cl    Cl    0.667501 0.772693 0.278784 -0.583900
Cl2   Cl    Cl    0.375813 0.216488 0.723605 -0.524292
Cl3   Cl    Cl    0.383161 0.154742 0.924837 -0.581349
Cl4   Cl    Cl    0.693180 0.837265 0.076897 -0.552277
H1    H     H_    0.436765 0.248369 0.057727 0.193911
H2    H     H_    0.731499 0.212931 0.621165 0.057044
H3    H     H_    0.604418 0.173278 0.805883 0.278782
H4    H     H_    0.723115 0.123529 0.781419 0.269561
H5    H     H_    0.863171 0.287008 0.740761 0.266679
H6    H     H_    0.802530 0.264258 0.851606 0.286792
H7    H     H_    0.742581 0.335759 0.768496 0.263682
H8    H     H_    0.226304 0.707879 0.450250 0.157975
H9    H     H_    0.270133 0.801262 0.363339 0.126193
H10   H     H_    0.047564 0.745951 0.492483 0.211441
H11   H     H_    0.088201 0.858674 0.423708 0.242901
H12   H     H_    0.640053 0.747000 0.942130 0.211735
H13   H     H_    0.068912 0.781490 0.291010 0.276827
H14   H     H_    0.931614 0.740363 0.358667 0.294030
H15   H     H_    0.032839 0.666623 0.358880 0.252621
H16   H     H_    0.215595 0.404059 0.172215 0.165347
H17   H     H_    0.275685 0.527557 0.135440 0.132896
H18   H     H_    0.193528 0.430539 0.324831 0.230918
H19   H     H_    0.258144 0.555667 0.291990 0.205519
H20   H     H_    0.088111 0.562232 0.193577 0.271147
H21   H     H_    0.033606 0.513671 0.304477 0.270014
H22   H     H_    0.023667 0.436193 0.224751 0.263993
H23   H     H_    0.478753 0.366188 0.149405 0.201371
H24   H     H_    0.280363 0.604113 0.816149 0.168148
H25   H     H_    0.259134 0.485268 0.867282 0.129727
H26   H     H_    0.230290 0.560447 0.673687 0.244108
H27   H     H_    0.229650 0.439649 0.710639 0.217733
H28   H     H_    0.053918 0.415800 0.810857 0.275334
H29   H     H_    0.021414 0.460634 0.701507 0.274190
H30   H     H_    0.056023 0.538346 0.781861 0.271322
H31   H     H_    0.887111 0.156724 0.660310 0.168398
H32   H     H_    0.839130 0.122368 0.557495 0.077545
H33   H     H_    0.981951 0.025151 0.691643 0.259665
H34   H     H_    0.576488 0.631186 0.850236 0.196358
H35   H     H_    0.942974 0.994798 0.584427 0.210075
H36   H     H_    0.063136 0.162071 0.519513 0.242838
H37   H     H_    0.152758 0.092921 0.578703 0.282494
H38   H     H_    0.108353 0.181367 0.627889 0.292844
H39   H     H_    0.291278 0.910248 0.219123 0.171369
H40   H     H_    0.418407 0.926485 0.286108 0.113290
H41   H     H_    0.330855 0.082855 0.171686 0.275911
H42   H     H_    0.456939 0.104597 0.241953 0.212256
H43   H     H_    0.558820 0.012896 0.159381 0.281178
H44   H     H_    0.528182 0.111933 0.090460 0.272115
H45   H     H_    0.565970 0.234048 0.524115 0.134674
H46   H     H_    0.433836 0.994374 0.087388 0.296491
H47   H     H_    0.949491 0.867745 0.710928 0.174552
H48   H     H_    0.876911 0.790392 0.640131 0.104000
H49   H     H_    0.839184 0.764637 0.841935 0.251470
H50   H     H_    0.760617 0.680629 0.775850 0.201801
H51   H     H_    0.956126 0.660351 0.724789 0.264899
H52   H     H_    0.933405 0.632914 0.842114 0.265171
H53   H     H_    0.035935 0.743343 0.792830 0.280778
H54   H     H_    0.077106 0.162750 0.263795 0.172048
H55   H     H_    0.115868 0.193139 0.368375 0.090999
H56   H     H_    0.456910 0.777879 0.460384 0.150546
H57   H     H_    0.037248 0.989871 0.325211 0.274096
H58   H     H_    0.068554 0.021256 0.432122 0.207874
H59   H     H_    0.898983 0.102096 0.416780 0.246908
H60   H     H_    0.849472 0.976900 0.414830 0.274978
H61   H     H_    0.865315 0.059214 0.314459 0.285817
H62   H     H_    0.309236 0.298323 0.356220 0.171932
H63   H     H_    0.683629 0.693688 0.643717 0.149936
H64   H     H_    0.617548 0.258110 0.656176 0.180993
N1    N     N_R   0.566020 0.731700 0.552730 -0.120215
N2    N     N_R   0.433980 0.268300 0.447270 -0.125503
O1    O     O_R   0.466720 0.383110 0.605620 -0.575780
O2    O     O_3   0.288470 0.835122 0.491236 -0.643215
O3    O     O_3   0.382860 0.456928 0.217878 -0.641993
O4    O     O_3   0.413850 0.547287 0.781687 -0.626432
O5    O     O_3   0.756978 0.029886 0.673770 -0.586812
O6    O     O_3   0.267323 0.967905 0.327318 -0.622160
O7    O     O_3   0.769332 0.860389 0.702469 -0.586056
O8    O     O_3   0.232176 0.131541 0.305262 -0.614692
O9    O     O_R   0.533280 0.616890 0.394380 -0.577421
O10   O     O_R   0.509090 0.531900 0.639510 -0.567864
O11   O     O_R   0.490910 0.468100 0.360490 -0.569391
O12   O     O_R   0.644370 0.425610 0.483050 -0.633584
O13   O     O_R   0.355630 0.574390 0.516950 -0.622332
O14   O     O_R   0.686740 0.574390 0.516930 -0.610640
O15   O     O_R   0.313260 0.425610 0.483070 -0.612348
O16   O     O_3   0.558468 0.116285 0.653004 -0.565658
Zn1   Zn    Zn3+2 0.471710 0.400660 0.477370 0.968925
Zn2   Zn    Zn3+2 0.528290 0.599340 0.522630 0.977650

loop_
_geom_bond_atom_site_label_1
_geom_bond_atom_site_label_2
_ccdc_geom_bond_type
C15   C18   A    
C30   C32   A    
C52   H33   S    
C42   H10   S    
C59   H50   S    
C48   H25   S    
C55   H42   S    
C8    N2    A    
C34   C37   A    
C43   H13   S    
C47   H22   S    
C9    C14   A    
C2    C65   A    
C46   H19   S    
C27   C33   A    
C51   H32   S    
C5    H63   S    
C50   H29   S    
N1    Zn2   S    
C48   H24   S    
C12   C28   S    
C61   H54   S    
C23   C29   A    
C23   C66   A    
C35   C37   A    
C24   C26   T    
C64   H23   S    
C10   C15   A    
C38   C39   S    
C63   H59   S    
C44   H16   S    
C39   H4    S    
C33   O4    S    
C58   H48   S    
C33   C36   A    
C54   H40   S    
C5    N1    A    
C41   C42   S    
C63   H60   S    
C4    C13   A    
C6    N2    A    
C8    H45   S    
C35   O3    S    
C46   C47   S    
C37   C56   A    
C58   O7    S    
C45   C56   A    
C22   C25   T    
C16   C22   S    
C56   C64   A    
C63   H61   S    
C44   H17   S    
C29   Cl3   S    
C2    C34   A    
C39   H3    S    
C59   C60   S    
C49   H26   S    
C43   H14   S    
C1    O10   A    
C17   O15   A    
C42   H11   S    
C18   O16   S    
C53   H36   S    
C38   O16   S    
C30   Cl4   S    
C44   C46   S    
C57   H46   S    
C46   H18   S    
C60   H51   S    
C51   O5    S    
C31   Cl2   S    
C38   H2    S    
C11   C20   A    
C50   H28   S    
C17   C24   S    
C48   O4    S    
C27   C31   A    
C51   C52   S    
C43   H15   S    
C28   C32   A    
C3    O7    S    
C28   C35   A    
C4    C6    A    
C41   H8    S    
C30   C34   A    
C14   C19   A    
C57   H43   S    
C25   C26   S    
C58   H47   S    
C40   H6    S    
C54   H39   S    
C64   C66   A    
C12   O9    A    
C60   H53   S    
O13   Zn2   S    
C4    O8    S    
C62   C63   S    
C53   H37   S    
C61   O8    S    
C66   H1    S    
O10   Zn2   S    
O1    Zn1   S    
C36   C45   A    
C60   H52   S    
C9    C11   A    
C41   O2    S    
C32   Cl1   S    
O9    Zn2   S    
C6    H62   S    
C48   C49   S    
C54   O6    S    
C52   H35   S    
C23   C36   A    
C44   O3    S    
C55   C57   S    
C45   C65   A    
C47   H20   S    
C2    H12   S    
C42   C43   S    
C39   C40   S    
C1    O1    A    
C52   C53   S    
C12   O11   A    
C41   H9    S    
C7    C9    A    
C54   C55   S    
C38   H64   S    
C59   H49   S    
C55   H41   S    
C40   H7    S    
C47   H21   S    
C20   O5    S    
C17   O13   A    
C3    C5    A    
C10   C13   A    
C21   O6    S    
C16   O14   A    
C57   H44   S    
C51   H31   S    
C50   H30   S    
C40   H5    S    
C16   O12   A    
C58   C59   S    
C29   C31   A    
C13   C21   A    
C62   H58   S    
N2    Zn1   S    
C53   H38   S    
C62   H57   S    
C19   O2    S    
C18   C20   A    
O15   Zn1   S    
C7    H56   S    
C61   C62   S    
O11   Zn1   S    
C3    C11   A    
C7    N1    A    
C49   H27   S    
C8    C10   A    
C49   C50   S    
O14   Zn2   S    
C1    C27   S    
C14   C15   A    
C61   H55   S    
C65   H34   S    
O12   Zn1   S    
C19   C21   A    
