data_mof_unit_37156.cif
_audit_creation_date              2012-10-26T20:37:35-0400
_audit_creation_method            fapswitch 2.2
_symmetry_space_group_name_H-M    P1
_symmetry_Int_Tables_number       1
_space_group_crystal_system       triclinic
_cell_length_a                    11.03324
_cell_length_b                    11.014087
_cell_length_c                    9.69643
_cell_angle_alpha                 88.340281
_cell_angle_beta                  102.824771
_cell_angle_gamma                 90.879091
_cell_volume                      1148.39547065

loop_
_atom_site_label
_atom_site_type_symbol
_atom_type_description
_atom_site_fract_x
_atom_site_fract_y
_atom_site_fract_z
_atom_type_partial_charge
C1    C     C_R   0.504755 0.265306 0.503954 0.548065
C2    C     C_2   0.126827 0.510412 0.408285 0.070110
C3    C     C_2   0.067634 0.529736 0.512917 -0.098572
C4    C     C_2   0.872860 0.506302 0.586909 -0.090849
C5    C     C_2   0.933107 0.548484 0.488745 0.090745
C6    C     C_2   0.482958 0.937795 0.399127 0.150059
C7    C     C_3   0.660468 0.100319 0.264748 -0.005797
C8    C     C_3   0.748859 0.201048 0.334626 -0.249424
C9    C     C_3   0.882824 0.178677 0.325130 -0.489952
C10   C     C_3   0.570985 0.110749 0.768282 0.028424
C11   C     C_3   0.706758 0.147911 0.765703 -0.285077
C12   C     C_2   0.542322 0.859721 0.500332 0.140999
C13   C     C_3   0.780861 0.175040 0.914066 -0.493918
C14   C     C_3   0.250249 0.304896 0.877873 -0.026606
C15   C     C_3   0.267682 0.169505 0.917068 -0.271788
C16   C     C_3   0.159068 0.117774 0.974401 -0.482148
C17   C     C_2   0.518732 0.067170 0.401822 0.280459
C18   C     C_2   0.512177 0.132249 0.516032 0.267192
C19   C     C_2   0.434287 0.423326 0.908457 0.414500
C20   C     C_2   0.458573 0.409989 0.069562 -0.017751
C21   C     C_R   0.262520 0.501377 0.442357 0.559077
C22   C     C_R   0.506126 0.733393 0.499225 0.571175
C23   C     C_R   0.737303 0.503545 0.557075 0.553504
Cu1   Cu    Cu3+1 0.500020 0.500020 0.638640 0.974798
Cu2   Cu    Cu3+1 0.499980 0.499980 0.361360 0.952402
H1    H     H_    0.436289 0.324659 0.116326 0.166412
H2    H     H_    0.081137 0.414218 0.229461 0.227388
H3    H     H_    0.349608 0.969007 0.218249 0.242595
H4    H     H_    0.307049 0.874175 0.337256 0.210210
H5    H     H_    0.646672 0.868644 0.699537 0.243794
H6    H     H_    0.727506 0.844089 0.574825 0.213087
H7    H     H_    0.659851 0.101342 0.150198 0.139260
H8    H     H_    0.695468 0.009027 0.307379 0.138707
H9    H     H_    0.718359 0.289825 0.281929 0.203911
H10   H     H_    0.746134 0.205789 0.448091 0.143721
H11   H     H_    0.915662 0.090626 0.377968 0.147972
H12   H     H_    0.500935 0.583539 0.106230 0.251673
H13   H     H_    0.943576 0.252485 0.378794 0.165950
H14   H     H_    0.890540 0.177937 0.213087 0.145510
H15   H     H_    0.575579 0.033979 0.846089 0.141908
H16   H     H_    0.523847 0.183796 0.811978 0.192763
H17   H     H_    0.754330 0.074895 0.722919 0.181680
H18   H     H_    0.710227 0.230674 0.699096 0.155361
H19   H     H_    0.732408 0.243505 0.963783 0.148784
H20   H     H_    0.873788 0.212035 0.908428 0.140946
H21   H     H_    0.793489 0.090314 0.980340 0.137193
H22   H     H_    0.163968 0.314770 0.793883 0.150474
H23   H     H_    0.119363 0.530389 0.622331 0.117134
H24   H     H_    0.233756 0.357922 0.967962 0.106028
H25   H     H_    0.274675 0.119103 0.821469 0.191945
H26   H     H_    0.355223 0.155066 0.997667 0.171286
H27   H     H_    0.150078 0.166550 0.070296 0.148404
H28   H     H_    0.175006 0.020074 0.002932 0.152643
H29   H     H_    0.071396 0.126143 0.892518 0.143564
H30   H     H_    0.923594 0.464875 0.685626 0.046304
H31   H     H_    0.851819 0.565875 0.278740 0.278298
H32   H     H_    0.925053 0.693465 0.351664 0.228573
H33   H     H_    0.678743 0.477784 0.924082 0.240133
H34   H     H_    0.632853 0.621656 0.881573 0.256622
H35   H     H_    0.091674 0.566078 0.202803 0.236893
N1    N     N_2   0.498650 0.498660 0.846590 -0.145899
N2    N     N_2   0.498620 0.498630 0.152710 -0.361027
N3    N     N_3   0.868926 0.619524 0.368166 -0.584178
N4    N     N_3   0.610121 0.540820 0.929272 -0.583325
N5    N     N_3   0.059791 0.498554 0.264387 -0.663807
N6    N     N_3   0.380791 0.897257 0.289616 -0.621574
N7    N     N_3   0.654798 0.894203 0.597264 -0.660873
O1    O     O_R   0.500020 0.321960 0.617050 -0.474979
O2    O     O_3   0.494987 0.070186 0.638448 -0.598697
O3    O     O_3   0.349995 0.348454 0.819783 -0.548713
O4    O     O_R   0.499980 0.321920 0.382890 -0.487270
O5    O     O_R   0.320700 0.500020 0.574050 -0.466682
O6    O     O_R   0.320660 0.499980 0.339890 -0.502216
O7    O     O_R   0.500020 0.678080 0.617110 -0.512070
O8    O     O_R   0.499980 0.678040 0.382950 -0.477179
O9    O     O_R   0.679340 0.500020 0.660110 -0.534260
O10   O     O_R   0.679300 0.499980 0.425950 -0.468731
O11   O     O_3   0.537468 0.122421 0.277818 -0.605273

loop_
_geom_bond_atom_site_label_1
_geom_bond_atom_site_label_2
_ccdc_geom_bond_type
N1    N4    S    
H3    N6    S    
C20   N2    D    
C11   H18   S    
Cu1   N1    S    
H2    N5    S    
C15   H26   S    
C13   H20   S    
C9    H11   S    
Cu1   O1    S    
C7    H8    S    
C19   C20   S    
C9    H14   S    
C23   O9    A    
C2    N5    S    
H4    N6    S    
C2    C21   S    
C17   C18   D    
H34   N4    S    
H31   N3    S    
C7    C8    S    
C8    H9    S    
C23   O10   A    
C10   H16   S    
H6    N7    S    
C14   O3    S    
Cu1   O7    S    
C1    C18   S    
C1    O4    A    
C20   H1    S    
C22   O8    A    
C19   N1    D    
C7    O11   S    
Cu2   O4    S    
C4    C5    D    
C17   O11   S    
H35   N5    S    
C2    C3    D    
Cu2   O6    S    
Cu2   N2    S    
C4    H30   S    
C6    C12   D    
C13   H21   S    
C12   N7    S    
C16   H29   S    
C11   C13   S    
C18   O2    S    
C10   C11   S    
C22   O7    A    
C21   O5    A    
C15   C16   S    
C14   H24   S    
C10   O2    S    
C21   O6    A    
C3    H23   S    
C6    N6    S    
C1    O1    A    
C12   C22   S    
Cu1   Cu2   S    
C5    N3    S    
C11   H17   S    
C10   H15   S    
C15   H25   S    
C16   H27   S    
C4    C23   S    
C6    C17   S    
H12   N2    S    
C16   H28   S    
Cu2   O10   S    
C19   O3    S    
C9    H13   S    
C7    H7    S    
H33   N4    S    
C3    C5    S    
C14   C15   S    
C14   H22   S    
Cu1   O5    S    
C13   H19   S    
Cu1   O9    S    
H5    N7    S    
H32   N3    S    
C8    C9    S    
Cu2   O8    S    
C8    H10   S    
