data_mof_unit_8570.cif
_audit_creation_date              2012-12-11T17:04:49-0500
_audit_creation_method            fapswitch 2.2
_symmetry_space_group_name_H-M    P1
_symmetry_Int_Tables_number       1
_space_group_crystal_system       triclinic
_cell_length_a                    17.616139
_cell_length_b                    24.622424
_cell_length_c                    15.093716
_cell_angle_alpha                 90.038045
_cell_angle_beta                  125.420347
_cell_angle_gamma                 90.014101
_cell_volume                      5335.23483452

loop_
_atom_site_label
_atom_site_type_symbol
_atom_type_description
_atom_site_fract_x
_atom_site_fract_y
_atom_site_fract_z
_atom_type_partial_charge
C1    C     C_R   0.848264 0.651062 0.908955 0.525937
C2    C     C_R   0.938688 0.503073 0.635981 -0.080889
C3    C     C_R   0.770454 0.045210 0.267132 0.757346
C4    C     C_R   0.816480 0.371461 0.912731 0.765184
C5    C     C_R   0.186318 0.375222 0.087848 0.778357
C6    C     C_R   0.313059 0.875757 0.911705 0.775423
C7    C     C_R   0.683048 0.871008 0.087135 0.765570
C8    C     C_R   0.933684 0.649781 0.089118 0.737754
C9    C     C_R   0.071220 0.647747 0.910833 0.785312
C10   C     C_R   0.426780 0.146635 0.089444 0.798018
C11   C     C_R   0.566152 0.149866 0.910981 0.737926
C12   C     C_R   0.871401 0.679230 0.998922 -0.105878
C13   C     C_R   0.562882 0.003538 0.364206 0.015153
C14   C     C_R   0.138440 0.675653 0.001388 -0.116717
C15   C     C_R   0.358164 0.173778 0.998909 -0.123634
C16   C     C_R   0.628638 0.179296 0.001217 -0.104146
C17   C     C_R   0.456128 0.001574 0.645405 -0.101545
C18   C     C_R   0.675467 0.499316 0.691212 -0.132280
C19   C     C_R   0.302655 0.500819 0.362235 -0.161104
C20   C     C_R   0.197596 0.000712 0.637412 -0.159805
C21   C     C_R   0.824782 0.999377 0.307049 -0.105937
C22   C     C_3   0.507202 0.454551 0.590183 0.187070
C23   C     C_3   0.467884 0.457668 0.469463 0.173363
C24   C     C_3   0.032154 0.957546 0.528617 0.173132
C25   C     C_R   0.158400 0.648792 0.091748 0.491037
C26   C     C_3   0.993201 0.954744 0.407960 0.190428
C27   C     C_3   0.437544 0.497777 0.575479 0.678379
C28   C     C_3   0.536749 0.502649 0.491264 0.618301
C29   C     C_3   0.963340 0.002474 0.507037 0.612803
C30   C     C_3   0.063173 0.998049 0.423614 0.673965
C31   C     C_3   0.398021 0.500922 0.454153 -0.357448
C32   C     C_3   0.576810 0.499583 0.612665 -0.340055
C33   C     C_3   0.923591 0.999722 0.385646 -0.340827
C34   C     C_3   0.102335 0.000853 0.544891 -0.354350
C35   C     C_3   0.468264 0.545875 0.477327 0.302072
C36   C     C_R   0.339584 0.147852 0.908288 0.487279
C37   C     C_3   0.507452 0.542811 0.597871 0.309113
C38   C     C_3   0.993266 0.043026 0.401409 0.309233
C39   C     C_3   0.032126 0.045765 0.521905 0.302501
C40   C     C_R   0.815315 0.270255 0.065889 -0.254456
C41   C     C_R   0.180136 0.270149 0.940577 -0.270576
C42   C     C_R   0.317127 0.773441 0.065352 -0.269984
C43   C     C_R   0.684231 0.769732 0.933705 -0.254832
C44   C     C_R   0.767693 0.317041 0.009120 0.008682
C45   C     C_R   0.231385 0.317091 0.992471 0.017018
C46   C     C_R   0.265718 0.819431 0.007790 0.010288
C47   C     C_R   0.651903 0.151090 0.091112 0.527140
C48   C     C_R   0.731677 0.816585 0.990566 0.008541
C49   C     C_R   0.670417 0.321807 0.957887 0.375013
C50   C     C_R   0.327892 0.319259 0.038607 0.413897
C51   C     C_R   0.168143 0.820800 0.955943 0.406779
C52   C     C_R   0.828961 0.821571 0.041986 0.377943
C53   C     C_R   0.907786 0.373357 0.093775 0.501584
C54   C     C_R   0.093947 0.375116 0.906650 0.519601
C55   C     C_R   0.403692 0.877337 0.092481 0.486365
C56   C     C_R   0.591672 0.872849 0.906062 0.507315
C57   C     C_R   0.124308 0.773152 0.954868 0.840635
C58   C     C_R   0.821781 0.358197 0.004809 -0.263229
C59   C     C_R   0.877114 0.776077 0.043736 0.853454
C60   C     C_R   0.622494 0.276211 0.956380 0.859215
C61   C     C_R   0.371435 0.271505 0.040145 0.838304
C62   C     C_R   0.177781 0.726201 0.004698 -0.106995
C63   C     C_R   0.827903 0.727929 0.994711 -0.112474
C64   C     C_R   0.671903 0.228162 0.005450 -0.115636
C65   C     C_R   0.318622 0.223793 0.996409 -0.101405
C66   C     C_R   0.273594 0.727609 0.064450 -0.254442
C67   C     C_R   0.732012 0.725941 0.935697 -0.263967
C68   C     C_R   0.767778 0.226380 0.064176 -0.262469
C69   C     C_R   0.180930 0.361038 0.995912 -0.260933
C70   C     C_R   0.223220 0.224190 0.941512 -0.254410
C71   C     C_3   0.337539 0.690348 0.058414 1.210911
C72   C     C_3   0.672227 0.686074 0.944001 1.184484
C73   C     C_3   0.827561 0.186605 0.055696 1.183395
C74   C     C_3   0.162940 0.187540 0.955246 1.208632
C75   C     C_3   0.881388 0.235362 0.057868 0.990764
C76   C     C_3   0.114403 0.238699 0.954656 0.965364
C77   C     C_3   0.386652 0.741208 0.059005 0.963128
C78   C     C_3   0.618100 0.734738 0.941463 0.992528
C79   C     C_R   0.040801 0.531367 0.588206 -0.268014
C80   C     C_R   0.317008 0.862816 0.003211 -0.237134
C81   C     C_R   0.069342 0.530807 0.521587 -0.186335
C82   C     C_R   0.450245 0.039374 0.496171 -0.190733
C83   C     C_R   0.479295 0.041304 0.430326 -0.285950
C84   C     C_R   0.957501 0.506644 0.556693 0.017954
C85   C     C_R   0.016669 0.503363 0.423970 -0.034653
C86   C     C_R   0.489937 0.002311 0.580060 -0.031261
C87   C     C_R   0.550777 0.007584 0.449021 0.029542
C88   C     C_R   0.893982 0.488848 0.449738 0.395391
C89   C     C_R   0.925468 0.485108 0.382401 0.380966
C90   C     C_R   0.571707 0.973482 0.611352 0.337792
C91   C     C_R   0.677529 0.857595 0.994963 -0.259492
C92   C     C_R   0.604219 0.977581 0.545108 0.468228
C93   C     C_3   0.169493 0.524102 0.614313 1.226425
C94   C     C_3   0.137625 0.524854 0.688661 1.091699
C95   C     C_3   0.382402 0.049556 0.330327 1.113180
C96   C     C_3   0.350223 0.047304 0.404114 1.228220
C97   C     C_R   0.041287 0.546396 0.299190 0.518869
C98   C     C_R   0.951868 0.546700 0.698070 0.530382
C99   C     C_R   0.549300 0.046971 0.301997 0.486340
C100  C     C_R   0.461925 0.046261 0.702628 0.496611
C101  C     C_R   0.732794 0.454753 0.721498 0.526037
C102  C     C_R   0.049750 0.502047 0.358086 -0.099299
C103  C     C_R   0.253741 0.455641 0.303326 0.589974
C104  C     C_R   0.246359 0.955575 0.696486 0.587985
C105  C     C_R   0.767440 0.954807 0.277405 0.494803
C106  C     C_R   0.045227 0.456615 0.302602 0.557369
C107  C     C_R   0.949919 0.457030 0.694463 0.547873
C108  C     C_R   0.552690 0.957407 0.307000 0.521194
C109  C     C_R   0.456860 0.956379 0.698713 0.578523
C110  C     C_R   0.729670 0.545196 0.731781 0.761271
C111  C     C_R   0.257224 0.545685 0.301678 0.778042
C112  C     C_R   0.243023 0.045609 0.698091 0.776688
F1    F     F_    0.030521 0.772196 0.903186 -0.582448
F2    F     F_    0.622886 0.652425 0.854167 -0.615648
F3    F     F_    0.877216 0.153110 0.145605 -0.615617
F4    F     F_    0.108250 0.153598 0.866717 -0.628594
F5    F     F_    0.873552 0.242830 0.961904 -0.561788
F6    F     F_    0.127453 0.248935 0.052894 -0.565325
F7    F     F_    0.378396 0.749368 0.962949 -0.568588
F8    F     F_    0.625575 0.742284 0.037212 -0.561528
F9    F     F_    0.223244 0.568448 0.626866 -0.548809
F10   F     F_    0.151499 0.476229 0.742229 -0.672003
F11   F     F_    0.350450 0.006790 0.257291 -0.669031
F12   F     F_    0.970865 0.778206 0.095541 -0.578167
F13   F     F_    0.314491 0.095885 0.411141 -0.547838
F14   F     F_    0.206881 0.474932 0.612709 -0.632337
F15   F     F_    0.167570 0.569826 0.756107 -0.569746
F16   F     F_    0.370591 0.099834 0.282915 -0.548744
F17   F     F_    0.294802 0.002812 0.386198 -0.616992
F18   F     F_    0.699384 0.596800 0.702169 -0.617745
F19   F     F_    0.270650 0.596393 0.342534 -0.620216
F20   F     F_    0.230199 0.096185 0.657014 -0.620685
F21   F     F_    0.801001 0.096823 0.296415 -0.618885
F22   F     F_    0.758755 0.346665 0.815691 -0.560881
F23   F     F_    0.528760 0.278151 0.904753 -0.571888
F24   F     F_    0.253288 0.358771 0.190096 -0.569586
F25   F     F_    0.246383 0.858969 0.809526 -0.573942
F26   F     F_    0.739932 0.845761 0.183728 -0.563848
F27   F     F_    0.982447 0.668771 0.192099 -0.612744
F28   F     F_    0.023050 0.667053 0.808148 -0.600861
F29   F     F_    0.474207 0.166022 0.192109 -0.591063
F30   F     F_    0.516378 0.169214 0.808314 -0.610951
F31   F     F_    0.385148 0.495424 0.616776 -0.543228
F32   F     F_    0.588643 0.505075 0.449256 -0.585179
F33   F     F_    0.911202 0.004698 0.548750 -0.587970
F34   F     F_    0.464420 0.271200 0.086380 -0.585863
F35   F     F_    0.115850 0.995893 0.382668 -0.544887
F36   F     F_    0.293305 0.661255 0.962058 -0.578085
F37   F     F_    0.719738 0.658091 0.041673 -0.620621
F38   F     F_    0.779955 0.158462 0.958095 -0.622540
F39   F     F_    0.211501 0.160283 0.053750 -0.575941
F40   F     F_    0.389963 0.658030 0.149968 -0.625870
H1    H     H_    0.832995 0.651997 0.772914 0.349088
H2    H     H_    0.470086 0.607517 0.633332 0.392552
H3    H     H_    0.031109 0.107922 0.367119 0.392215
H4    H     H_    0.991368 0.113536 0.543421 0.387646
H5    H     H_    0.663142 0.398247 0.919613 0.336700
H6    H     H_    0.341185 0.396543 0.073240 0.348680
H7    H     H_    0.154204 0.897342 0.916221 0.347770
H8    H     H_    0.835867 0.898085 0.079849 0.336528
H9    H     H_    0.975237 0.237792 0.215973 0.343328
H10   H     H_    0.016030 0.239972 0.797738 0.341894
H11   H     H_    0.479919 0.744974 0.217033 0.339994
H12   H     H_    0.160472 0.658344 0.218386 0.366775
H13   H     H_    0.524595 0.736973 0.783274 0.343132
H14   H     H_    0.762200 0.480078 0.335646 0.370776
H15   H     H_    0.828436 0.435801 0.276521 0.351395
H16   H     H_    0.645745 0.910333 0.693018 0.359560
H17   H     H_    0.728382 0.949286 0.650257 0.357610
H18   H     H_    0.013677 0.341469 0.218903 0.391176
H19   H     H_    0.989830 0.341986 0.781259 0.381814
H20   H     H_    0.502155 0.844581 0.222532 0.353823
H21   H     H_    0.484926 0.841292 0.781010 0.389590
H22   H     H_    0.104845 0.611156 0.308752 0.365755
H23   H     H_    0.337673 0.158988 0.782085 0.370613
H24   H     H_    0.893852 0.612023 0.697125 0.341660
H25   H     H_    0.605813 0.112479 0.300563 0.342897
H26   H     H_    0.396320 0.110736 0.689451 0.371801
H27   H     H_    0.649003 0.407810 0.599905 0.357474
H28   H     H_    0.305907 0.406080 0.424436 0.359444
H29   H     H_    0.194629 0.905964 0.575324 0.357959
H30   H     H_    0.852186 0.907719 0.398032 0.363602
H31   H     H_    0.103353 0.408822 0.426647 0.372321
H32   H     H_    0.894649 0.406807 0.574087 0.365509
H33   H     H_    0.623519 0.896074 0.316209 0.346064
H34   H     H_    0.668104 0.151987 0.227647 0.347869
H35   H     H_    0.398938 0.909045 0.573791 0.365264
H36   H     H_    0.471179 0.386224 0.615908 0.387503
H37   H     H_    0.505560 0.394717 0.428804 0.379696
H38   H     H_    0.993812 0.895041 0.569619 0.380498
H39   H     H_    0.029261 0.886538 0.381815 0.385650
H40   H     H_    0.509150 0.613764 0.456437 0.388790
N1    N     N_R   0.892620 0.603790 0.941770 -0.183530
N2    N     N_R   0.973690 0.529110 0.793240 -0.164897
N3    N     N_R   0.526310 0.029110 0.206760 -0.154030
N4    N     N_R   0.473690 0.029110 0.793240 -0.174769
N5    N     N_R   0.818570 0.472310 0.793020 -0.154998
N6    N     N_R   0.181430 0.472310 0.206980 -0.159764
N7    N     N_R   0.318570 0.972310 0.793020 -0.158884
N8    N     N_R   0.681430 0.972310 0.206980 -0.165774
N9    N     N_R   0.026930 0.472300 0.207330 -0.129035
N10   N     N_R   0.973070 0.472300 0.792670 -0.118686
N11   N     N_R   0.526930 0.972300 0.207330 -0.153002
N12   N     N_R   0.107380 0.603790 0.058230 -0.176464
N13   N     N_R   0.473070 0.972300 0.792670 -0.134084
N14   N     N_R   0.817960 0.529130 0.792460 -0.200740
N15   N     N_R   0.182040 0.529130 0.207540 -0.195091
N16   N     N_R   0.317960 0.029130 0.792460 -0.193344
N17   N     N_R   0.682040 0.029130 0.207540 -0.195970
N18   N     N_R   0.894850 0.397640 0.943830 -0.147591
N19   N     N_R   0.105150 0.397640 0.056170 -0.140507
N20   N     N_R   0.394850 0.897640 0.943830 -0.134403
N21   N     N_R   0.605150 0.897640 0.056170 -0.151753
N22   N     N_R   0.950040 0.603780 0.055950 -0.181507
N23   N     N_R   0.392620 0.103790 0.941770 -0.176528
N24   N     N_R   0.049960 0.603780 0.944050 -0.183718
N25   N     N_R   0.450040 0.103780 0.055950 -0.184204
N26   N     N_R   0.549960 0.103780 0.944050 -0.180344
N27   N     N_R   0.607380 0.103790 0.058230 -0.182419
N28   N     N_R   0.952270 0.397640 0.058010 -0.146546
N29   N     N_R   0.047730 0.397640 0.941990 -0.148901
N30   N     N_R   0.452270 0.897640 0.058010 -0.150251
N31   N     N_R   0.547730 0.897640 0.941990 -0.145992
N32   N     N_R   0.026310 0.529110 0.206760 -0.173871
Ni1   Ni    Ni4+2 0.934160 0.565860 0.869070 0.220225
Ni2   Ni    Ni4+2 0.065840 0.565860 0.130930 0.222307
Ni3   Ni    Ni4+2 0.434160 0.065860 0.869070 0.225779
Ni4   Ni    Ni4+2 0.565840 0.065860 0.130930 0.221177
Ni5   Ni    Ni4+2 0.067260 0.435560 0.132230 0.312444
Ni6   Ni    Ni4+2 0.932740 0.435560 0.867770 0.318849
Ni7   Ni    Ni4+2 0.567260 0.935560 0.132230 0.264876
Ni8   Ni    Ni4+2 0.432740 0.935560 0.867770 0.311754
O1    O     O_3   0.815533 0.675605 0.811303 -0.595194
O2    O     O_3   0.529301 0.587322 0.666151 -0.531828
O3    O     O_3   0.971794 0.087721 0.333789 -0.532173
O4    O     O_3   0.051340 0.093686 0.581199 -0.566998
O5    O     O_3   0.620089 0.368355 0.906110 -0.600189
O6    O     O_3   0.381623 0.365403 0.085245 -0.605478
O7    O     O_3   0.113755 0.866007 0.903239 -0.605703
O8    O     O_3   0.879074 0.868243 0.093726 -0.601756
O9    O     O_3   0.974570 0.237711 0.149707 -0.640679
O10   O     O_3   0.020114 0.242479 0.866074 -0.646620
O11   O     O_3   0.479384 0.746190 0.150889 -0.656114
O12   O     O_3   0.193667 0.674045 0.189418 -0.592203
O13   O     O_3   0.525016 0.736875 0.849375 -0.641174
O14   O     O_3   0.804778 0.475112 0.415374 -0.678934
O15   O     O_3   0.871762 0.462589 0.279484 -0.727215
O16   O     O_3   0.615414 0.941176 0.703116 -0.718166
O17   O     O_3   0.684936 0.952998 0.570322 -0.636183
O18   O     O_3   0.949922 0.351292 0.195208 -0.666488
O19   O     O_3   0.053147 0.353103 0.805265 -0.654369
O20   O     O_3   0.440620 0.859885 0.196086 -0.668551
O21   O     O_3   0.548975 0.850396 0.804773 -0.660327
O22   O     O_3   0.078729 0.595880 0.346376 -0.584915
O23   O     O_3   0.303657 0.173558 0.810952 -0.592322
O24   O     O_3   0.914127 0.596498 0.653734 -0.591891
O25   O     O_3   0.587732 0.096779 0.345909 -0.594070
O26   O     O_3   0.425383 0.095727 0.654903 -0.577526
O27   O     O_3   0.714209 0.407146 0.664507 -0.577083
O28   O     O_3   0.257349 0.405201 0.344964 -0.578784
O29   O     O_3   0.242916 0.905122 0.654866 -0.582458
O30   O     O_3   0.786709 0.907106 0.334133 -0.607219
O31   O     O_3   0.087746 0.408285 0.352079 -0.677981
O32   O     O_3   0.909491 0.407787 0.648128 -0.673246
O33   O     O_3   0.602223 0.911138 0.359242 -0.637631
O34   O     O_3   0.685089 0.175654 0.188943 -0.597038
O35   O     O_3   0.413546 0.908353 0.647901 -0.677706
O36   O     O_3   0.530134 0.407000 0.651290 -0.597606
O37   O     O_3   0.445721 0.413213 0.400633 -0.593703
O38   O     O_3   0.053963 0.912904 0.596796 -0.594505
O39   O     O_3   0.970373 0.907343 0.346303 -0.597294
O40   O     O_3   0.449089 0.593955 0.418642 -0.561916

loop_
_geom_bond_atom_site_label_1
_geom_bond_atom_site_label_2
_ccdc_geom_bond_type
C44   C49   A    
C3    N17   A    
C5    F24   S    
C83   C87   A    
C93   C94   S    
C72   F2    S    
C73   F38   S    
C103  O28   S    
N26   Ni3   S    
C2    C84   S    
C95   C96   S    
C75   F5    S    
C35   O40   S    
C109  O35   S    
C25   N12   A    
C19   C31   S    
H29   O29   S    
C98   O24   S    
N6    Ni5   S    
N18   N28   A    
C57   C62   A    
H15   O15   S    
N20   N30   A    
C94   F15   S    
C50   O6    S    
C98   N2    A    
N13   Ni8   S    
C49   C60   A    
C22   C32   S    
N3    Ni4   S    
H36   O36   S    
C8    F27   S    
C64   C68   A    
N2    Ni1   S    
H37   O37   S    
C35   C37   S    
C93   F9    S    
C108  N11   A    
C8    N22   A    
C10   C15   A    
N23   N25   A    
C36   N23   A    
C29   F33   S    
C39   O4    S    
N20   Ni8   S    
C9    F28   S    
C101  N5    A    
C97   O22   S    
N3    N11   A    
C99   O25   S    
C95   F11   S    
C65   C70   A    
C14   C62   S    
C99   N3    A    
C2    C107  A    
C59   F12   S    
C78   O13   S    
C4    N18   A    
C30   C38   S    
C67   C72   S    
C42   C46   A    
H17   O17   S    
N4    N13   A    
C42   C77   S    
C24   C29   S    
N7    N16   A    
C72   C78   S    
H26   O26   S    
N28   Ni5   S    
C20   C112  A    
C19   C103  A    
C95   F16   S    
H22   O22   S    
C105  N8    A    
C66   C71   S    
C28   C35   S    
H21   O21   S    
C105  O30   S    
C56   C91   A    
C48   C91   S    
C90   O16   S    
N29   Ni6   S    
C70   C74   S    
C5    C69   A    
C54   O19   S    
H11   O11   S    
C107  O32   S    
C28   F32   S    
N8    Ni7   S    
H3    O3    S    
N27   Ni4   S    
H10   O10   S    
N19   N29   A    
C43   C48   A    
C40   C44   A    
H9    O9    S    
C97   C102  A    
N21   Ni7   S    
C81   C85   A    
N10   Ni6   S    
C20   C34   S    
H34   O34   S    
C53   N28   A    
N9    Ni5   S    
C71   F36   S    
N4    Ni3   S    
C83   C95   S    
C29   C33   S    
C87   C92   A    
C15   C65   S    
C73   C75   S    
H2    O2    S    
N5    N14   A    
C103  N6    A    
C1    C12   A    
H38   O38   S    
C13   C108  A    
N22   Ni2   S    
C55   O20   S    
C16   C47   A    
C11   F30   S    
C41   C45   A    
C100  O26   S    
C100  N4    A    
C9    N24   A    
C38   C39   S    
C5    N19   A    
C63   C67   A    
C36   O23   S    
C82   C96   S    
C30   C34   S    
C45   C69   S    
C17   C86   S    
H14   O14   S    
C84   C88   A    
C28   C32   S    
C62   C66   A    
H13   O13   S    
C112  N16   A    
C107  N10   A    
C49   O5    S    
C86   C90   A    
C44   C58   S    
C38   O3    S    
C79   C81   A    
C12   C63   S    
C85   C89   A    
C54   N29   A    
C57   F1    S    
C7    F26   S    
C37   O2    S    
C68   C73   S    
C92   O17   S    
C47   N27   A    
C46   C51   A    
H20   O20   S    
C24   C34   S    
C34   C39   S    
C24   O38   S    
C76   F6    S    
C3    F21   S    
C18   C101  A    
C23   C31   S    
C13   C99   A    
C76   O10   S    
N7    Ni8   S    
H33   O33   S    
C75   O9    S    
C52   C59   A    
C22   O36   S    
H24   O24   S    
H18   O18   S    
C81   C93   S    
C11   C16   A    
N15   Ni2   S    
C90   C92   A    
C71   F40   S    
C11   N26   A    
H35   O35   S    
C8    C12   A    
C7    C91   A    
C13   C87   S    
N14   Ni1   S    
N18   Ni6   S    
C9    C14   A    
H1    O1    S    
C27   F31   S    
C110  N14   A    
C32   C37   S    
C112  F20   S    
C109  N13   A    
C60   F23   S    
C7    N21   A    
C74   C76   S    
C79   C94   S    
C55   N30   A    
C51   C57   A    
C94   F10   S    
H19   O19   S    
H5    O5    S    
C74   F4    S    
H16   O16   S    
H6    O6    S    
N30   Ni7   S    
C82   C83   A    
N11   Ni7   S    
C22   C27   S    
C27   C31   S    
N17   Ni4   S    
C6    C80   A    
C104  N7    A    
C31   C35   S    
C74   F39   S    
C3    C21   A    
C23   C28   S    
C104  O29   S    
N12   Ni2   S    
H12   O12   S    
C111  N15   A    
C15   C36   A    
C71   C77   S    
C16   C64   S    
N31   Ni8   S    
C47   O34   S    
C4    F22   S    
C25   O12   S    
C43   C78   S    
C29   C39   S    
C78   F8    S    
C23   O37   S    
C96   F13   S    
H27   O27   S    
N19   Ni5   S    
C1    O1    S    
N1    N22   A    
N6    N15   A    
C77   O11   S    
C22   C23   S    
C18   C110  A    
C24   C26   S    
C77   F7    S    
N32   Ni2   S    
C56   N31   A    
C53   C58   A    
C40   C75   S    
H23   O23   S    
C20   C104  A    
N24   Ni1   S    
C19   C111  A    
C88   O14   S    
H40   O40   S    
C111  F19   S    
N12   N24   A    
C59   C63   A    
N8    N17   A    
H8    O8    S    
C97   N32   A    
C60   C64   A    
C21   C33   S    
C6    F25   S    
C30   F35   S    
N5    Ni6   S    
N16   Ni3   S    
C82   C86   A    
C73   F3    S    
C106  N9    A    
C46   C80   S    
C55   C80   A    
N21   N31   A    
N26   N27   A    
C79   C84   A    
C54   C69   A    
C17   C109  A    
C45   C50   A    
H4    O4    S    
H31   O31   S    
C101  O27   S    
C106  O31   S    
H32   O32   S    
C18   C32   S    
C110  F18   S    
N23   Ni3   S    
C53   O18   S    
C14   C25   A    
H7    O7    S    
C108  O33   S    
C93   F14   S    
C17   C100  A    
C89   O15   S    
C52   O8    S    
N25   Ni4   S    
N1    Ni1   S    
C26   O39   S    
H28   O28   S    
C61   C65   A    
C48   C52   A    
C6    N20   A    
C88   C89   A    
C2    C98   A    
N2    N10   A    
C43   C67   A    
C72   F37   S    
C40   C68   A    
C102  C106  A    
C4    C58   A    
C42   C66   A    
C50   C61   A    
H39   O39   S    
C1    N1    A    
C41   C70   A    
C33   C38   S    
C51   O7    S    
C61   F34   S    
N9    N32   A    
C56   O21   S    
H25   O25   S    
C10   N25   A    
C10   F29   S    
C21   C105  A    
C85   C102  S    
C27   C37   S    
C26   C33   S    
C96   F17   S    
C41   C76   S    
C26   C30   S    
H30   O30   S    
