data_mof_unit_13777.cif
_audit_creation_date              2012-12-11T14:04:14-0500
_audit_creation_method            fapswitch 2.2
_symmetry_space_group_name_H-M    P1
_symmetry_Int_Tables_number       1
_space_group_crystal_system       triclinic
_cell_length_a                    19.064408
_cell_length_b                    10.989292
_cell_length_c                    19.208607
_cell_angle_alpha                 90.054185
_cell_angle_beta                  89.300289
_cell_angle_gamma                 89.634503
_cell_volume                      4023.90258456

loop_
_atom_site_label
_atom_site_type_symbol
_atom_type_description
_atom_site_fract_x
_atom_site_fract_y
_atom_site_fract_z
_atom_type_partial_charge
Br1   Br    Br    0.940271 0.386449 0.064528 -0.446746
Br2   Br    Br    0.046054 0.392020 0.936126 -0.442131
Br3   Br    Br    0.444435 0.888636 0.061665 -0.455903
Br4   Br    Br    0.560447 0.892856 0.939864 -0.455184
Br5   Br    Br    0.345487 0.702784 0.563514 -0.493699
Br6   Br    Br    0.658708 0.697717 0.436910 -0.546877
Br7   Br    Br    0.834455 0.191349 0.558129 -0.519273
Br8   Br    Br    0.154662 0.205085 0.435359 -0.533512
C1    C     C_R   0.239871 0.467528 0.646926 0.596651
C2    C     C_R   0.008431 0.649682 0.572774 -0.014122
C3    C     C_R   0.500302 0.149252 0.425457 -0.017228
C4    C     C_R   0.543384 0.138704 0.564166 -0.016310
C5    C     C_R   0.947258 0.865220 0.447574 -0.087568
C6    C     C_R   0.049893 0.861027 0.545938 -0.093051
C7    C     C_R   0.472767 0.368346 0.447348 -0.090606
C8    C     C_R   0.576769 0.351855 0.545454 -0.085915
C9    C     C_R   0.981431 0.971721 0.463077 -0.079697
C10   C     C_R   0.036366 0.968612 0.510064 -0.111267
C11   C     C_R   0.502784 0.474628 0.472708 -0.088895
C12   C     C_R   0.760803 0.469854 0.354062 0.596678
C13   C     C_R   0.558729 0.466396 0.518515 -0.093278
C14   C     C_R   0.011082 0.754953 0.531720 -0.003074
C15   C     C_R   0.971817 0.754474 0.471512 -0.018682
C16   C     C_R   0.540650 0.247840 0.526520 -0.011663
C17   C     C_R   0.501605 0.253912 0.466485 -0.004925
C18   C     C_R   0.987141 0.536045 0.541802 0.002919
C19   C     C_R   0.983565 0.532519 0.469250 0.013053
C20   C     C_R   0.526731 0.025764 0.529097 0.019408
C21   C     C_R   0.520357 0.034250 0.456062 0.001918
C22   C     C_R   0.976968 0.423679 0.578517 -0.017109
C23   C     C_R   0.740343 0.966603 0.647394 0.588529
C24   C     C_R   0.998010 0.417870 0.436606 0.015266
C25   C     C_R   0.517293 0.905342 0.559091 0.025390
C26   C     C_R   0.527778 0.925865 0.416895 -0.024886
C27   C     C_R   0.986419 0.312446 0.545017 0.007977
C28   C     C_R   0.999130 0.310561 0.474740 0.012632
C29   C     C_R   0.504782 0.803724 0.516687 -0.003760
C30   C     C_R   0.508541 0.816573 0.445190 0.008042
C31   C     C_2   0.234619 0.882558 0.928687 -0.093141
C32   C     C_2   0.759015 0.902580 0.075299 -0.094374
C33   C     C_2   0.736594 0.388824 0.927064 -0.094035
C34   C     C_R   0.260791 0.969438 0.353936 0.601155
C35   C     C_2   0.252713 0.414433 0.078534 -0.094919
C36   C     C_2   0.264028 0.966188 0.070746 -0.093412
C37   C     C_2   0.746522 0.924699 0.923052 -0.096761
C38   C     C_2   0.762480 0.462967 0.071330 -0.092083
C39   C     C_2   0.228521 0.490802 0.932032 -0.101521
C40   C     C_R   0.226667 0.871596 0.646662 0.574134
C41   C     C_R   0.774660 0.868336 0.354768 0.558690
C42   C     C_R   0.727855 0.373875 0.647583 0.555550
C43   C     C_R   0.274905 0.367967 0.354824 0.574998
C44   C     C_2   0.206376 0.997512 0.035447 -0.148947
C45   C     C_2   0.290067 0.839764 0.534057 0.146828
C46   C     C_2   0.805574 0.949832 0.957642 -0.161115
C47   C     C_2   0.705192 0.497621 0.035576 -0.148337
C48   C     C_2   0.288195 0.511164 0.966934 -0.157335
C49   C     C_2   0.191899 0.956480 0.965274 -0.144768
C50   C     C_2   0.812614 0.929314 0.032214 -0.153568
C51   C     C_2   0.689940 0.452247 0.966480 -0.151385
C52   C     C_2   0.298051 0.481591 0.040153 -0.147509
C53   C     C_2   0.000815 0.649860 0.921828 -0.117783
C54   C     C_2   0.966667 0.649111 0.070623 -0.118352
C55   C     C_2   0.521478 0.150217 0.927169 -0.112857
C56   C     C_2   0.715907 0.827394 0.469157 0.137729
C57   C     C_2   0.473868 0.149796 0.071945 -0.113507
C58   C     C_2   0.969746 0.546535 0.031570 0.150007
C59   C     C_2   0.001976 0.547678 0.962251 0.161107
C60   C     C_2   0.479865 0.047393 0.032967 0.158666
C61   C     C_2   0.518170 0.048347 0.966715 0.162245
C62   C     C_R   0.037801 0.651687 0.642007 0.547200
C63   C     C_R   0.942633 0.648841 0.361848 0.547726
C64   C     C_R   0.562839 0.146617 0.638226 0.547478
C65   C     C_R   0.468960 0.152322 0.356623 0.540077
C66   C     C_R   0.224735 0.517455 0.857794 0.549325
C67   C     C_2   0.788820 0.339924 0.533777 0.137259
C68   C     C_R   0.772818 0.508390 0.141107 0.545179
C69   C     C_R   0.736354 0.974861 0.855165 0.544790
C70   C     C_R   0.273021 0.008907 0.141292 0.546018
C71   C     C_R   0.214521 0.841845 0.860495 0.537781
C72   C     C_R   0.774838 0.869255 0.145924 0.548530
C73   C     C_R   0.715366 0.343909 0.860396 0.540400
C74   C     C_R   0.274004 0.370477 0.146254 0.547099
C75   C     C_R   0.032809 0.650206 0.853157 0.552047
C76   C     C_R   0.941524 0.647249 0.141864 0.556850
C77   C     C_R   0.553781 0.147783 0.858671 0.561010
C78   C     C_2   0.213998 0.331368 0.468120 0.141442
C79   C     C_R   0.443717 0.147522 0.141350 0.553273
C80   C     C_2   0.248456 0.909701 0.576296 -0.144806
C81   C     C_2   0.756851 0.898255 0.427504 -0.148274
C82   C     C_2   0.751017 0.413137 0.577513 -0.159887
C83   C     C_2   0.257213 0.398639 0.427226 -0.134676
C84   C     C_2   0.246643 0.916844 0.422321 -0.078951
C85   C     C_2   0.757436 0.905891 0.581776 -0.075595
C86   C     C_2   0.746490 0.419400 0.422947 -0.078160
C87   C     C_2   0.255821 0.407001 0.581073 -0.077618
C88   C     C_2   0.297909 0.864733 0.459163 0.362094
C89   C     C_R   0.966267 0.645165 0.434488 -0.018164
C90   C     C_2   0.708435 0.849321 0.544656 0.351541
C91   C     C_2   0.797419 0.366208 0.459247 0.358122
C92   C     C_2   0.205197 0.356230 0.543014 0.359670
Cr1   Cr    Cr6+3 0.113970 0.508630 0.747920 1.108885
Cr2   Cr    Cr6+3 0.887700 0.820070 0.250200 1.046894
Cr3   Cr    Cr6+3 0.612300 0.320070 0.749800 1.057133
Cr4   Cr    Cr6+3 0.387700 0.320070 0.250200 1.043378
Cr5   Cr    Cr6+3 0.886030 0.508630 0.252080 1.107028
Cr6   Cr    Cr6+3 0.613970 0.008630 0.747920 1.100293
Cr7   Cr    Cr6+3 0.386030 0.008630 0.252080 1.107728
Cr8   Cr    Cr6+3 0.269200 0.666740 0.749850 1.086558
Cr9   Cr    Cr6+3 0.730800 0.666740 0.250150 1.067087
Cr10  Cr    Cr6+3 0.769200 0.166740 0.749850 1.069370
Cr11  Cr    Cr6+3 0.230800 0.166740 0.250150 1.081501
Cr12  Cr    Cr6+3 0.112300 0.820070 0.749800 1.042658
F1    F     F_    0.358230 0.827390 0.427117 -0.610120
F2    F     F_    0.648722 0.809856 0.577044 -0.627322
F3    F     F_    0.855936 0.323528 0.426229 -0.613471
F4    F     F_    0.142008 0.328594 0.572906 -0.606747
H1    H     H_    0.142518 0.988087 0.943686 0.175694
H2    H     H_    0.705538 0.890160 0.058074 0.130597
H3    H     H_    0.789576 0.365724 0.943397 0.134563
H4    H     H_    0.203674 0.378501 0.057899 0.131664
H5    H     H_    0.986211 0.735378 0.051325 0.072466
H6    H     H_    0.977451 0.734575 0.939650 0.060385
H7    H     H_    0.495530 0.235917 0.054771 0.073978
H8    H     H_    0.496784 0.235210 0.943227 0.072568
H9    H     H_    0.195990 0.935938 0.446216 0.079579
H10   H     H_    0.808787 0.922968 0.558887 0.085199
H11   H     H_    0.696556 0.440345 0.447405 0.087053
H12   H     H_    0.865828 0.937847 0.051345 0.167947
H13   H     H_    0.307958 0.419139 0.559168 0.079229
H14   H     H_    0.222184 0.989577 0.555649 0.097993
H15   H     H_    0.786416 0.971727 0.449960 0.109037
H16   H     H_    0.727992 0.496835 0.558003 0.103926
H17   H     H_    0.288148 0.470132 0.449992 0.100989
H18   H     H_    0.966179 0.052256 0.435939 0.154358
H19   H     H_    0.066704 0.049229 0.520080 0.172942
H20   H     H_    0.483977 0.560606 0.452540 0.141763
H21   H     H_    0.586443 0.547445 0.534601 0.186534
H22   H     H_    0.903207 0.868840 0.415613 0.163491
H23   H     H_    0.637237 0.472761 0.947669 0.169641
H24   H     H_    0.092946 0.860094 0.580483 0.167094
H25   H     H_    0.428527 0.379541 0.413940 0.170758
H26   H     H_    0.621052 0.339394 0.575803 0.144329
H27   H     H_    0.013450 0.405178 0.382950 0.174791
H28   H     H_    0.962879 0.418405 0.633100 0.155107
H29   H     H_    0.542646 0.922598 0.362388 0.153443
H30   H     H_    0.515303 0.879496 0.613773 0.189123
H31   H     H_    0.984911 0.227552 0.573942 0.155901
H32   H     H_    0.009472 0.226289 0.448218 0.143082
H33   H     H_    0.495807 0.714559 0.539519 0.153821
H34   H     H_    0.349085 0.508356 0.060762 0.177322
H35   H     H_    0.498477 0.745798 0.408398 0.153994
H36   H     H_    0.165786 0.054702 0.059134 0.178184
H37   H     H_    0.850340 0.990605 0.931323 0.174119
H38   H     H_    0.664958 0.558243 0.058559 0.177841
H39   H     H_    0.333739 0.548594 0.940729 0.178952
H40   H     H_    0.304758 0.910860 0.048311 0.154773
H41   H     H_    0.702257 0.882999 0.947975 0.154896
H42   H     H_    0.801211 0.399512 0.050516 0.155946
H43   H     H_    0.182145 0.458342 0.958323 0.152024
H44   H     H_    0.283325 0.846265 0.948738 0.126985
O1    O     O_R   0.043230 0.549300 0.667990 -0.513120
O2    O     O_R   0.832470 0.905110 0.169660 -0.507554
O3    O     O_R   0.667530 0.405110 0.830340 -0.502954
O4    O     O_R   0.332470 0.405110 0.169660 -0.511511
O5    O     O_R   0.054010 0.748440 0.822860 -0.513421
O6    O     O_R   0.945990 0.748440 0.177140 -0.493231
O7    O     O_R   0.554010 0.248440 0.822860 -0.501680
O8    O     O_R   0.445990 0.248440 0.177140 -0.496938
O9    O     O_3   0.165160 0.665150 0.749190 -0.321748
O10   O     O_3   0.834840 0.665150 0.250810 -0.334007
O11   O     O_3   0.665160 0.165150 0.749190 -0.328222
O12   O     O_R   0.956770 0.549300 0.332010 -0.515509
O13   O     O_3   0.334840 0.165150 0.250810 -0.316578
O14   O     O_R   0.178620 0.457600 0.674100 -0.429122
O15   O     O_R   0.821380 0.457600 0.325900 -0.443003
O16   O     O_R   0.678620 0.957600 0.674100 -0.453902
O17   O     O_R   0.321380 0.957600 0.325900 -0.429146
O18   O     O_R   0.284680 0.542100 0.669460 -0.475421
O19   O     O_R   0.715320 0.542100 0.330540 -0.475517
O20   O     O_R   0.784680 0.042100 0.669460 -0.477584
O21   O     O_R   0.215320 0.042100 0.330540 -0.476024
O22   O     O_R   0.262860 0.790390 0.676650 -0.439358
O23   O     O_R   0.543230 0.049300 0.667990 -0.516655
O24   O     O_R   0.737140 0.790390 0.323350 -0.445157
O25   O     O_R   0.762860 0.290390 0.676650 -0.445994
O26   O     O_R   0.237140 0.290390 0.323350 -0.442584
O27   O     O_R   0.167460 0.907030 0.670940 -0.523009
O28   O     O_R   0.832540 0.907030 0.329060 -0.530066
O29   O     O_R   0.667460 0.407030 0.670940 -0.523314
O30   O     O_R   0.332540 0.407030 0.329060 -0.522610
O31   O     O_R   0.053950 0.750220 0.675100 -0.512578
O32   O     O_R   0.946050 0.750220 0.324900 -0.496557
O33   O     O_R   0.553950 0.250220 0.675100 -0.481104
O34   O     O_R   0.456770 0.049300 0.332010 -0.507525
O35   O     O_R   0.446050 0.250220 0.324900 -0.509103
O36   O     O_R   0.043300 0.547370 0.827390 -0.460186
O37   O     O_R   0.956700 0.547370 0.172610 -0.443055
O38   O     O_R   0.543300 0.047370 0.827390 -0.439261
O39   O     O_R   0.456700 0.047370 0.172610 -0.453815
O40   O     O_R   0.178690 0.455820 0.821860 -0.461917
O41   O     O_R   0.821310 0.455820 0.178140 -0.472195
O42   O     O_R   0.678690 0.955820 0.821860 -0.476032
O43   O     O_R   0.321310 0.955820 0.178140 -0.475502
O44   O     O_R   0.284750 0.540170 0.828860 -0.512539
O45   O     O_R   0.262920 0.788600 0.824420 -0.500017
O46   O     O_R   0.715250 0.540170 0.171140 -0.507412
O47   O     O_R   0.784750 0.040170 0.828860 -0.517498
O48   O     O_R   0.215250 0.040170 0.171140 -0.507931
O49   O     O_R   0.737080 0.788600 0.175580 -0.508385
O50   O     O_R   0.762920 0.288600 0.824420 -0.489963
O51   O     O_R   0.237080 0.288600 0.175580 -0.508701
O52   O     O_R   0.167530 0.905110 0.830340 -0.496001

loop_
_geom_bond_atom_site_label_1
_geom_bond_atom_site_label_2
_ccdc_geom_bond_type
C40   C80   S    
Cr2   O10   S    
C47   H38   S    
C32   H2    S    
Cr10  O25   S    
C50   H12   S    
C8    C13   A    
Cr5   O12   S    
C47   C51   S    
C31   H44   S    
C68   O41   A    
Cr6   O11   S    
C6    C10   A    
Br3   C60   S    
C92   F4    S    
C79   O39   A    
C84   H9    S    
C46   H37   S    
C38   C68   S    
C55   H8    S    
Cr1   O40   S    
C39   H43   S    
C86   H11   S    
C2    C14   A    
C7    C11   A    
C63   C89   S    
C18   C19   A    
C66   O44   A    
C22   C27   A    
C4    C20   A    
Cr12  O52   S    
Br5   C45   S    
C20   C21   A    
C11   C13   A    
C78   C83   D    
C69   O47   A    
C91   F3    S    
C26   H29   S    
C7    C17   A    
C12   O15   A    
Cr4   O8    S    
C3    C17   A    
C34   O17   A    
C31   C49   D    
Cr11  O21   S    
C22   H28   S    
C5    C15   A    
Br6   C56   S    
C75   O36   A    
C42   O29   A    
Cr9   O19   S    
C85   H10   S    
C24   H27   S    
C54   C76   S    
C67   C82   D    
C43   C83   S    
C7    H25   S    
C28   H32   S    
C55   C61   D    
C68   O46   A    
C60   C61   S    
C38   C47   D    
Cr2   O32   S    
C32   C72   S    
Cr1   O9    S    
Cr10  O47   S    
Cr3   O29   S    
C80   H14   S    
C63   O32   A    
C78   C92   S    
C1    C87   S    
Br8   C78   S    
Cr1   O36   S    
Cr2   O2    S    
C35   H4    S    
Cr6   O38   S    
C73   O50   A    
C82   H16   S    
Cr10  O11   S    
C36   C44   D    
Cr5   O37   S    
C58   C59   S    
C4    C64   S    
Cr4   O30   S    
Cr2   O6    S    
Cr11  O13   S    
C65   O34   A    
C55   C77   S    
C45   C88   S    
Cr3   O11   S    
C73   O3    A    
Cr1   O14   S    
Cr10  O50   S    
C56   C81   D    
Cr12  O27   S    
C48   H39   S    
Cr9   O49   S    
Br4   C61   S    
C42   C82   S    
C62   O31   A    
C9    C10   A    
C12   O19   A    
C70   O48   A    
C23   O16   A    
C34   O21   A    
C71   O52   A    
C32   C50   D    
Cr5   O10   S    
C54   C58   D    
C77   O7    A    
C10   H19   S    
C37   H41   S    
C70   O43   A    
C33   C51   D    
C40   O27   A    
Br2   C59   S    
C3    C65   S    
C41   C81   S    
C64   O33   A    
C87   C92   D    
Br7   C67   S    
Cr7   O13   S    
C11   H20   S    
C23   C85   S    
C21   C26   A    
C25   C29   A    
C13   H21   S    
C48   C52   S    
C53   H6    S    
C33   H3    S    
C27   C28   A    
C31   C71   S    
C8    H26   S    
C36   C70   S    
Cr7   O43   S    
C29   C30   A    
Cr6   O42   S    
C41   O24   A    
C75   O5    A    
C53   C59   D    
C36   H40   S    
Cr5   O41   S    
Cr12  O9    S    
C83   H17   S    
Cr10  O20   S    
C44   H36   S    
C57   C60   D    
C33   C73   S    
C67   C91   S    
Br1   C58   S    
Cr8   O18   S    
C1    O14   A    
C27   H31   S    
Cr3   O7    S    
C16   C17   A    
C57   C79   S    
C72   O2    A    
C52   H34   S    
C43   O30   A    
C35   C52   D    
C2    C62   S    
Cr9   O24   S    
C15   C89   A    
C6    H24   S    
C20   C25   A    
C18   C22   A    
C76   O6    A    
C65   O35   A    
C79   O8    A    
C53   C75   S    
C88   F1    S    
C69   O42   A    
C44   C49   S    
C62   O1    A    
C24   C28   A    
C30   H35   S    
Cr9   O10   S    
C49   H1    S    
C74   O51   A    
C46   C50   S    
C12   C86   S    
C19   C89   A    
Cr11  O26   S    
C19   C24   A    
C26   C30   A    
Cr7   O39   S    
C39   C66   S    
C29   H33   S    
Cr8   O45   S    
C37   C46   D    
Cr4   O13   S    
C5    C9    A    
C76   O37   A    
C4    C16   A    
C51   H23   S    
Cr3   O3    S    
C81   H15   S    
Cr8   O22   S    
C23   O20   A    
C5    H22   S    
C6    C14   A    
Cr1   O1    S    
Cr8   O44   S    
C43   O26   A    
C71   O45   A    
Cr12  O31   S    
C40   O22   A    
C2    C18   A    
Cr4   O4    S    
C66   O40   A    
C41   O28   A    
C74   O4    A    
C86   C91   D    
Cr12  O5    S    
C85   C90   D    
C56   C90   S    
Cr4   O35   S    
C84   C88   D    
C45   C80   D    
C34   C84   S    
C57   H7    S    
Cr9   O46   S    
C63   O12   A    
Cr11  O51   S    
Cr6   O23   S    
C90   F2    S    
C25   H30   S    
C77   O38   A    
C3    C21   A    
C8    C16   A    
Cr5   O15   S    
C9    H18   S    
C87   H13   S    
C35   C74   S    
Cr6   O16   S    
C14   C15   A    
C39   C48   D    
C37   C69   S    
Cr3   O33   S    
Cr2   O28   S    
Cr8   O9    S    
C42   O25   A    
Cr11  O48   S    
C54   H5    S    
Cr7   O17   S    
C1    O18   A    
Cr7   O34   S    
C72   O49   A    
C64   O23   A    
C38   H42   S    
