data_mof_unit_15846.cif
_audit_creation_date              2012-12-11T17:07:31-0500
_audit_creation_method            fapswitch 2.2
_symmetry_space_group_name_H-M    P1
_symmetry_Int_Tables_number       1
_space_group_crystal_system       triclinic
_cell_length_a                    6.972703
_cell_length_b                    14.541972
_cell_length_c                    16.05913
_cell_angle_alpha                 89.970463
_cell_angle_beta                  89.921081
_cell_angle_gamma                 90.111826
_cell_volume                      1628.3403598

loop_
_atom_site_label
_atom_site_type_symbol
_atom_type_description
_atom_site_fract_x
_atom_site_fract_y
_atom_site_fract_z
_atom_type_partial_charge
O1    O     O_R   0.505720 0.583900 0.413310 -0.537976
O2    O     O_R   0.175940 0.594920 0.586080 -0.551100
O3    O     O_R   0.005640 0.416100 0.586690 -0.536641
C1    C     C_R   0.344735 0.616950 0.614784 0.680596
O4    O     O_R   0.176000 0.594930 0.413930 -0.534104
O5    O     O_R   0.005700 0.416110 0.413310 -0.527136
C2    C     C_R   0.344953 0.616469 0.384801 0.712556
O6    O     O_R   0.505660 0.583890 0.586690 -0.541466
O7    O     O_3   0.339200 0.441330 0.500000 -0.354486
V1    V     V_3+5 0.064350 0.510880 0.500000 1.442343
O8    O     O_R   0.675980 0.405080 0.413920 -0.530331
C3    C     C_R   0.845095 0.382407 0.385785 0.743180
O9    O     O_R   0.675920 0.405070 0.586070 -0.539172
C4    C     C_R   0.844659 0.383327 0.614718 0.685034
V2    V     V_3+5 0.564340 0.489120 0.500000 1.465478
O10   O     O_3   0.839360 0.558670 0.500000 -0.378598
H1    H     H_    0.627089 0.080104 0.518240 0.110046
C5    C     C_R   0.982970 0.434286 0.778501 -0.147575
C6    C     C_R   0.048431 0.461450 0.856649 -0.126795
C7    C     C_R   0.057291 0.398258 0.921436 -0.069289
C8    C     C_R   0.001673 0.307331 0.908438 -0.099454
C9    C     C_R   0.936852 0.277336 0.829415 0.061399
C10   C     C_R   0.925921 0.342335 0.763138 0.071737
C11   C     C_R   0.879667 0.184821 0.816285 -0.178595
C12   C     C_R   0.810240 0.157520 0.736950 0.071872
C13   C     C_R   0.797742 0.222693 0.670856 0.065691
C14   C     C_R   0.855296 0.315217 0.683893 -0.177918
C15   C     C_R   0.756138 0.065185 0.721327 -0.143004
C16   C     C_R   0.689626 0.038093 0.643340 -0.132144
C17   C     C_R   0.677469 0.101635 0.578933 -0.113480
C18   C     C_R   0.731720 0.192750 0.592020 -0.123864
H2    H     H_    0.976827 0.486434 0.730649 0.105211
H3    H     H_    0.091268 0.532125 0.867072 0.123968
H4    H     H_    0.106741 0.419848 0.982260 0.152132
H5    H     H_    0.008782 0.261332 0.961284 0.122188
H6    H     H_    0.766069 0.012608 0.768750 0.097979
H7    H     H_    0.648674 0.967199 0.632715 0.111057
H8    H     H_    0.722758 0.238908 0.539354 0.110371
C19   C     C_R   0.716845 0.191129 0.234116 -0.008775
C20   C     C_R   0.880096 0.184261 0.184012 -0.073073
C21   C     C_R   0.032929 0.243656 0.201951 -0.154040
H9    H     H_    0.155452 0.244163 0.161754 0.159777
C22   C     C_R   0.021928 0.307605 0.267505 -0.036855
H10   H     H_    0.137875 0.356179 0.275698 0.158183
C23   C     C_R   0.858196 0.312697 0.318668 -0.114660
C24   C     C_R   0.708628 0.251052 0.302256 0.003471
C25   C     C_3   0.504210 0.273810 0.285088 0.166223
C26   C     C_3   0.517462 0.213845 0.207510 -0.080224
H11   H     H_    0.480117 0.348131 0.272859 0.154551
H12   H     H_    0.422375 0.152393 0.208107 0.123217
C27   C     C_R   0.508274 0.683973 0.740587 0.117159
C28   C     C_R   0.352779 0.682560 0.685416 -0.115106
C29   C     C_R   0.200663 0.743587 0.701651 -0.188460
H13   H     H_    0.077685 0.745142 0.660872 0.135116
C30   C     C_R   0.211864 0.807838 0.767141 -0.174611
H14   H     H_    0.096477 0.856646 0.775029 0.129529
C31   C     C_R   0.375860 0.813218 0.818226 -0.114667
C32   C     C_R   0.519768 0.747787 0.805208 0.113010
C33   C     C_3   0.729128 0.762034 0.791882 -0.413268
C34   C     C_3   0.716729 0.692328 0.721760 -0.404660
H15   H     H_    0.815740 0.737774 0.845615 0.181758
H16   H     H_    0.762174 0.832787 0.769879 0.159445
H17   H     H_    0.795570 0.627767 0.735161 0.168150
H18   H     H_    0.743263 0.722451 0.659140 0.164996
C35   C     C_R   0.503307 0.680721 0.255663 0.123803
C36   C     C_R   0.352940 0.681885 0.313931 -0.129727
C37   C     C_R   0.202997 0.744960 0.299924 -0.144948
H19   H     H_    0.082088 0.747600 0.342048 0.126332
C38   C     C_R   0.213366 0.809467 0.234517 -0.173015
H20   H     H_    0.099606 0.859411 0.228027 0.121498
C39   C     C_R   0.375069 0.813534 0.181808 -0.109504
C40   C     C_R   0.515029 0.745958 0.192377 0.086466
C41   C     C_3   0.726486 0.755513 0.200856 -0.428705
C42   C     C_3   0.715362 0.682062 0.268215 -0.002734
H21   H     H_    0.767635 0.824243 0.225284 0.140811
H22   H     H_    0.803616 0.734012 0.143514 0.206526
H23   H     H_    0.756241 0.706946 0.331148 0.109555
O11   O     O_R   0.229140 0.916090 0.913340 -0.541576
O12   O     O_R   0.558860 0.905090 0.086080 -0.542105
O13   O     O_R   0.729100 0.083920 0.086690 -0.525131
C43   C     C_R   0.389587 0.883585 0.115139 0.695282
O14   O     O_R   0.558860 0.905090 0.913930 -0.543641
O15   O     O_R   0.729100 0.083920 0.913310 -0.528364
C44   C     C_R   0.389791 0.883345 0.884998 0.697936
O16   O     O_R   0.229140 0.916080 0.086720 -0.541740
O17   O     O_3   0.395570 0.058660 0.000020 -0.351659
V3    V     V_3+5 0.670450 0.989140 0.000000 1.434590
O18   O     O_R   0.058810 0.094980 0.913910 -0.539182
C45   C     C_R   0.890084 0.116782 0.885401 0.701902
O19   O     O_R   0.058810 0.094980 0.086060 -0.547916
C46   C     C_R   0.889827 0.117592 0.114253 0.712495
V4    V     V_3+5 0.170450 0.010950 0.999970 1.433848
O20   O     O_3   0.895460 0.941370 0.999990 -0.376718
O21   O     O_3   0.380780 0.238561 0.346943 -0.643600
H24   H     H_    0.411506 0.172670 0.356356 0.284509
I1    I     I_    0.515305 0.295297 0.094294 -0.431846
I2    I     I_    0.843728 0.555706 0.229145 -0.419332

loop_
_geom_bond_atom_site_label_1
_geom_bond_atom_site_label_2
_ccdc_geom_bond_type
O15   V3    S    
C30   H14   S    
C21   C22   A    
C21   H9    S    
C6    C7    A    
C1    O6    A    
C11   C45   S    
O12   V3    S    
C31   C32   A    
C25   H11   S    
C29   H13   S    
C12   C15   A    
C13   C14   A    
C1    C28   S    
C34   H17   S    
C15   C16   A    
O13   V3    S    
O5    C3    A    
C17   C18   A    
O14   V3    S    
C5    C6    A    
C41   C42   S    
C38   C39   A    
O8    V2    S    
O18   V4    S    
C42   H23   S    
O1    V2    S    
C10   C14   A    
C4    C14   S    
O7    V1    S    
C7    H4    S    
C26   H12   S    
C36   C37   A    
C13   C18   A    
C8    C9    A    
H1    C17   S    
C41   H21   S    
C38   H20   S    
O4    V1    S    
O16   V4    S    
C42   I2    S    
C29   C30   A    
O15   C45   A    
C33   H15   S    
C5    C10   A    
C11   C12   A    
C6    H3    S    
C19   C20   A    
O4    C2    A    
O17   V3    S    
C40   C41   S    
O11   V4    S    
C12   C13   A    
C23   C24   A    
C35   C42   S    
C37   H19   S    
C37   C38   A    
O2    C1    A    
C22   H10   S    
C16   C17   A    
O19   V4    S    
C25   C26   S    
C31   C44   S    
C27   C32   A    
O18   C45   A    
C22   C23   A    
O3    C4    A    
C19   C24   A    
C20   C21   A    
O6    V2    S    
O14   C44   A    
C30   C31   A    
C41   H22   S    
C9    C11   A    
C5    H2    S    
O2    V1    S    
C28   C29   A    
O12   C43   A    
C24   C25   S    
C33   H16   S    
C26   I1    S    
O1    C2    A    
C3    C23   S    
O5    V1    S    
O8    C3    A    
C8    H5    S    
C35   C40   A    
C18   H8    S    
C34   H18   S    
O13   C46   A    
O9    V2    S    
C32   C33   S    
C27   C28   A    
O3    V1    S    
V1    O10   S    
C2    C36   S    
O19   C46   A    
V3    O20   S    
V4    O20   S    
C25   O21   S    
C20   C46   S    
O7    V2    S    
O21   H24   S    
O11   C44   A    
C33   C34   S    
C39   C40   A    
C7    C8    A    
C15   H6    S    
C35   C36   A    
C16   H7    S    
C9    C10   A    
O17   V4    S    
C27   C34   S    
O9    C4    A    
C43   O16   A    
V2    O10   S    
C19   C26   S    
C39   C43   S    
