data_mof_unit_28496.cif
_audit_creation_date              2012-12-10T17:26:16-0500
_audit_creation_method            fapswitch 2.2
_symmetry_space_group_name_H-M    P1
_symmetry_Int_Tables_number       1
_space_group_crystal_system       triclinic
_cell_length_a                    10.158592
_cell_length_b                    10.367264
_cell_length_c                    27.643795
_cell_angle_alpha                 91.101578
_cell_angle_beta                  82.240906
_cell_angle_gamma                 95.010942
_cell_volume                      2873.59449826

loop_
_atom_site_label
_atom_site_type_symbol
_atom_type_description
_atom_site_fract_x
_atom_site_fract_y
_atom_site_fract_z
_atom_type_partial_charge
C1    C     C_R   0.555058 0.735599 0.498956 0.889100
C2    C     C_R   0.516017 0.631482 0.126471 -0.030676
C3    C     C_R   0.501642 0.498557 0.646857 -0.134008
C4    C     C_R   0.495008 0.506112 0.353658 -0.119062
C5    C     C_R   0.488690 0.638283 0.026163 0.060472
C6    C     C_R   0.406585 0.408086 0.979456 0.055226
C7    C     C_R   0.383099 0.416673 0.031047 -0.085249
C8    C     C_R   0.474013 0.640605 0.975945 -0.081760
C9    C     C_R   0.439514 0.526994 0.053914 0.046347
C10   C     C_R   0.448253 0.521419 0.951949 0.045935
C11   C     C_R   0.560223 0.740033 0.048290 -0.339955
C12   C     C_R   0.445654 0.265086 0.507228 0.872018
C13   C     C_R   0.399158 0.288026 0.955026 -0.333404
C14   C     C_R   0.572964 0.739004 0.098022 0.496256
C15   C     C_R   0.418288 0.279516 0.904052 0.490760
C16   C     C_R   0.500909 0.499394 0.593989 0.910419
C17   C     C_R   0.498696 0.500759 0.406130 0.892365
C18   C     C_R   0.489442 0.756709 0.948493 0.277114
C19   C     C_R   0.309786 0.317208 0.060586 0.281840
C20   C     C_2   0.583570 0.874034 0.507690 -0.049750
C21   C     C_2   0.419453 0.129577 0.522978 -0.054759
C22   C     C_2   0.510181 0.931863 0.545425 0.189793
C23   C     C_R   0.466113 0.515145 0.900472 -0.220560
C24   C     C_2   0.510851 0.074159 0.545957 0.212976
C25   C     C_2   0.930679 0.526260 0.498726 0.159552
C26   C     C_2   0.076140 0.504267 0.490205 0.155493
C27   C     C_R   0.521542 0.619789 0.821880 0.569685
C28   C     C_R   0.413381 0.413223 0.181783 0.587499
C29   C     C_R   0.465970 0.391197 0.825165 0.534253
C30   C     C_R   0.525424 0.625823 0.176581 0.540576
C31   C     C_R   0.611582 0.458447 0.717197 0.252281
C32   C     C_R   0.385097 0.570640 0.286397 0.221293
C33   C     C_R   0.610591 0.457384 0.666714 -0.257475
C34   C     C_R   0.449572 0.524848 0.104292 -0.219365
C35   C     C_R   0.391083 0.563970 0.336310 -0.224253
C36   C     C_R   0.391527 0.538338 0.677848 -0.233512
C37   C     C_R   0.593568 0.453224 0.320844 -0.284642
C38   C     C_R   0.389815 0.538223 0.728220 0.228420
C39   C     C_R   0.588544 0.457544 0.270701 0.241966
C40   C     C_R   0.500746 0.499551 0.747915 0.171706
C41   C     C_R   0.484002 0.516071 0.253548 0.206842
C42   C     C_3   0.188093 0.061903 0.548982 -0.810738
C43   C     C_3   0.812231 0.946011 0.477660 -0.807066
C44   C     C_3   0.127201 0.302377 0.447555 -0.720135
C45   C     C_R   0.502212 0.629781 0.873082 -0.142208
C46   C     C_3   0.862297 0.634456 0.576232 -0.712595
C47   C     C_3   0.252664 0.710348 0.760269 -0.686991
C48   C     C_3   0.802687 0.482863 0.220960 -0.719126
C49   C     C_3   0.272228 0.764469 0.278569 -0.716011
C50   C     C_3   0.758244 0.289845 0.728864 -0.699058
C51   C     C_3   0.663001 0.122820 0.606723 -0.816931
C52   C     C_3   0.411393 0.889556 0.630189 -0.799797
C53   C     C_R   0.395704 0.414966 0.132229 -0.142806
C54   C     C_R   0.512625 0.751037 0.897197 0.475900
C55   C     C_R   0.322758 0.312232 0.110553 0.485641
C56   C     C_R   0.449938 0.393868 0.876429 -0.038601
H1    H     H_    0.305756 0.568884 0.663122 0.181088
H2    H     H_    0.103175 0.997363 0.538574 0.234003
H3    H     H_    0.157830 0.162243 0.553316 0.249193
H4    H     H_    0.211514 0.029719 0.584632 0.254295
H5    H     H_    0.654851 0.929613 0.437225 0.225823
H6    H     H_    0.870752 0.026226 0.456265 0.237222
H7    H     H_    0.848473 0.853103 0.463184 0.253015
H8    H     H_    0.828659 0.958588 0.516491 0.247306
H9    H     H_    0.093531 0.474414 0.415489 0.203058
H10   H     H_    0.227694 0.274078 0.432801 0.249061
H11   H     H_    0.055197 0.256263 0.424212 0.194462
H12   H     H_    0.673430 0.407145 0.334064 0.168788
H13   H     H_    0.099446 0.264657 0.485191 0.231437
H14   H     H_    0.952836 0.722499 0.512211 0.192961
H15   H     H_    0.764898 0.673618 0.588231 0.255150
H16   H     H_    0.938926 0.695312 0.593502 0.191366
H17   H     H_    0.860080 0.533638 0.589393 0.229845
H18   H     H_    0.253908 0.529371 0.792458 0.229626
H19   H     H_    0.254361 0.749048 0.797971 0.257871
H20   H     H_    0.153733 0.722623 0.749034 0.234483
H21   H     H_    0.330521 0.768264 0.735700 0.255254
H22   H     H_    0.709714 0.311481 0.250125 0.242860
H23   H     H_    0.118082 0.596285 0.551365 0.150389
H24   H     H_    0.870399 0.430484 0.194050 0.249323
H25   H     H_    0.856539 0.514088 0.252206 0.235019
H26   H     H_    0.775344 0.569289 0.202832 0.276464
H27   H     H_    0.563389 0.937235 0.891169 0.382031
H28   H     H_    0.226126 0.140025 0.118527 0.381850
H29   H     H_    0.256843 0.599673 0.235179 0.230625
H30   H     H_    0.182107 0.797705 0.265629 0.245059
H31   H     H_    0.361939 0.817965 0.258461 0.280247
H32   H     H_    0.267100 0.787044 0.318157 0.230015
H33   H     H_    0.740913 0.460130 0.770509 0.234131
H34   H     H_    0.874109 0.367021 0.462105 0.150115
H35   H     H_    0.750349 0.240176 0.764528 0.262950
H36   H     H_    0.862015 0.288865 0.710268 0.230899
H37   H     H_    0.690052 0.234379 0.706267 0.246617
H38   H     H_    0.674710 0.908417 0.094024 0.336732
H39   H     H_    0.380626 0.091396 0.905636 0.352267
H40   H     H_    0.406171 0.862407 0.000500 0.355754
H41   H     H_    0.180221 0.272998 0.016206 0.351972
H42   H     H_    0.705368 0.156188 0.532549 0.260546
H43   H     H_    0.747245 0.192917 0.613958 0.234392
H44   H     H_    0.696381 0.023707 0.607148 0.244289
H45   H     H_    0.313669 0.603600 0.361617 0.171608
H46   H     H_    0.578485 0.134435 0.635945 0.259298
H47   H     H_    0.322927 0.840555 0.568080 0.257749
H48   H     H_    0.336939 0.821283 0.651753 0.235957
H49   H     H_    0.380726 0.989101 0.637211 0.247259
H50   H     H_    0.509894 0.880336 0.642317 0.260690
H51   H     H_    0.695146 0.424522 0.643189 0.176344
H52   H     H_    0.612247 0.819117 0.026629 0.198344
H53   H     H_    0.383361 0.198825 0.975424 0.210837
H54   H     H_    0.278820 0.076436 0.477575 0.221914
N1    N     N_R   0.499645 0.502944 0.799602 -0.384330
N2    N     N_2   0.685197 0.398182 0.237584 -0.296954
N3    N     N_2   0.276090 0.626740 0.269767 -0.312732
N4    N     N_2   0.726091 0.422756 0.736642 -0.309219
N5    N     N_2   0.624975 0.149709 0.559708 -0.287342
N6    N     N_2   0.416010 0.856438 0.579056 -0.303547
N7    N     N_R   0.476221 0.517570 0.202416 -0.369598
N8    N     N_2   0.842700 0.448890 0.480020 -0.200542
N9    N     N_2   0.157300 0.551110 0.519980 -0.201863
N10   N     N_2   0.302058 0.056208 0.511644 -0.322899
N11   N     N_2   0.672749 0.948854 0.472610 -0.327165
N12   N     N_2   0.127688 0.442047 0.446191 -0.250402
N13   N     N_2   0.891228 0.641313 0.523515 -0.256668
N14   N     N_2   0.274355 0.573961 0.758934 -0.315368
O1    O     O_R   0.431060 0.692470 0.504020 -0.612772
O2    O     O_2   0.367735 0.309088 0.209637 -0.478371
O3    O     O_2   0.582864 0.727099 0.199755 -0.494822
O4    O     O_2   0.446110 0.278878 0.800652 -0.470801
O5    O     O_3   0.538885 0.863310 0.870007 -0.671618
O6    O     O_3   0.259973 0.210937 0.139259 -0.685465
O7    O     O_3   0.643130 0.840981 0.118877 -0.689559
O8    O     O_3   0.407821 0.160200 0.880972 -0.681216
O9    O     O_3   0.469951 0.875963 0.970201 -0.800424
O10   O     O_3   0.216063 0.230665 0.042912 -0.782377
O11   O     O_R   0.568940 0.307530 0.495980 -0.607388
O12   O     O_R   0.651120 0.659650 0.491200 -0.566855
O13   O     O_R   0.348880 0.340350 0.508800 -0.585314
O14   O     O_R   0.389980 0.516390 0.577660 -0.615607
O15   O     O_R   0.610020 0.483610 0.422340 -0.610096
O16   O     O_R   0.610040 0.483570 0.564830 -0.596289
O17   O     O_R   0.389960 0.516430 0.435170 -0.586159
O18   O     O_2   0.560389 0.725482 0.794086 -0.480138
Zn1   Zn    Zn3+2 0.353060 0.521910 0.508560 0.947489
Zn2   Zn    Zn3+2 0.646940 0.478090 0.491440 0.955323

loop_
_geom_bond_atom_site_label_1
_geom_bond_atom_site_label_2
_ccdc_geom_bond_type
C49   N3    S    
C23   C45   A    
N9    Zn1   S    
C49   H31   S    
H18   N14   S    
C33   H51   S    
C42   N10   S    
C25   N8    D    
C42   H2    S    
C47   N14   S    
C43   H7    S    
C23   C56   A    
C39   C41   A    
C31   C40   A    
C19   O10   S    
H34   N8    S    
H5    N11   S    
C1    O1    A    
C47   H20   S    
H27   O5    S    
C21   N10   S    
N8    Zn2   S    
C28   N7    A    
O17   Zn1   S    
O11   Zn2   S    
C11   C14   A    
C3    C33   A    
C37   H12   S    
C27   O18   S    
C48   H25   S    
C18   O9    S    
C17   O17   A    
H28   O6    S    
C13   H53   S    
C30   O3    S    
C44   H10   S    
H14   N13   S    
C15   O8    S    
C22   N6    S    
C12   O11   A    
H23   N9    S    
C32   C41   A    
C31   C33   A    
C32   N3    S    
C1    O12   A    
C43   N11   S    
C31   N4    S    
C46   H16   S    
C27   C45   A    
C29   C56   A    
C52   N6    S    
O13   Zn1   S    
C4    C35   A    
C27   N1    A    
C49   H32   S    
C16   O16   A    
H41   O10   S    
C28   O2    S    
C43   H8    S    
C40   N1    S    
C14   O7    S    
C53   C55   A    
C51   H43   S    
C32   C35   A    
C26   N9    D    
C36   H1    S    
H54   N10   S    
C25   C26   S    
C12   C21   S    
C8    C18   A    
C51   H46   S    
C5    C9    A    
O15   Zn2   S    
C55   O6    S    
C46   H15   S    
C44   H13   S    
C17   O15   A    
H9    N12   S    
C25   N13   S    
C20   N11   S    
H40   O9    S    
C34   C53   A    
C4    C17   S    
C50   H36   S    
C39   N2    S    
C48   N2    S    
C20   C22   D    
C45   C54   A    
C7    C19   A    
H29   N3    S    
C13   C15   A    
C9    C34   A    
C22   C24   S    
C46   N13   S    
C21   C24   D    
C47   H21   S    
C42   H4    S    
C19   C55   A    
C51   H44   S    
C7    C9    A    
C54   O5    S    
H33   N4    S    
C52   H48   S    
C1    C20   S    
C49   H30   S    
C29   N1    A    
C8    C10   A    
C16   O14   A    
O16   Zn2   S    
C35   H45   S    
C42   H3    S    
C52   H49   S    
C5    C8    A    
C28   C53   A    
C50   H37   S    
C5    C11   A    
C6    C7    A    
C30   N7    A    
C10   C23   A    
H38   O7    S    
C2    C30   A    
O14   Zn1   S    
C41   N7    S    
C15   C56   A    
C48   H24   S    
C36   C38   A    
H47   N6    S    
C47   H19   S    
O12   Zn2   S    
C6    C13   A    
C38   C40   A    
C2    C34   A    
H42   N5    S    
H39   O8    S    
C3    C36   A    
O1    Zn1   S    
C44   N12   S    
C48   H26   S    
C2    C14   A    
C51   N5    S    
C6    C10   A    
C18   C54   A    
C52   H50   S    
C50   H35   S    
C4    C37   A    
C24   N5    S    
C37   C39   A    
C29   O4    S    
C11   H52   S    
C12   O13   A    
C44   H11   S    
H22   N2    S    
C26   N12   S    
C50   N4    S    
C46   H17   S    
C38   N14   S    
C3    C16   S    
C43   H6    S    
