data_mof_unit_53866.cif
_audit_creation_date              2012-12-10T17:18:56-0500
_audit_creation_method            fapswitch 2.2
_symmetry_space_group_name_H-M    P1
_symmetry_Int_Tables_number       1
_space_group_crystal_system       triclinic
_cell_length_a                    9.614316
_cell_length_b                    10.86064
_cell_length_c                    13.38449
_cell_angle_alpha                 92.975888
_cell_angle_beta                  73.262978
_cell_angle_gamma                 90.22679
_cell_volume                      1336.47745325

loop_
_atom_site_label
_atom_site_type_symbol
_atom_type_description
_atom_site_fract_x
_atom_site_fract_y
_atom_site_fract_z
_atom_type_partial_charge
C1    C     C_R   0.502469 0.736825 0.491315 0.823856
C2    C     C_R   0.445843 0.425652 0.971467 0.071133
C3    C     C_R   0.490416 0.425742 0.860935 0.090640
C4    C     C_R   0.551942 0.443562 0.025818 0.069554
C5    C     C_R   0.700659 0.448010 0.968538 0.164049
C6    C     C_R   0.743206 0.420152 0.861401 -0.205097
C7    C     C_R   0.639161 0.404482 0.808749 -0.129574
C8    C     C_R   0.514531 0.464217 0.134627 -0.257071
C9    C     C_R   0.766751 0.496449 0.127277 -0.200657
C10   C     C_R   0.384160 0.445340 0.807551 -0.110611
C11   C     C_R   0.254168 0.881126 0.454407 -0.169956
C12   C     C_R   0.424066 0.483385 0.697890 0.809454
C13   C     C_R   0.120389 0.941775 0.477204 -0.123412
C14   C     C_R   0.101381 0.056857 0.529673 -0.117966
C15   C     C_R   0.220045 0.116617 0.549320 -0.164531
C16   C     C_R   0.360912 0.062122 0.515011 0.096689
C17   C     C_R   0.372297 0.935993 0.483093 0.096698
C18   C     C_R   0.501462 0.870761 0.480878 -0.135717
C19   C     C_R   0.626453 0.936439 0.481619 -0.173804
C20   C     C_R   0.622384 0.063657 0.492411 -0.215275
C21   C     C_R   0.490921 0.128107 0.509693 -0.110063
C22   C     C_R   0.910304 0.333865 0.362231 -0.149143
C23   C     C_R   0.496607 0.262664 0.505821 0.760175
C24   C     C_R   0.008549 0.251239 0.295920 -0.225715
C25   C     C_R   0.151667 0.250383 0.296532 -0.216680
C26   C     C_R   0.197645 0.332570 0.363057 -0.145683
C27   C     C_R   0.101036 0.417440 0.432996 0.200243
C28   C     C_R   0.951619 0.417665 0.432863 0.177663
C29   C     C_R   0.903048 0.580168 0.563170 0.049524
C30   C     C_R   0.050571 0.579098 0.562837 -0.126509
C31   C     C_R   0.577465 0.498465 0.300053 0.771869
C32   C     C_R   0.805482 0.478878 0.019046 -0.197542
C33   C     C_R   0.621053 0.487347 0.185679 -0.043704
C34   C     C_R   0.237149 0.429142 0.861369 -0.198176
C35   C     C_R   0.196381 0.402756 0.966536 -0.150417
C36   C     C_R   0.297600 0.407167 0.022489 -0.182291
Cu1   Cu    Cu3+1 0.359340 0.500010 0.500010 0.919218
Cu2   Cu    Cu3+1 0.640660 0.499990 0.499990 0.945491
H1    H     H_    0.850351 0.517432 0.165005 0.159328
H2    H     H_    0.264399 0.793579 0.410704 0.166661
H3    H     H_    0.030648 0.898152 0.456138 0.161741
H4    H     H_    0.995506 0.101371 0.552771 0.141190
H5    H     H_    0.198351 0.203977 0.593453 0.162574
H6    H     H_    0.723069 0.111442 0.487583 0.167877
H7    H     H_    0.803848 0.328586 0.354075 0.202890
H8    H     H_    0.973330 0.188018 0.243040 0.154423
H9    H     H_    0.228369 0.186464 0.244160 0.156208
H10   H     H_    0.310303 0.325953 0.355579 0.202307
H11   H     H_    0.857205 0.412363 0.817819 0.136793
H12   H     H_    0.087467 0.644067 0.613643 0.157590
H13   H     H_    0.916666 0.491596 0.973858 0.133141
H14   H     H_    0.402628 0.464672 0.181088 0.155333
H15   H     H_    0.153852 0.434690 0.821828 0.148101
H16   H     H_    0.257572 0.391155 0.104599 0.138835
H17   H     H_    0.085368 0.381326 0.006600 0.139937
H18   H     H_    0.678289 0.374672 0.727316 0.175497
H19   H     H_    0.728677 0.889595 0.472335 0.201688
N1    N     N_R   0.852480 0.498790 0.499000 -0.248151
N2    N     N_R   0.148360 0.498710 0.498970 -0.210951
O1    O     O_R   0.381190 0.680360 0.500010 -0.586529
O2    O     O_R   0.618760 0.680340 0.500000 -0.558462
O3    O     O_R   0.323240 0.499990 0.650990 -0.581589
O4    O     O_R   0.560820 0.499960 0.650980 -0.559394
O5    O     O_R   0.381240 0.319660 0.500000 -0.611611
O6    O     O_R   0.618810 0.319640 0.499990 -0.611649
O7    O     O_R   0.439180 0.500040 0.349020 -0.604969
O8    O     O_R   0.676760 0.500010 0.349010 -0.602813
C37   C     C_2   0.809432 0.675974 0.631320 0.894536
O9    O     O_2   0.815428 0.781512 0.603284 -0.646809
O10   O     O_R   0.726940 0.649906 0.731894 -0.758364
H20   H     H_    0.670641 0.724425 0.772069 0.327977

loop_
_geom_bond_atom_site_label_1
_geom_bond_atom_site_label_2
_ccdc_geom_bond_type
C31   O7    A    
C2    C4    A    
C24   C25   A    
C31   C33   S    
C32   H13   S    
O10   H20   S    
C28   N1    A    
C29   C37   S    
C12   O3    A    
C25   H9    S    
C19   C20   A    
Cu2   O6    S    
C26   H10   S    
C14   H4    S    
Cu2   O2    S    
C24   H8    S    
C30   N2    A    
Cu1   N2    S    
C13   H3    S    
C2    C3    A    
C30   H12   S    
C15   H5    S    
C10   C34   A    
C3    C10   A    
C27   N2    A    
C13   C14   A    
C29   N1    A    
C31   O8    A    
C11   C13   A    
C23   O6    A    
C1    C18   S    
C16   C21   A    
C10   C12   S    
C7    H18   S    
C9    C33   A    
C19   H19   S    
C5    C6    A    
C25   C26   A    
C23   O5    A    
C20   H6    S    
Cu1   Cu2   S    
C17   C18   A    
C6    C7    A    
C3    C7    A    
C8    C33   A    
C21   C23   S    
C6    H11   S    
C26   C27   A    
C11   H2    S    
C22   C24   A    
Cu1   O1    S    
C36   H16   S    
Cu1   O7    S    
C29   C30   A    
C15   C16   A    
Cu2   O8    S    
C8    H14   S    
C9    H1    S    
C22   H7    S    
C20   C21   A    
C34   H15   S    
C37   O10   S    
C34   C35   A    
C1    O1    A    
C2    C36   A    
C4    C8    A    
C12   O4    A    
Cu1   O3    S    
C14   C15   A    
C18   C19   A    
C22   C28   A    
C9    C32   A    
Cu1   O5    S    
Cu2   O4    S    
C35   H17   S    
Cu2   N1    S    
C37   O9    D    
C5    C32   A    
C11   C17   A    
C35   C36   A    
C16   C17   A    
C4    C5    A    
C27   C28   A    
C1    O2    A    
