data_mof_unit_22697.cif
_audit_creation_date              2012-12-11T16:05:10-0500
_audit_creation_method            fapswitch 2.2
_symmetry_space_group_name_H-M    P1
_symmetry_Int_Tables_number       1
_space_group_crystal_system       triclinic
_cell_length_a                    10.682504
_cell_length_b                    10.63725
_cell_length_c                    16.933385
_cell_angle_alpha                 98.625128
_cell_angle_beta                  98.628527
_cell_angle_gamma                 61.474547
_cell_volume                      1664.65355287

loop_
_atom_site_label
_atom_site_type_symbol
_atom_type_description
_atom_site_fract_x
_atom_site_fract_y
_atom_site_fract_z
_atom_type_partial_charge
C1    C     C_R   0.355021 0.774697 0.398367 0.538509
C2    C     C_3   0.415789 0.684990 0.252765 -0.112725
C3    C     C_3   0.348849 0.809039 0.317990 0.056487
C4    C     C_R   0.371568 0.347365 0.358495 0.536962
C5    C     C_3   0.409844 0.894620 0.287082 -0.125018
C6    C     C_3   0.269231 0.964424 0.233025 -0.114657
C7    C     C_3   0.209255 0.877542 0.265034 -0.122737
C8    C     C_3   0.274647 0.754768 0.198955 -0.113861
C9    C     C_3   0.333786 0.841295 0.167194 0.057915
C10   C     C_3   0.457721 0.252114 0.772327 0.254116
C11   C     C_3   0.406920 0.392547 0.734436 -0.086737
C12   C     C_3   0.761888 0.292321 0.248514 -0.116757
C13   C     C_3   0.336279 0.334048 0.662746 0.018988
C14   C     C_3   0.388810 0.193567 0.700404 -0.095163
C15   C     C_3   0.247308 0.263644 0.740825 -0.152609
C16   C     C_R   0.776500 0.377104 0.401674 0.544153
C17   C     C_3   0.194940 0.405038 0.701732 -0.134085
C18   C     C_3   0.265467 0.462149 0.775069 -0.152956
C19   C     C_3   0.318677 0.321216 0.812669 0.053999
C20   C     C_1   0.817846 0.341468 0.709486 -0.031082
C21   C     C_1   0.844442 0.314768 0.777998 0.003005
C22   C     C_1   0.338218 0.811985 0.709765 -0.036566
C23   C     C_3   0.830861 0.342950 0.323924 0.056834
C24   C     C_1   0.313284 0.839233 0.778521 -0.034066
C25   C     C_R   0.957685 0.284775 0.102469 0.551150
C26   C     C_R   0.319651 0.300309 0.119936 0.534445
C27   C     C_R   0.297827 0.885597 0.086546 0.530391
C28   C     C_R   0.356655 0.771255 0.627223 0.542239
C29   C     C_R   0.885275 0.299388 0.860801 0.590439
C30   C     C_R   0.308103 0.294088 0.891780 0.565380
C31   C     C_R   0.280028 0.884775 0.859023 0.538262
C32   C     C_R   0.366519 0.345197 0.584737 0.540043
C33   C     C_R   0.774271 0.379339 0.629553 0.540130
C34   C     C_3   0.980971 0.236147 0.301860 -0.151211
C35   C     C_1   0.346074 0.337737 0.274682 -0.065040
C36   C     C_1   0.333668 0.328003 0.203472 -0.064044
C37   C     C_3   0.913385 0.184464 0.224704 -0.121964
C38   C     C_3   0.980633 0.352680 0.256780 -0.138196
C39   C     C_3   0.829203 0.460080 0.279868 -0.103111
C40   C     C_3   0.761871 0.408226 0.203699 -0.112156
C41   C     C_3   0.912711 0.301471 0.181508 0.054989
C42   C     C_3   0.475016 0.772567 0.219765 -0.127039
Cl1   Cl    Cl    0.634078 0.152699 0.818067 -0.580468
Cr1   Cr    Cr6+3 0.608340 0.611040 0.520430 1.030746
Cr2   Cr    Cr6+3 0.287650 0.601120 0.489350 1.028238
Cr3   Cr    Cr6+3 0.604040 0.287870 0.490280 1.033232
Cr4   Cr    Cr6+3 0.054020 0.052700 0.970850 1.073958
Cr5   Cr    Cr6+3 0.059230 0.375120 0.993390 1.026749
Cr6   Cr    Cr6+3 0.374950 0.061200 0.992340 1.058150
H1    H     H_    0.671387 0.267982 0.247161 0.130442
H2    H     H_    0.943808 0.073687 0.197003 0.133111
H3    H     H_    0.067947 0.168832 0.345168 0.110368
H4    H     H_    0.069473 0.378941 0.258208 0.116170
H5    H     H_    0.794186 0.573946 0.303416 0.133022
H6    H     H_    0.674130 0.475504 0.160752 0.124366
H7    H     H_    0.475517 0.569634 0.263772 0.110747
H8    H     H_    0.582589 0.730950 0.198925 0.115696
H9    H     H_    0.462927 0.953160 0.325173 0.129349
H10   H     H_    0.214728 0.079038 0.221172 0.106997
H11   H     H_    0.103183 0.917157 0.287361 0.121566
H12   H     H_    0.221136 0.696046 0.161473 0.128055
H13   H     H_    0.473778 0.444973 0.730092 0.125788
H14   H     H_    0.438039 0.084168 0.668624 0.141857
H15   H     H_    0.180978 0.210844 0.745535 0.114495
H16   H     H_    0.087304 0.465782 0.670333 0.146440
H17   H     H_    0.216840 0.571114 0.807359 0.142249
O1    O     O_R   0.751220 0.499230 0.435170 -0.522837
O2    O     O_R   0.412990 0.180750 0.091610 -0.500853
O3    O     O_R   0.366620 0.943130 0.065760 -0.502717
O4    O     O_R   0.477220 0.727600 0.436870 -0.504094
O5    O     O_R   0.160510 0.906330 0.879210 -0.501370
O6    O     O_R   0.930190 0.179050 0.889450 -0.443198
O7    O     O_R   0.909140 0.398170 0.896710 -0.513779
O8    O     O_R   0.186190 0.363460 0.918830 -0.511911
O9    O     O_R   0.401670 0.173200 0.913310 -0.459211
O10   O     O_R   0.356120 0.936130 0.900470 -0.490417
O11   O     O_3   0.162740 0.163010 0.985530 -0.297623
O12   O     O_R   0.297880 0.469080 0.560050 -0.499547
O13   O     O_R   0.258650 0.745120 0.411470 -0.517170
O14   O     O_R   0.297070 0.467240 0.395960 -0.498320
O15   O     O_R   0.488830 0.252610 0.387790 -0.519380
O16   O     O_R   0.724400 0.302390 0.420980 -0.505356
O17   O     O_R   0.752100 0.501210 0.612190 -0.508601
O18   O     O_R   0.478040 0.729440 0.600970 -0.494008
O19   O     O_R   0.259530 0.747110 0.588490 -0.505913
O20   O     O_R   0.489720 0.254590 0.564810 -0.505664
O21   O     O_R   0.725220 0.304230 0.585080 -0.487504
O22   O     O_3   0.500010 0.500010 0.500020 -0.262340
O23   O     O_R   0.171830 0.913880 0.057510 -0.527815
O24   O     O_R   0.940690 0.186050 0.054730 -0.486737
O25   O     O_R   0.920470 0.405720 0.075010 -0.511415
O26   O     O_R   0.196690 0.370460 0.084120 -0.520198

loop_
_geom_bond_atom_site_label_1
_geom_bond_atom_site_label_2
_ccdc_geom_bond_type
C5    C42   S    
C11   C18   S    
Cr6   O2    S    
C28   O18   A    
C34   C37   S    
C13   C32   S    
C35   C36   T    
Cr1   O17   S    
C6    C9    S    
C7    C8    S    
C15   C19   S    
C12   C23   S    
C25   O24   A    
C5    H9    S    
C4    O14   A    
C3    C7    S    
C38   C39   S    
C30   O8    A    
C23   C39   S    
C39   H5    S    
C29   O7    A    
C26   O26   A    
C18   C19   S    
C12   C37   S    
Cr3   O16   S    
C4    O15   A    
C8    C9    S    
Cr5   O25   S    
C15   H15   S    
Cr6   O9    S    
Cr1   O4    S    
Cr2   O12   S    
C27   O3    A    
C8    H12   S    
C29   O6    A    
C11   H13   S    
C31   O5    A    
C4    C35   S    
Cr6   O3    S    
C13   C14   S    
Cr4   O23   S    
Cr5   O7    S    
C42   H8    S    
Cr3   O22   S    
C25   O25   A    
Cr5   O8    S    
Cr2   O22   S    
C38   C41   S    
C10   C14   S    
C25   C41   S    
C39   C40   S    
C3    C5    S    
C21   C29   S    
C1    C3    S    
Cr5   O11   S    
C12   C40   S    
Cr2   O19   S    
Cr3   O15   S    
C10   C19   S    
C23   C34   S    
C32   O20   A    
C16   O16   A    
C17   C18   S    
C9    C42   S    
Cr6   O10   S    
Cr2   O13   S    
C16   O1    A    
C33   O17   A    
Cr4   O5    S    
C20   C33   S    
C26   C36   S    
C40   C41   S    
C16   C23   S    
C1    O13   A    
Cr4   O24   S    
C22   C24   T    
Cr4   O11   S    
C7    H11   S    
C9    C27   S    
Cr3   O21   S    
C15   C17   S    
C10   Cl1   S    
C34   C38   S    
C34   H3    S    
C6    H10   S    
C2    C8    S    
Cr1   O18   S    
C40   H6    S    
C12   H1    S    
C6    C7    S    
C18   H17   S    
C17   H16   S    
C1    O4    A    
C13   C17   S    
C26   O2    A    
C2    C3    S    
C33   O21   A    
C24   C31   S    
C2    H7    S    
C30   O9    A    
C11   C13   S    
C31   O10   A    
C5    C6    S    
C38   H4    S    
C2    C42   S    
C37   H2    S    
C14   H14   S    
Cr6   O11   S    
C27   O23   A    
Cr2   O14   S    
C37   C41   S    
Cr4   O6    S    
C10   C11   S    
C32   O12   A    
C20   C21   T    
Cr5   O26   S    
C28   O19   A    
C14   C15   S    
Cr1   O1    S    
C22   C28   S    
Cr1   O22   S    
C19   C30   S    
Cr3   O20   S    
