data_mof_unit_29161.cif
_audit_creation_date              2012-12-11T18:09:01-0500
_audit_creation_method            fapswitch 2.2
_symmetry_space_group_name_H-M    P1
_symmetry_Int_Tables_number       1
_space_group_crystal_system       triclinic
_cell_length_a                    8.440617
_cell_length_b                    12.980226
_cell_length_c                    19.019138
_cell_angle_alpha                 102.096368
_cell_angle_beta                  91.517425
_cell_angle_gamma                 98.999881
_cell_volume                      2008.61465602

loop_
_atom_site_label
_atom_site_type_symbol
_atom_type_description
_atom_site_fract_x
_atom_site_fract_y
_atom_site_fract_z
_atom_type_partial_charge
Ba1   Ba    Ba6+2 0.853180 0.547790 0.465300 0.912076
Ba2   Ba    Ba6+2 0.336650 0.452300 0.534710 1.270307
C1    C     C_3   0.500232 0.829610 0.296144 -0.398427
C2    C     C_3   0.675265 0.814688 0.299624 0.236593
C3    C     C_3   0.616137 0.179798 0.313907 0.300118
C4    C     C_3   0.675345 0.075388 0.292095 -0.486388
C5    C     C_3   0.128557 0.237444 0.726810 0.452536
C6    C     C_3   0.177017 0.216122 0.799582 -0.290740
C7    C     C_3   0.633917 0.131780 0.716965 0.259933
C8    C     C_3   0.559254 0.124305 0.788169 1.200280
C9    C     C_R   0.056717 0.551448 0.797455 -0.182704
C10   C     C_R   0.023823 0.533052 0.722077 0.013135
C11   C     C_R   0.872765 0.389492 0.800346 -0.141061
C12   C     C_3   0.078039 0.747490 0.274044 0.609336
C13   C     C_R   0.813524 0.385982 0.730256 -0.062234
C14   C     C_R   0.334094 0.577060 0.187285 -0.184556
C15   C     C_R   0.412023 0.551995 0.246197 -0.042753
C16   C     C_R   0.109316 0.440744 0.194443 -0.285419
C17   C     C_R   0.164035 0.445878 0.266643 0.073461
C18   C     C_R   0.989934 0.475097 0.837693 0.015677
C19   C     C_R   0.901156 0.449733 0.689454 -0.162574
C20   C     C_R   0.196304 0.507326 0.150891 0.107375
C21   C     C_R   0.325874 0.481950 0.283245 0.263547
C22   C     C_R   0.763725 0.425255 0.950605 -0.187797
C23   C     C_3   0.062484 0.766792 0.198229 -0.316441
C24   C     C_R   0.658912 0.388477 0.999132 0.149590
C25   C     C_R   0.706167 0.418947 0.071980 0.428862
C26   C     C_R   0.860311 0.473373 0.093148 -0.174521
C27   C     C_R   0.980995 0.478322 0.044352 0.010406
C28   C     C_R   0.930216 0.461578 0.969621 0.080138
C29   C     C_R   0.145966 0.505533 0.070354 -0.005783
C30   C     C_R   0.259519 0.526813 0.017358 0.035427
C31   C     C_R   0.208302 0.513510 0.942314 0.075042
C32   C     C_R   0.042890 0.483247 0.917363 -0.045269
C33   C     C_R   0.426539 0.559843 0.035545 -0.062366
C34   C     C_3   0.251502 0.784751 0.625216 0.286985
C35   C     C_R   0.532180 0.594884 0.987524 -0.046908
C36   C     C_R   0.484573 0.574801 0.915506 -0.030181
C37   C     C_R   0.328393 0.526382 0.892554 -0.117224
C38   C     C_R   0.763031 0.180065 0.531106 -0.158872
C39   C     C_R   0.430932 0.806711 0.473304 -0.277871
C40   C     C_R   0.398275 0.982278 0.458209 -0.073038
C41   C     C_R   0.336557 0.874682 0.451433 -0.024051
C42   C     C_R   0.583263 0.846527 0.507851 0.101849
C43   C     C_R   0.645951 0.959183 0.517252 -0.021706
C44   C     C_R   0.552161 0.026659 0.489699 0.021794
C45   C     C_3   0.328025 0.901028 0.651731 0.549618
C46   C     C_R   0.613419 0.137213 0.495240 -0.052105
C47   C     C_R   0.856720 0.116612 0.558862 -0.008130
C48   C     C_R   0.798384 0.007045 0.552326 -0.085731
C49   C     C_3   0.021591 0.200799 0.367773 0.548296
C50   C     C_3   0.074833 0.093526 0.334536 0.429404
C51   C     C_3   0.736053 0.764265 0.696913 0.545900
C52   C     C_3   0.779324 0.841452 0.771186 0.355452
H1    H     H_    0.751636 0.884145 0.286211 0.072023
H2    H     H_    0.422919 0.906899 0.694522 0.160293
H3    H     H_    0.381469 0.934428 0.607254 -0.032792
H4    H     H_    0.237279 0.949686 0.673913 -0.745215
H5    H     H_    0.913802 0.185146 0.398257 -0.418275
H6    H     H_    0.111334 0.249192 0.408850 0.086326
H7    H     H_    0.977957 0.026508 0.337300 0.107024
H8    H     H_    0.176581 0.084051 0.368044 0.014938
H9    H     H_    0.840241 0.725215 0.677777 -0.016583
H10   H     H_    0.485479 0.907422 0.329402 0.118084
H11   H     H_    0.803508 0.796685 0.812900 -0.016576
H12   H     H_    0.675129 0.881835 0.787692 0.181452
H13   H     H_    0.716890 0.811722 0.355001 0.070483
H14   H     H_    0.426517 0.766977 0.317969 0.108990
H15   H     H_    0.577666 0.197777 0.262440 0.133220
H16   H     H_    0.711035 0.244805 0.341996 0.105457
H17   H     H_    0.582150 0.017030 0.256348 0.178899
H18   H     H_    0.781197 0.086138 0.260175 0.183753
H19   H     H_    0.705050 0.047070 0.341129 0.079765
H20   H     H_    0.457727 0.825667 0.239810 0.178355
H21   H     H_    0.029971 0.689732 0.158964 0.060995
H22   H     H_    0.200739 0.313543 0.719973 -0.000722
H23   H     H_    0.001948 0.245499 0.727137 -0.030056
H24   H     H_    0.296499 0.261484 0.820034 0.100857
H25   H     H_    0.090317 0.241286 0.840032 0.080386
H26   H     H_    0.182003 0.130708 0.795295 0.259539
H27   H     H_    0.760669 0.169570 0.726445 0.079715
H28   H     H_    0.635307 0.049488 0.686036 0.118583
H29   H     H_    0.626940 0.077877 0.817363 -1.049645
H30   H     H_    0.433227 0.082917 0.778037 -1.114459
H31   H     H_    0.965911 0.698547 0.284827 0.136635
H32   H     H_    0.563376 0.204871 0.822753 0.420815
H33   H     H_    0.141938 0.621241 0.823310 0.153134
H34   H     H_    0.824322 0.325125 0.825502 0.221349
H35   H     H_    0.387247 0.646058 0.167709 0.138545
H36   H     H_    0.002312 0.384043 0.173770 0.160800
H37   H     H_    0.864703 0.439562 0.633117 0.090531
H38   H     H_    0.708414 0.428534 0.899967 0.102602
H39   H     H_    0.620728 0.408054 0.112304 -0.795979
H40   H     H_    0.176438 0.701409 0.277046 -0.666182
H41   H     H_    0.886740 0.512595 0.148015 0.170571
H42   H     H_    0.485083 0.552380 0.084065 0.121883
H43   H     H_    0.657143 0.625368 0.004767 0.096474
H44   H     H_    0.572233 0.590255 0.877079 0.102690
H45   H     H_    0.305158 0.498690 0.835213 0.101792
H46   H     H_    0.324658 0.030520 0.438182 0.124917
H47   H     H_    0.875370 0.960276 0.573035 0.186124
H48   H     H_    0.811886 0.262987 0.533315 0.055682
H49   H     H_    0.381098 0.723059 0.467265 0.109790
H50   H     H_    0.966982 0.815315 0.194262 0.185106
H51   H     H_    0.178180 0.808446 0.184030 0.182371
H52   H     H_    0.346425 0.739387 0.602852 0.024060
H53   H     H_    0.156507 0.778959 0.582355 0.068120
O1    O     O_2   0.875110 0.423180 0.326290 -0.372125
O2    O     O_3   0.688206 0.821540 0.647785 -0.592826
O3    O     O_3   0.107604 0.845705 0.324109 -0.550311
O4    O     O_2   0.314600 0.576860 0.673750 -0.394686
O5    O     O_3   0.066300 0.567050 0.585060 -0.473977
O6    O     O_3   0.528700 0.375020 0.630330 -0.419850
O7    O     O_3   0.184028 0.747278 0.683536 -0.509897
O8    O     O_3   0.611760 0.365720 0.463870 -0.364572
O9    O     O_3   0.107460 0.315620 0.594570 -0.484259
O10   O     O_2   0.174353 0.124888 0.534171 -0.440719
O11   O     O_3   0.146862 0.152127 0.670377 -0.439674
O12   O     O_3   0.123410 0.433040 0.414950 -0.408038
O13   O     O_3   0.577950 0.634370 0.536140 -0.384075
O14   O     O_2   0.341900 0.231310 0.465740 -0.423760
O15   O     O_3   0.480931 0.166564 0.353585 -0.518412
O16   O     O_2   0.496863 0.358881 0.761046 -0.557305
O17   O     O_3   0.543607 0.182333 0.675255 -0.557293
O18   O     O_3   0.661010 0.625070 0.369680 -0.374414
O19   O     O_2   0.737042 0.532138 0.243774 -0.365600
O20   O     O_3   0.984826 0.252965 0.313571 -0.576345
O21   O     O_3   0.699196 0.725577 0.247759 -0.593023
O22   O     O_2   0.847800 0.768730 0.534310 -0.414012
O23   O     O_3   0.082250 0.684470 0.405440 -0.445031
O24   O     O_2   0.005333 0.876536 0.453784 -0.458799
P1    P     P_3+3 0.042930 0.392230 0.337410 1.113261
P2    P     P_3+3 0.672230 0.754900 0.555730 0.902689
P3    P     P_3+3 0.132633 0.821201 0.410573 0.864106
P4    P     P_3+3 0.146790 0.607860 0.662600 1.078423
P5    P     P_3+3 0.067488 0.177038 0.590607 0.918828
P6    P     P_3+3 0.624661 0.609434 0.276621 0.918911
P7    P     P_3+3 0.521513 0.225964 0.445363 1.119892
P8    P     P_3+3 0.603465 0.321567 0.698939 0.930102
S1    S     S_3+6 0.135935 0.076147 0.242968 -0.028564
O25   O     O_2   0.269904 0.011677 0.236271 -0.305606
O26   O     O_2   0.997610 0.015906 0.191872 -0.317129
O27   O     O_3   0.200813 0.192286 0.218926 -0.489525
H54   H     H_    0.250097 0.172239 0.172390 0.334226
N1    N     N_2   0.599950 0.688326 0.707016 -0.195788
H55   H     H_    0.511208 0.722409 0.735059 -0.789401
C53   C     C_3   0.638874 0.596631 0.730083 0.040314
H56   H     H_    0.736161 0.618290 0.773512 -0.034250
H57   H     H_    0.675876 0.545750 0.682118 0.083382
H58   H     H_    0.532241 0.553372 0.750207 0.165863
S2    S     S_3+6 0.947812 0.942582 0.774867 -0.051896
O28   O     O_2   0.959029 0.976906 0.704440 -0.248046
O29   O     O_2   0.925427 0.035643 0.833581 -0.252392
O30   O     O_3   0.115140 0.896788 0.795134 -0.428806
H59   H     H_    0.189599 0.960017 0.822377 0.404917
S3    S     S_3+6 0.427675 0.415240 0.334968 -0.043227
O31   O     O_2   0.470486 0.487036 0.407365 -0.203467
O32   O     O_2   0.329917 0.313378 0.342910 -0.294024
O33   O     O_3   0.587272 0.383425 0.292169 -0.488443
H60   H     H_    0.547720 0.356643 0.241001 0.326797
N2    N     N_2   0.498162 0.338237 0.975733 -0.412316
H61   H     H_    0.467611 0.334304 0.922342 0.208716
C54   C     C_3   0.443321 0.239367 0.997984 -0.121657
H62   H     H_    0.317427 0.207900 0.976533 0.128560
H63   H     H_    0.445425 0.252511 0.057597 0.156446
H64   H     H_    0.519894 0.179080 0.976513 0.172818

loop_
_geom_bond_atom_site_label_1
_geom_bond_atom_site_label_2
_ccdc_geom_bond_type
O19   P6    D    
O13   P2    S    
O17   P8    S    
C53   H56   S    
S1    O27   S    
C36   H44   S    
Ba1   P1    S    
C34   O7    S    
C35   H43   S    
N1    H55   S    
C23   H51   S    
C5    C6    S    
C52   H11   S    
C1    H10   S    
C4    H18   S    
Ba2   O5    S    
C24   C25   A    
C27   C28   A    
C26   H41   S    
S3    O31   D    
C54   H63   S    
C35   C36   A    
C22   C24   A    
C16   C17   A    
Ba1   O22   S    
C50   H7    S    
Ba1   O5    S    
C40   C44   A    
C36   C37   A    
Ba2   O6    S    
O27   H54   S    
O16   P8    D    
C8    H29   S    
C42   P2    S    
C7    O17   S    
C34   C45   S    
C12   O3    S    
Ba1   Ba2   S    
Ba1   O12   S    
S2    O30   S    
C1    H20   S    
O20   P1    S    
C3    H15   S    
N1    C53   S    
Ba2   O9    S    
C31   C37   A    
C8    H32   S    
C1    H14   S    
C9    H33   S    
C14   C15   A    
C10   P4    S    
C6    H25   S    
S2    O28   D    
O6    P8    S    
C7    C8    S    
C7    H28   S    
C5    H23   S    
C18   C32   S    
O24   P3    D    
C14   H35   S    
C21   S3    S    
C34   H53   S    
C6    H24   S    
C39   C41   A    
C5    O11   S    
O23   P3    S    
Ba1   P2    S    
C22   H38   S    
N2    C54   S    
C31   C32   A    
C13   P8    S    
S3    O33   S    
C4    H17   S    
Ba2   O4    S    
C44   C46   A    
C9    C18   A    
C53   H57   S    
C20   C29   S    
C2    O21   S    
C34   H52   S    
C49   C50   S    
C16   H36   S    
C30   C33   A    
C54   H64   S    
S1    O25   D    
O15   P7    S    
Ba1   O23   S    
C28   C32   A    
O18   P6    S    
C33   H42   S    
O2    P2    S    
C10   C19   A    
C39   H49   S    
C23   H21   S    
Ba1   O13   S    
O14   P7    D    
C41   P3    S    
C17   C21   A    
O21   P6    S    
C3    H16   S    
C40   H46   S    
C45   H3    S    
Ba2   O8    S    
C37   H45   S    
O33   H60   S    
O8    P7    S    
O7    P4    S    
C53   H58   S    
C51   N1    S    
O12   P1    S    
C15   C21   A    
O30   H59   S    
C5    H22   S    
O22   P2    D    
C47   P5    S    
C11   C13   A    
C2    H1    S    
C39   C42   A    
O3    P3    S    
C49   H5    S    
C40   C41   A    
O5    P4    S    
C1    C2    S    
O11   P5    S    
C42   C43   A    
C4    H19   S    
C19   H37   S    
Ba2   O14   S    
C51   O2    S    
C17   P1    S    
C38   C46   A    
C26   C27   A    
C14   C20   A    
C11   C18   A    
C33   C35   A    
C16   C20   A    
C29   C30   A    
C12   H31   S    
S1    O26   D    
C2    H13   S    
Ba2   O12   S    
C23   H50   S    
C51   C52   S    
C52   S2    S    
O9    P5    S    
C24   N2    S    
Ba2   P4    S    
C46   P7    S    
Ba1   O18   S    
C49   O20   S    
C30   C31   A    
S3    O32   D    
C27   C29   A    
C50   H8    S    
C45   H4    S    
C51   H9    S    
O4    P4    D    
C3    C4    S    
N2    H61   S    
C43   C48   A    
C3    O15   S    
C11   H34   S    
C8    H30   S    
C50   S1    S    
S2    O29   D    
C12   C23   S    
C22   C28   A    
O1    P1    D    
C54   H62   S    
C25   H39   S    
Ba1   O1    S    
C38   H48   S    
C43   C44   A    
C13   C19   A    
C48   H47   S    
C47   C48   A    
C25   C26   A    
C6    H26   S    
C15   P6    S    
C49   H6    S    
Ba1   O8    S    
Ba2   O13   S    
C52   H12   S    
O10   P5    D    
C12   H40   S    
C38   C47   A    
C9    C10   A    
C7    H27   S    
C45   H2    S    
