data_mof_unit_41239.cif
_audit_creation_date              2012-12-10T17:56:16-0500
_audit_creation_method            fapswitch 2.2
_symmetry_space_group_name_H-M    P1
_symmetry_Int_Tables_number       1
_space_group_crystal_system       triclinic
_cell_length_a                    13.014278
_cell_length_b                    10.834073
_cell_length_c                    9.503729
_cell_angle_alpha                 90.016029
_cell_angle_beta                  97.032517
_cell_angle_gamma                 90.210373
_cell_volume                      1329.91294019

loop_
_atom_site_label
_atom_site_type_symbol
_atom_type_description
_atom_site_fract_x
_atom_site_fract_y
_atom_site_fract_z
_atom_type_partial_charge
C1    C     C_R   0.499911 0.262028 0.499939 0.783726
C2    C     C_R   0.699878 0.499272 0.527736 0.823671
C3    C     C_R   0.813325 0.496788 0.545857 -0.095264
C4    C     C_R   0.186675 0.503211 0.454143 -0.095263
C5    C     C_R   0.020287 0.544186 0.316948 -0.264869
C6    C     C_R   0.979713 0.455815 0.683052 -0.264868
C7    C     C_R   0.127931 0.536240 0.324208 0.250413
C8    C     C_R   0.872070 0.463763 0.675793 0.250414
C9    C     C_R   0.136193 0.475776 0.572487 -0.306352
C10   C     C_R   0.863807 0.524221 0.427511 -0.306351
C11   C     C_R   0.029124 0.482611 0.564193 0.136059
C12   C     C_R   0.500089 0.737972 0.500061 0.783728
C13   C     C_R   0.970876 0.517387 0.435806 0.136059
C14   C     C_R   0.499167 0.063797 0.371974 -0.188947
C15   C     C_R   0.500832 0.936203 0.628026 -0.188947
C16   C     C_R   0.499293 0.936100 0.372024 -0.186777
C17   C     C_R   0.500706 0.063900 0.627976 -0.186777
C18   C     C_3   0.825983 0.535182 0.899008 -0.680460
C19   C     C_3   0.174024 0.464828 0.100994 -0.680439
C20   C     C_R   0.500097 0.871798 0.500046 -0.014901
C21   C     C_R   0.499903 0.128202 0.499954 -0.014901
C22   C     C_R   0.442629 0.415615 0.064792 -0.017254
C23   C     C_R   0.557371 0.584385 0.935208 -0.017248
C24   C     C_R   0.442442 0.415819 0.915858 -0.032649
C25   C     C_R   0.557558 0.584181 0.084142 -0.032648
C26   C     C_R   0.300122 0.500727 0.472264 0.823672
Cu1   Cu    Cu3+1 0.500000 0.500020 0.640660 0.950569
Cu2   Cu    Cu3+1 0.500000 0.499980 0.359340 0.950568
H1    H     H_    0.819699 0.550714 0.327854 0.161824
H2    H     H_    0.603091 0.652127 0.886734 0.112474
H3    H     H_    0.396197 0.348521 0.851920 0.113741
H4    H     H_    0.603803 0.651479 0.148080 0.113740
H5    H     H_    0.850926 0.353908 0.846352 0.242909
H6    H     H_    0.781971 0.508198 0.987217 0.220231
H7    H     H_    0.789733 0.618893 0.847146 0.230882
H8    H     H_    0.907016 0.556832 0.943660 0.205189
H9    H     H_    0.149073 0.646100 0.153652 0.242905
H10   H     H_    0.218041 0.491814 0.012790 0.220232
H11   H     H_    0.092991 0.443179 0.056333 0.205184
H12   H     H_    0.180300 0.449281 0.672144 0.161823
H13   H     H_    0.210271 0.381113 0.152858 0.230878
H14   H     H_    0.975418 0.570836 0.217975 0.133641
H15   H     H_    0.024583 0.429166 0.782027 0.133641
H16   H     H_    0.498479 0.111794 0.271883 0.146458
H17   H     H_    0.501521 0.888206 0.728117 0.146458
H18   H     H_    0.498723 0.888022 0.271968 0.147440
H19   H     H_    0.501277 0.111978 0.728032 0.147440
H20   H     H_    0.396909 0.347873 0.113266 0.112474
N1    N     N_R   0.500030 0.500030 0.852080 -0.149428
N2    N     N_R   0.499970 0.499970 0.147920 -0.149428
N3    N     N_2   0.823943 0.434843 0.798237 -0.400800
N4    N     N_2   0.176058 0.565165 0.201767 -0.400799
O1    O     O_R   0.499990 0.319660 0.618740 -0.589737
O2    O     O_R   0.500010 0.680340 0.381260 -0.589737
O3    O     O_R   0.499990 0.319630 0.381170 -0.594213
O4    O     O_R   0.500010 0.680370 0.618830 -0.594213
O5    O     O_R   0.349000 0.499990 0.599490 -0.593581
O6    O     O_R   0.651000 0.500010 0.400510 -0.593580
O7    O     O_R   0.348990 0.499960 0.361920 -0.544005
O8    O     O_R   0.651010 0.500040 0.638080 -0.544005

loop_
_geom_bond_atom_site_label_1
_geom_bond_atom_site_label_2
_ccdc_geom_bond_type
C7    N4    S    
C22   H20   S    
C5    H14   S    
Cu1   O1    S    
C1    C21   S    
C19   H10   S    
Cu2   O6    S    
H5    N3    S    
C9    C11   A    
C26   O7    A    
C5    C13   A    
C10   H1    S    
C22   N2    A    
C16   C20   A    
C12   C20   S    
C25   H4    S    
C2    O6    A    
C2    C3    S    
C1    O3    A    
C24   H3    S    
C5    C7    A    
C3    C10   A    
C11   C13   A    
C8    N3    S    
C19   H13   S    
C12   O4    A    
C19   H11   S    
C4    C7    A    
C6    C8    A    
Cu2   N2    S    
C14   C21   A    
Cu2   O3    S    
C18   N3    S    
C14   C16   A    
C6    H15   S    
C18   H6    S    
Cu1   O8    S    
Cu1   O5    S    
C15   C20   A    
C26   O5    A    
C2    O8    A    
C4    C26   S    
C23   N1    A    
C15   H17   S    
C23   H2    S    
Cu1   N1    S    
C6    C11   A    
C23   C25   A    
C14   H16   S    
C3    C8    A    
C18   H7    S    
Cu2   O7    S    
C16   H18   S    
C24   N1    A    
C15   C17   A    
H9    N4    S    
Cu2   O2    S    
Cu1   O4    S    
C1    O1    A    
C4    C9    A    
C25   N2    A    
C18   H8    S    
C19   N4    S    
C9    H12   S    
C12   O2    A    
C17   H19   S    
C22   C24   A    
Cu1   Cu2   S    
C10   C13   A    
C17   C21   A    
