data_mof_unit_41807.cif
_audit_creation_date              2012-12-10T19:47:45-0500
_audit_creation_method            fapswitch 2.2
_symmetry_space_group_name_H-M    P1
_symmetry_Int_Tables_number       1
_space_group_crystal_system       triclinic
_cell_length_a                    18.433712
_cell_length_b                    18.293073
_cell_length_c                    18.292173
_cell_angle_alpha                 119.558877
_cell_angle_beta                  90.082133
_cell_angle_gamma                 120.118158
_cell_volume                      4379.6501146

loop_
_atom_site_label
_atom_site_type_symbol
_atom_type_description
_atom_site_fract_x
_atom_site_fract_y
_atom_site_fract_z
_atom_type_partial_charge
C1    C     C_R   0.639486 0.779567 0.643029 0.805321
C2    C     C_3   0.643308 0.388559 0.687783 -0.200761
C3    C     C_3   0.698451 0.495757 0.695586 -0.225091
C4    C     C_3   0.802296 0.499427 0.799876 -0.178281
C5    C     C_3   0.784692 0.583743 0.861413 0.232896
C6    C     C_3   0.710195 0.389244 0.742629 -0.484336
C7    C     C_R   0.290941 0.050164 0.334718 0.030902
C8    C     C_R   0.294019 0.107925 0.304390 -0.162273
C9    C     C_R   0.229571 0.055788 0.221975 -0.076278
C10   C     C_R   0.172920 0.945826 0.166945 -0.117052
C11   C     C_R   0.183034 0.890918 0.195498 -0.113766
C12   C     C_R   0.358664 0.219830 0.360079 0.767719
C13   C     C_R   0.235963 0.944899 0.282139 0.031047
C14   C     C_3   0.296420 0.932129 0.321233 0.255077
C15   C     C_3   0.360451 0.051508 0.380329 -0.275361
C16   C     C_R   0.784355 0.566855 0.337825 0.002412
C17   C     C_R   0.693170 0.489918 0.301383 -0.161952
C18   C     C_R   0.655840 0.408478 0.209017 -0.134444
C19   C     C_R   0.711265 0.407541 0.156374 0.432876
C20   C     C_R   0.803120 0.488884 0.194519 -0.233976
C21   C     C_R   0.838690 0.565455 0.285801 -0.000395
C22   C     C_3   0.910675 0.595963 0.356753 -0.216222
C23   C     C_R   0.362322 0.501831 0.642472 0.836889
C24   C     C_3   0.850444 0.600564 0.415137 0.274395
C25   C     C_R   0.784931 0.948016 0.720317 -0.030631
C26   C     C_R   0.694026 0.891169 0.705974 -0.144155
C27   C     C_R   0.658158 0.947813 0.752391 -0.047798
C28   C     C_R   0.713349 0.056438 0.801612 -0.147160
C29   C     C_R   0.803729 0.109689 0.809106 -0.074493
C30   C     C_R   0.836553 0.051979 0.768210 -0.024228
C31   C     C_3   0.918984 0.059943 0.751517 0.228081
C32   C     C_3   0.859407 0.939672 0.696060 0.215036
C33   C     C_R   0.262285 0.545631 0.336411 -0.060257
C34   C     C_R   0.639331 0.496819 0.359599 0.836882
C35   C     C_R   0.314722 0.511241 0.304544 -0.181069
C36   C     C_R   0.327771 0.495489 0.223316 0.453728
C37   C     C_R   0.273133 0.494708 0.167282 -0.182123
C38   C     C_R   0.208087 0.511919 0.196016 -0.129256
C39   C     C_R   0.208173 0.542490 0.282238 -0.039242
C40   C     C_3   0.136571 0.518054 0.324240 0.252503
C41   C     C_3   0.198664 0.522812 0.385933 0.692001
C42   C     C_R   0.274103 0.559787 0.719866 0.018739
C43   C     C_R   0.315268 0.509869 0.707298 -0.080363
C44   C     C_R   0.310444 0.471254 0.759883 -0.097604
C45   C     C_R   0.360986 0.501720 0.359247 0.911013
C46   C     C_R   0.252866 0.469549 0.810498 -0.168774
C47   C     C_R   0.203479 0.508657 0.812356 -0.030025
C48   C     C_R   0.220986 0.561285 0.772637 -0.043644
C49   C     C_3   0.160181 0.557663 0.714613 0.277275
C50   C     C_3   0.218592 0.554320 0.655012 0.138421
C51   C     C_R   0.860029 0.496611 0.139665 0.807289
C52   C     C_R   0.140425 0.500703 0.860485 0.865084
C53   C     C_R   0.137165 0.779658 0.139551 0.833665
C54   C     C_R   0.860194 0.220585 0.860674 0.872706
C55   C     C_R   0.143585 0.502632 0.140516 0.897482
C56   C     C_R   0.641032 0.498452 0.639883 0.926706
C57   C     C_R   0.859283 0.499366 0.858005 0.870865
C58   C     C_3   0.784388 0.509631 0.664072 0.108895
C59   C     C_3   0.850458 0.523868 0.734598 0.796911
C60   C     C_3   0.733895 0.589887 0.797644 -0.255578
H1    H     H_    0.679970 0.372253 0.789367 0.195850
H2    H     H_    0.686308 0.099498 0.836459 0.215760
H3    H     H_    0.245990 0.436857 0.848049 0.211033
H4    H     H_    0.255819 0.622298 0.651615 0.108628
H5    H     H_    0.784323 0.660377 0.802911 0.147193
O1    O     O_3   0.500000 0.500000 0.500000 -0.536779
O2    O     O_R   0.384470 0.439280 0.616070 -0.648586
O3    O     O_R   0.676800 0.560710 0.445190 -0.578848
O4    O     O_R   0.554810 0.731590 0.615530 -0.664883
O5    O     O_R   0.383920 0.268420 0.323210 -0.651610
O6    O     O_3   0.999960 0.499910 0.999960 -0.543217
O7    O     O_R   0.823160 0.439210 0.054770 -0.622803
O8    O     O_R   0.115490 0.560640 0.883890 -0.606115
O9    O     O_R   0.116030 0.731490 0.176740 -0.600121
O10   O     O_R   0.945140 0.268320 0.884430 -0.595908
O11   O     O_R   0.116800 0.560590 0.177500 -0.588585
O12   O     O_R   0.676800 0.731580 0.616070 -0.617124
O13   O     O_R   0.822390 0.439230 0.883130 -0.641454
O14   O     O_R   0.116800 0.439160 0.056060 -0.646178
O15   O     O_R   0.943840 0.560660 0.883130 -0.560973
O16   O     O_R   0.115490 0.731510 0.054770 -0.656019
O17   O     O_R   0.823160 0.268340 0.883890 -0.627242
O18   O     O_R   0.945140 0.560620 0.176740 -0.607305
O19   O     O_R   0.116030 0.439190 0.884430 -0.646572
O20   O     O_R   0.384470 0.268410 0.445190 -0.569501
O21   O     O_R   0.383920 0.560720 0.615530 -0.621510
O22   O     O_R   0.554810 0.439290 0.323210 -0.664767
O23   O     O_R   0.383160 0.560750 0.443890 -0.596322
O24   O     O_R   0.677560 0.560680 0.616830 -0.654477
O25   O     O_R   0.383160 0.439320 0.322450 -0.587171
O26   O     O_R   0.556120 0.439250 0.616830 -0.545134
Zn1   Zn    Zn3+2 0.457010 0.413240 0.543760 1.082894
Zn2   Zn    Zn3+2 0.456230 0.586760 0.542990 1.029134
Zn3   Zn    Zn3+2 0.456230 0.413270 0.369490 1.036855
Zn4   Zn    Zn3+2 0.630520 0.586730 0.543760 1.035451
Zn5   Zn    Zn3+2 0.042950 0.586670 0.956190 1.063891
Zn6   Zn    Zn3+2 0.043720 0.586650 0.130470 1.046072
Zn7   Zn    Zn3+2 0.043720 0.413150 0.956960 1.049757
Zn8   Zn    Zn3+2 0.869430 0.413180 0.956190 1.032239
O27   O     O_3   0.832194 0.595127 0.658230 -0.721917
H6    H     H_    0.828024 0.652078 0.699717 0.364016
C61   C     C_2   0.672409 0.621063 0.833947 0.384973
H7    H     H_    0.700475 0.693350 0.898329 0.155498
O28   O     O_2   0.593780 0.570292 0.793044 -0.628279
C62   C     C_2   0.735382 0.561278 0.923385 0.338873
H8    H     H_    0.712058 0.492620 0.920934 0.086274
O29   O     O_2   0.726087 0.624609 0.981806 -0.525318
C63   C     C_2   0.218787 0.116677 0.197401 0.570687
H9    H     H_    0.203648 0.169832 0.241884 0.021835
O30   O     O_2   0.232854 0.113309 0.130999 -0.442653
C64   C     C_2   0.098921 0.887495 0.084574 0.535912
H10   H     H_    0.037384 0.817148 0.067046 0.029328
O31   O     O_2   0.106032 0.914720 0.034543 -0.450769
C65   C     C_2   0.253087 0.879553 0.367191 0.450103
H11   H     H_    0.220451 0.905447 0.412766 0.077055
O32   O     O_2   0.253405 0.807132 0.352952 -0.536310
O33   O     O_3   0.327085 0.882817 0.256948 -0.723055
H12   H     H_    0.372782 0.885386 0.288875 0.381581
C66   C     C_2   0.375544 0.100677 0.478934 0.462614
H13   H     H_    0.413542 0.091970 0.515383 0.083281
O34   O     O_2   0.344289 0.148259 0.518061 -0.467579
C67   C     C_2   0.446165 0.094188 0.360315 0.578337
H14   H     H_    0.459842 0.136455 0.330580 0.055872
O35   O     O_2   0.501480 0.081997 0.377919 -0.548852
C68   C     C_2   0.561868 0.316869 0.167793 0.610757
H15   H     H_    0.531627 0.282662 0.203327 0.046691
O36   O     O_2   0.517570 0.278212 0.093270 -0.443132
C69   C     C_2   0.753995 0.421078 0.566930 0.583167
H16   H     H_    0.716780 0.415749 0.516301 0.123237
O37   O     O_2   0.770565 0.357538 0.542054 -0.567660
O38   O     O_3   0.675233 0.321923 0.069870 -0.671657
H17   H     H_    0.715850 0.300056 0.060715 0.328869
C70   C     C_2   0.924027 0.512251 0.330206 0.553148
H18   H     H_    0.908806 0.455586 0.260707 0.037879
O39   O     O_2   0.954968 0.509513 0.387127 -0.558256
C71   C     C_2   0.998149 0.697710 0.390910 0.423000
H19   H     H_    0.050460 0.731736 0.448610 0.116431
O40   O     O_2   0.011131 0.742553 0.355121 -0.542372
O41   O     O_3   0.816436 0.525390 0.433499 -0.709900
H20   H     H_    0.864217 0.550199 0.482678 0.402813
C72   C     C_2   0.882041 0.705937 0.495072 0.468502
H21   H     H_    0.905746 0.768846 0.487928 0.039279
O42   O     O_2   0.880860 0.721091 0.567767 -0.474959
C73   C     C_2   0.566595 0.898139 0.756490 0.474568
H22   H     H_    0.532938 0.825213 0.749126 0.068583
O43   O     O_2   0.528343 0.939862 0.770764 -0.521741
C74   C     C_2   0.954732 0.104709 0.698677 0.614657
H23   H     H_    0.007227 0.101344 0.674037 0.067467
O44   O     O_2   0.926251 0.145176 0.683543 -0.550556
O45   O     O_3   0.986458 0.109419 0.829439 -0.701758
H24   H     H_    0.958662 0.092087 0.870103 0.344444
O46   O     O_3   0.843109 0.890141 0.603954 -0.728020
H25   H     H_    0.900849 0.905508 0.595121 0.333274
O47   O     O_3   0.876991 0.457554 0.692160 -0.730811
H26   H     H_    0.919222 0.484247 0.663660 0.404942
C75   C     C_2   0.881248 0.892414 0.732681 0.545794
H27   H     H_    0.831311 0.841355 0.747404 0.031721
O48   O     O_2   0.954805 0.909475 0.744252 -0.475134
O49   O     O_3   0.394048 0.482339 0.201596 -0.687422
H28   H     H_    0.417797 0.509605 0.165632 0.362977
C76   C     C_2   0.281899 0.473409 0.079360 0.493316
H29   H     H_    0.274616 0.514006 0.055566 0.040545
O50   O     O_2   0.294528 0.408224 0.031562 -0.470581
O51   O     O_3   0.124059 0.597232 0.368568 -0.729364
H30   H     H_    0.182688 0.664888 0.398702 0.391865
C77   C     C_2   0.048796 0.413469 0.265819 0.414674
H31   H     H_    0.001750 0.385232 0.296617 0.137362
O52   O     O_2   0.029928 0.359186 0.185196 -0.609419
O53   O     O_3   0.234076 0.606415 0.475314 -0.696849
H32   H     H_    0.184147 0.591121 0.499419 0.349543
O54   O     O_3   0.166649 0.429926 0.377552 -0.779960
H33   H     H_    0.155880 0.377073 0.315513 0.312302
C78   C     C_2   0.363937 0.433275 0.764620 0.519813
H34   H     H_    0.424793 0.457512 0.748879 0.150634
O55   O     O_2   0.341459 0.375650 0.788550 -0.492212
O56   O     O_3   0.073612 0.466872 0.674835 -0.646677
H35   H     H_    0.042190 0.462550 0.627224 0.360545
O57   O     O_3   0.930271 0.624954 0.784858 -0.620184
H36   H     H_    0.918357 0.677202 0.802422 0.383018
C79   C     C_2   0.164279 0.655103 0.762007 0.392655
H37   H     H_    0.228072 0.729368 0.794794 0.057441
O58   O     O_2   0.096649 0.651838 0.764472 -0.440661
O59   O     O_3   0.175828 0.459447 0.571821 -0.650213
H38   H     H_    0.139164 0.461533 0.534190 0.368505
O60   O     O_3   0.865883 0.681893 0.918037 -0.732696
H39   H     H_    0.895527 0.682890 0.964158 0.334841
C80   C     C_2   0.569069 0.379298 0.729093 0.543361
H40   H     H_    0.584878 0.427525 0.800189 0.088271
O61   O     O_2   0.490305 0.316677 0.684119 -0.486919
C81   C     C_2   0.595815 0.290777 0.591877 0.494206
H41   H     H_    0.573975 0.217591 0.580200 0.090080
O62   O     O_2   0.574622 0.289874 0.528134 -0.612112
C82   C     C_2   0.721394 0.301924 0.689557 0.505561
H42   H     H_    0.741305 0.288680 0.631348 0.174208
O63   O     O_2   0.705238 0.242857 0.710627 -0.517006

loop_
_geom_bond_atom_site_label_1
_geom_bond_atom_site_label_2
_ccdc_geom_bond_type
O54   H33   S    
C58   C69   S    
C16   C21   A    
C15   C67   S    
C50   H4    S    
O17   Zn8   S    
O14   Zn7   S    
O18   Zn6   S    
C50   O59   S    
C5    O60   S    
O59   H38   S    
C69   H16   S    
C65   H11   S    
C7    C8    A    
C5    C62   S    
C78   H34   S    
C9    C63   S    
C62   O29   D    
C26   C27   A    
C81   H41   S    
C12   O20   A    
C59   O57   S    
C6    H1    S    
C36   C37   A    
C74   O44   D    
C37   C38   A    
C40   O51   S    
C20   C51   S    
O4    Zn2   S    
C55   O14   A    
C72   O42   D    
C18   C68   S    
C17   C18   A    
C38   C39   A    
O11   Zn6   S    
C29   C54   S    
O22   Zn3   S    
C23   C43   S    
C63   H9    S    
C53   O16   A    
C18   C19   A    
O53   H32   S    
C23   O2    A    
C52   O19   A    
C2    C80   S    
O27   H6    S    
C36   O49   S    
C32   C75   S    
O20   Zn1   S    
C56   O26   A    
C38   C55   S    
C35   C36   A    
C79   O58   D    
C16   C17   A    
C82   O63   D    
C23   O21   A    
C4    C57   S    
C13   C14   S    
O15   Zn5   S    
C9    C10   A    
C40   C77   S    
C11   C53   S    
O1    Zn3   S    
C49   C79   S    
C31   C74   S    
C3    C60   S    
C25   C32   S    
C7    C15   S    
C56   O24   A    
C16   C24   S    
C21   C22   S    
C77   O52   D    
C57   O15   A    
O51   H30   S    
C77   H31   S    
C2    C6    S    
C60   C61   S    
C76   O50   D    
C59   O47   S    
C44   C46   A    
O25   Zn3   S    
O9    Zn6   S    
C78   O55   D    
C24   O41   S    
C19   O38   S    
O6    Zn7   S    
C1    C26   S    
O3    Zn4   S    
C22   C70   S    
C74   H23   S    
O57   H36   S    
C45   O23   A    
C58   O27   S    
C44   C78   S    
O6    Zn6   S    
C4    C6    S    
C52   O8    A    
C34   O3    A    
O26   Zn1   S    
O16   Zn5   S    
C8    C9    A    
O1    Zn1   S    
O6    Zn5   S    
C58   C59   S    
C14   C65   S    
O6    Zn8   S    
O12   Zn4   S    
O10   Zn7   S    
C1    O4    A    
C22   C71   S    
C75   H27   S    
O24   Zn4   S    
C42   C48   A    
C43   C44   A    
C29   C30   A    
O21   Zn2   S    
C41   O54   S    
C3    C56   S    
C47   C48   A    
C32   O46   S    
C7    C13   A    
C24   C72   S    
C8    C12   S    
C14   O33   S    
C27   C73   S    
C10   C64   S    
C64   O31   D    
C33   C39   A    
C20   C21   A    
C66   H13   S    
C61   O28   D    
C45   O25   A    
O47   H26   S    
C66   O34   D    
C42   C50   S    
O1    Zn2   S    
C55   O11   A    
C73   O43   D    
O56   H35   S    
C60   H5    S    
C49   C50   S    
O49   H28   S    
C68   H15   S    
C6    C82   S    
C22   C24   S    
C42   C43   A    
C67   O35   D    
O38   H17   S    
C35   C45   S    
C51   O18   A    
C54   O17   A    
C79   H37   S    
C71   O40   D    
C37   C76   S    
C25   C30   A    
C31   O45   S    
C12   O5    A    
O23   Zn2   S    
C28   C29   A    
C81   O62   D    
C64   H10   S    
O5    Zn3   S    
C14   C15   S    
C57   O13   A    
C31   C32   S    
C2    C81   S    
C73   H22   S    
C69   O37   D    
C65   O32   D    
O41   H20   S    
C63   O30   D    
C47   C52   S    
C62   H8    S    
C51   O7    A    
C46   H3    S    
O19   Zn7   S    
C19   C20   A    
C75   O48   D    
C2    C3    S    
C25   C26   A    
C33   C41   S    
C80   H40   S    
C76   H29   S    
C72   H21   S    
C11   C13   A    
C30   C31   S    
O60   H39   S    
C70   H18   S    
C41   O53   S    
C48   C49   S    
C4    C59   S    
O2    Zn1   S    
C33   C35   A    
C15   C66   S    
C34   O22   A    
C5    C60   S    
C61   H7    S    
C80   O61   D    
C46   C47   A    
C10   C11   A    
C54   O10   A    
C39   C40   S    
C3    C58   S    
C4    C5    S    
O46   H25   S    
C82   H42   S    
C17   C34   S    
O13   Zn8   S    
C68   O36   D    
C70   O39   D    
O45   H24   S    
C71   H19   S    
C40   C41   S    
C1    O12   A    
O8    Zn5   S    
C67   H14   S    
O33   H12   S    
O7    Zn8   S    
C49   O56   S    
O1    Zn4   S    
C27   C28   A    
C53   O9    A    
C28   H2    S    
