data_mof_unit_56486.cif
_audit_creation_date              2012-12-11T15:47:00-0500
_audit_creation_method            fapswitch 2.2
_symmetry_space_group_name_H-M    P1
_symmetry_Int_Tables_number       1
_space_group_crystal_system       triclinic
_cell_length_a                    20.127752
_cell_length_b                    7.267817
_cell_length_c                    13.591632
_cell_angle_alpha                 90.000088
_cell_angle_beta                  103.308157
_cell_angle_gamma                 90.000022
_cell_volume                      1934.85718754

loop_
_atom_site_label
_atom_site_type_symbol
_atom_type_description
_atom_site_fract_x
_atom_site_fract_y
_atom_site_fract_z
_atom_type_partial_charge
O1    O     O_R   0.449560 0.506810 0.599700 -0.540042
O2    O     O_R   0.550440 0.006810 0.400300 -0.540041
O3    O     O_R   0.587960 0.180060 0.595760 -0.542518
O4    O     O_R   0.412040 0.680060 0.404240 -0.542524
C1    C     C_R   0.614360 0.344645 0.618623 0.807873
C2    C     C_R   0.385640 0.844645 0.381377 0.807868
O5    O     O_R   0.452380 0.177430 0.611700 -0.537608
O6    O     O_R   0.547620 0.677430 0.388300 -0.537609
O7    O     O_R   0.413900 0.001890 0.416350 -0.512112
O8    O     O_R   0.586100 0.501890 0.583650 -0.512108
C3    C     C_R   0.436835 0.345691 0.637849 0.855207
C4    C     C_R   0.563165 0.845690 0.362150 0.855211
O9    O     O_3   0.487530 0.337490 0.435890 -0.388474
O10   O     O_3   0.512470 0.837490 0.564110 -0.388470
V1    V     V_3+5 0.502310 0.064660 0.511890 1.660143
V2    V     V_3+5 0.497690 0.564660 0.488110 1.660138
C5    C     C_R   0.603216 0.877948 0.105236 0.362600
C6    C     C_R   0.396783 0.377991 0.894762 0.362601
C7    C     C_R   0.600821 0.854491 0.282317 -0.286341
C8    C     C_R   0.399178 0.354495 0.717683 -0.286333
C9    C     C_R   0.927786 0.905479 0.311717 0.163517
C10   C     C_R   0.072214 0.405458 0.688281 0.163514
C11   C     C_R   0.889893 0.947786 0.383112 0.527827
C12   C     C_R   0.110105 0.447756 0.616885 0.527830
C13   C     C_R   0.818974 0.943903 0.356733 0.666091
C14   C     C_R   0.181024 0.443880 0.643263 0.666098
C15   C     C_R   0.783185 0.879743 0.260447 -0.165096
C16   C     C_R   0.216814 0.379741 0.739552 -0.165099
C17   C     C_R   0.820709 0.847421 0.184901 -0.184374
C18   C     C_R   0.179291 0.347429 0.815099 -0.184375
C19   C     C_R   0.710638 0.862156 0.235043 -0.103110
C20   C     C_R   0.289362 0.362163 0.764957 -0.103109
C21   C     C_R   0.675453 0.855172 0.132042 -0.239328
C22   C     C_R   0.324547 0.355203 0.867958 -0.239327
C23   C     C_R   0.712459 0.814257 0.058953 0.552285
C24   C     C_R   0.287542 0.314300 0.941048 0.552284
C25   C     C_R   0.784271 0.804970 0.084616 0.318898
C26   C     C_R   0.215730 0.304998 0.915386 0.318899
C27   C     C_R   0.671894 0.842360 0.308813 0.650777
C28   C     C_R   0.328106 0.342353 0.691188 0.650776
C29   C     C_R   0.566004 0.877842 0.181468 0.242460
C30   C     C_R   0.433995 0.377874 0.818529 0.242447
C31   C     C_R   0.893516 0.864030 0.211930 -0.171354
C32   C     C_R   0.106484 0.364028 0.788070 -0.171352
C33   C     C_R   0.200346 0.965603 0.271553 0.535259
C34   C     C_R   0.799652 0.465621 0.728453 0.535262
C35   C     C_R   0.266152 0.962896 0.333807 0.587656
C36   C     C_R   0.733845 0.462914 0.666200 0.587657
C37   C     C_R   0.317665 0.853127 0.309586 -0.380549
C38   C     C_R   0.682335 0.353129 0.690415 -0.380544
C39   C     C_R   0.302617 0.749035 0.218436 0.265990
C40   C     C_R   0.697385 0.249020 0.781559 0.265991
C41   C     C_R   0.235550 0.752312 0.155686 0.319476
C42   C     C_R   0.764451 0.252295 0.844310 0.319490
C43   C     C_R   0.184150 0.858345 0.183365 -0.355406
C44   C     C_R   0.815850 0.358345 0.816635 -0.355418
O11   O     O_R   0.913920 0.203370 0.916260 -0.524276
O12   O     O_R   0.086080 0.703370 0.083740 -0.524281
O13   O     O_R   0.047620 0.535540 0.888290 -0.540971
O14   O     O_R   0.952380 0.035540 0.111710 -0.540971
C45   C     C_R   0.065304 0.368635 0.864320 0.912065
C46   C     C_R   0.934695 0.868635 0.135680 0.912064
O15   O     O_R   0.912040 0.532780 0.904220 -0.519251
O16   O     O_R   0.087960 0.032780 0.095780 -0.519257
O17   O     O_R   0.949550 0.708160 0.099720 -0.532765
O18   O     O_R   0.050450 0.208160 0.900280 -0.532768
C47   C     C_R   0.885614 0.364883 0.883130 0.860854
C48   C     C_R   0.114386 0.864883 0.116870 0.860861
O19   O     O_3   0.012480 0.375300 0.064060 -0.385512
O20   O     O_3   0.987520 0.875300 0.935940 -0.385509
V3    V     V_3+5 0.997690 0.648180 0.988110 1.674865
V4    V     V_3+5 0.002310 0.148180 0.011890 1.674862
O21   O     O_3   0.495766 0.897962 0.160307 -0.636136
H1    H     H_    0.477456 0.909979 0.086520 0.363452
O22   O     O_3   0.504233 0.398006 0.839687 -0.636135
H2    H     H_    0.522541 0.410078 0.913472 0.363466
F1    F     F_    0.278987 0.063561 0.420241 -0.550275
F2    F     F_    0.721009 0.563597 0.579772 -0.550277
O23   O     O_3   0.351663 0.644845 0.187684 -0.608936
H3    H     H_    0.397602 0.691820 0.219972 0.317667
O24   O     O_3   0.648339 0.144815 0.812304 -0.608937
H4    H     H_    0.602401 0.191807 0.780028 0.317660
O25   O     O_3   0.219301 0.660429 0.064267 -0.622814
H5    H     H_    0.261509 0.615648 0.046900 0.341334
O26   O     O_3   0.780701 0.160389 0.935723 -0.622806
H6    H     H_    0.738493 0.115614 0.953092 0.341326
F3    F     F_    0.678715 0.769983 0.963238 -0.666506
F4    F     F_    0.321286 0.270048 0.036767 -0.666498
O27   O     O_3   0.568167 0.905652 0.006481 -0.597356
H7    H     H_    0.596153 0.987908 0.974118 0.360121
O28   O     O_3   0.431832 0.405716 0.993515 -0.597352
H8    H     H_    0.403844 0.487974 0.025873 0.360120
F5    F     F_    0.701682 0.790424 0.404851 -0.557766
F6    F     F_    0.298320 0.290397 0.595153 -0.557768
O29   O     O_3   0.998382 0.914370 0.335307 -0.580862
H9    H     H_    0.015179 0.942434 0.408120 0.396814
O30   O     O_3   0.001617 0.414340 0.664692 -0.580868
H10   H     H_    0.984820 0.442394 0.591877 0.396815
F7    F     F_    0.786311 0.024830 0.422307 -0.556751
F8    F     F_    0.213687 0.524797 0.577685 -0.556748
F9    F     F_    0.921564 0.005527 0.477295 -0.591179
F10   F     F_    0.078433 0.505479 0.522699 -0.591175
O31   O     O_3   0.819337 0.756817 0.012078 -0.636136
H11   H     H_    0.787411 0.732939 0.946206 0.343897
O32   O     O_3   0.180665 0.256852 0.987926 -0.636140
H12   H     H_    0.212591 0.232981 0.053798 0.343899
F11   F     F_    0.151678 0.070251 0.298947 -0.573334
F12   F     F_    0.848317 0.570286 0.701065 -0.573334

loop_
_geom_bond_atom_site_label_1
_geom_bond_atom_site_label_2
_ccdc_geom_bond_type
C15   C17   A    
O21   H1    S    
O29   H9    S    
O1    C3    A    
O2    C4    A    
C2    O7    A    
O24   H4    S    
C35   C37   A    
O26   H6    S    
C24   F4    S    
O5    C3    A    
C30   O22   S    
C6    O28   S    
O16   C48   A    
C23   C25   A    
C12   C14   A    
C6    C30   A    
C8    C28   A    
O12   V3    S    
O14   V4    S    
O30   H10   S    
C18   C26   A    
O14   C46   A    
C33   C35   A    
C36   F2    S    
C27   F5    S    
C9    C31   A    
C23   F3    S    
C45   O18   A    
C13   F7    S    
O18   V4    S    
C37   C39   A    
C34   F12   S    
C38   C40   A    
C19   C21   A    
O20   V3    S    
C12   F10   S    
C36   C38   A    
O11   V4    S    
C10   O30   S    
C17   C31   A    
C18   C32   A    
C5    C21   A    
O11   C47   A    
C40   C42   A    
C43   C48   S    
C42   C44   A    
C41   C43   A    
O15   C47   A    
C3    C8    S    
O13   C45   A    
C5    C29   A    
C15   C19   A    
C16   C20   A    
C5    O27   S    
O4    C2    A    
O28   H8    S    
C25   O31   S    
C9    O29   S    
O17   V3    S    
C39   C41   A    
C20   C22   A    
O4    V2    S    
O19   V4    S    
O22   H2    S    
C14   F8    S    
O25   H5    S    
O6    C4    A    
O1    V2    S    
O2    V1    S    
C6    C22   A    
C7    C27   A    
O12   C48   A    
O15   V3    S    
C9    C11   A    
C10   C12   A    
C1    C38   S    
C35   F1    S    
C17   C25   A    
C24   C26   A    
C20   C28   A    
O3    V1    S    
C10   C32   A    
C46   O17   A    
C28   F6    S    
O3    C1    A    
C42   O26   S    
C8    C30   A    
C32   C45   S    
C13   C15   A    
C44   C47   S    
O32   H12   S    
C14   C16   A    
C41   O25   S    
C26   O32   S    
C16   C18   A    
O7    V1    S    
C1    O8    A    
O8    V2    S    
C11   F9    S    
C4    C7    S    
O5    V1    S    
C21   C23   A    
C19   C27   A    
C22   C24   A    
O16   V4    S    
C2    C37   S    
C40   O24   S    
C39   O23   S    
C29   O21   S    
O23   H3    S    
C34   C36   A    
C7    C29   A    
C11   C13   A    
C33   C43   A    
O6    V2    S    
O9    V2    S    
C34   C44   A    
O31   H11   S    
O10   V1    S    
O27   H7    S    
C33   F11   S    
C31   C46   S    
O13   V3    S    
