data_mof_unit_64858.cif
_audit_creation_date              2012-12-10T19:18:40-0500
_audit_creation_method            fapswitch 2.2
_symmetry_space_group_name_H-M    P1
_symmetry_Int_Tables_number       1
_space_group_crystal_system       triclinic
_cell_length_a                    24.580726
_cell_length_b                    24.639234
_cell_length_c                    36.126478
_cell_angle_alpha                 89.959822
_cell_angle_beta                  90.092461
_cell_angle_gamma                 90.048081
_cell_volume                      21879.9692338

loop_
_atom_site_label
_atom_site_type_symbol
_atom_type_description
_atom_site_fract_x
_atom_site_fract_y
_atom_site_fract_z
_atom_type_partial_charge
C1    C     C_R   0.724094 0.231500 0.248814 0.049916
C2    C     C_R   0.272529 0.229128 0.248861 0.064385
C3    C     C_R   0.696129 0.781397 0.218630 0.404491
C4    C     C_R   0.802464 0.277785 0.776187 0.339064
C5    C     C_R   0.194703 0.724723 0.225989 0.306482
C6    C     C_R   0.738492 0.820547 0.765892 0.326001
C7    C     C_R   0.258127 0.174621 0.242064 0.349575
C8    C     C_R   0.191654 0.274407 0.220008 0.362248
C9    C     C_R   0.800651 0.717293 0.783006 0.352743
C10   C     C_R   0.254544 0.830098 0.240212 0.344032
C11   C     C_R   0.744540 0.171459 0.763404 0.352084
C12   C     C_R   0.802200 0.722263 0.223318 0.373521
C13   C     C_R   0.783334 0.260709 0.740748 0.006515
C14   C     C_R   0.196035 0.279719 0.783561 0.348710
C15   C     C_R   0.708291 0.206581 0.215395 0.345571
C16   C     C_R   0.308774 0.777861 0.781850 0.397795
C17   C     C_R   0.659576 0.174816 0.282860 0.265014
C18   C     C_R   0.341911 0.828121 0.715748 0.282316
C19   C     C_R   0.824668 0.656729 0.284847 0.248195
C20   C     C_R   0.188148 0.350328 0.722251 0.236688
C21   C     C_R   0.348172 0.818363 0.283845 0.250247
C22   C     C_R   0.654523 0.179158 0.715554 0.273373
C23   C     C_R   0.188935 0.351982 0.277616 0.264212
C24   C     C_R   0.216319 0.739410 0.261255 0.020505
C25   C     C_R   0.812890 0.648581 0.721608 0.225162
C26   C     C_R   0.639255 0.803883 0.729683 0.223715
C27   C     C_R   0.366384 0.201382 0.259608 0.235352
C28   C     C_R   0.828868 0.339634 0.713669 0.218993
C29   C     C_R   0.165493 0.663071 0.288636 0.248801
C30   C     C_R   0.367586 0.202393 0.741340 0.232423
C31   C     C_R   0.653142 0.822256 0.284767 0.336102
C32   C     C_R   0.186958 0.644641 0.718853 0.256478
C33   C     C_R   0.800663 0.362821 0.267824 0.249635
C34   C     C_R   0.155869 0.685093 0.776523 0.245514
C35   C     C_R   0.274759 0.231560 0.754439 0.063073
C36   C     C_R   0.857936 0.304032 0.229617 0.242719
C37   C     C_R   0.300476 0.136984 0.764018 0.231311
C38   C     C_R   0.666415 0.830687 0.218236 0.215358
C39   C     C_R   0.842091 0.319399 0.778991 0.247275
C40   C     C_R   0.156640 0.681846 0.222524 0.273470
C41   C     C_R   0.696580 0.859320 0.769633 0.239174
C42   C     C_R   0.299370 0.135085 0.238784 0.218323
C43   C     C_R   0.148800 0.312447 0.221620 0.233385
C44   C     C_R   0.845262 0.681156 0.781679 0.246996
C45   C     C_R   0.301493 0.861160 0.232072 0.246909
C46   C     C_R   0.715428 0.760383 0.252968 -0.082725
C47   C     C_R   0.697785 0.139147 0.769984 0.248479
C48   C     C_R   0.843418 0.682147 0.221180 0.235339
C49   C     C_R   0.150804 0.314725 0.780303 0.231038
C50   C     C_R   0.671204 0.162728 0.215930 0.253557
C51   C     C_R   0.338105 0.827604 0.783035 0.217559
C52   C     C_R   0.646306 0.148144 0.249586 -0.206089
C53   C     C_R   0.354826 0.851632 0.749581 -0.203516
C54   C     C_R   0.853208 0.648398 0.251837 -0.193254
C55   C     C_R   0.148642 0.352552 0.750731 -0.209768
C56   C     C_R   0.348025 0.856481 0.254702 -0.207253
C57   C     C_R   0.241647 0.717190 0.747420 0.029742
C58   C     C_R   0.652607 0.143015 0.745774 -0.213959
C59   C     C_R   0.148405 0.352419 0.249735 -0.222308
C60   C     C_R   0.850464 0.645735 0.751105 -0.210240
C61   C     C_R   0.647707 0.852252 0.749685 -0.203233
C62   C     C_R   0.352897 0.147848 0.249520 -0.198314
C63   C     C_R   0.853900 0.351188 0.747862 -0.195433
C64   C     C_R   0.143818 0.650489 0.253726 -0.205253
C65   C     C_R   0.353635 0.148892 0.751676 -0.200545
C66   C     C_R   0.645462 0.851096 0.251364 -0.229106
C67   C     C_R   0.149331 0.646510 0.748202 -0.205800
C68   C     C_R   0.767296 0.273913 0.248404 0.073772
C69   C     C_R   0.850497 0.353060 0.249281 -0.205922
C70   C     C_1   0.499914 0.999987 0.111604 -0.097797
C71   C     C_1   0.500092 0.999967 0.888396 -0.099656
C72   C     C_1   0.999999 0.500070 0.111619 -0.095560
C73   C     C_R   0.289628 0.757043 0.747476 -0.009829
C74   C     C_1   0.999988 0.499932 0.888380 -0.093401
C75   C     C_1   0.999908 0.500014 0.611604 -0.091926
C76   C     C_1   0.000093 0.500042 0.388396 -0.093750
C77   C     C_1   0.500013 0.000065 0.611620 -0.096773
C78   C     C_1   0.500023 0.999927 0.388380 -0.094756
C79   C     C_R   0.049363 0.498819 0.480744 -0.158426
C80   C     C_R   0.950642 0.501320 0.519255 -0.159289
C81   C     C_R   0.500566 0.049200 0.480614 -0.161219
C82   C     C_R   0.499529 0.950779 0.519385 -0.160209
C83   C     C_R   0.950673 0.501331 0.480596 -0.160196
C84   C     C_R   0.766172 0.724190 0.254150 -0.007112
C85   C     C_R   0.049332 0.498809 0.519403 -0.159107
C86   C     C_R   0.499534 0.950723 0.480723 -0.159254
C87   C     C_R   0.500561 0.049256 0.519275 -0.161146
C88   C     C_R   0.549285 0.003077 0.980741 -0.163067
C89   C     C_R   0.450731 0.996800 0.019260 -0.163592
C90   C     C_R   0.999609 0.549214 0.980613 -0.161239
C91   C     C_R   0.000356 0.450792 0.019386 -0.162005
C92   C     C_R   0.450759 0.996791 0.980601 -0.162267
C93   C     C_R   0.549257 0.003085 0.019400 -0.160647
C94   C     C_R   0.000352 0.450735 0.980725 -0.160920
C95   C     C_R   0.232266 0.274443 0.753668 0.044330
C96   C     C_R   0.999613 0.549271 0.019275 -0.161549
C97   C     C_R   0.000037 0.500077 0.461339 0.150747
C98   C     C_R   0.999967 0.500056 0.538660 0.149964
C99   C     C_R   0.500050 0.999936 0.461331 0.150570
C100  C     C_R   0.500040 0.000044 0.538668 0.150665
C101  C     C_R   0.500040 0.999933 0.961340 0.151985
C102  C     C_R   0.499975 0.999951 0.038661 0.151937
C103  C     C_R   0.999979 0.499949 0.961331 0.150835
C104  C     C_R   0.999988 0.500057 0.038668 0.150953
C105  C     C_R   0.500005 0.999976 0.348839 0.818671
C106  C     C_R   0.258283 0.784719 0.264039 0.064916
C107  C     C_R   0.500002 0.000022 0.651161 0.816637
C108  C     C_R   0.000035 0.500014 0.348862 0.829149
C109  C     C_R   0.999965 0.499998 0.651138 0.823567
C110  C     C_R   0.999995 0.499977 0.848839 0.819859
C111  C     C_R   0.000003 0.500023 0.151161 0.815211
C112  C     C_R   0.500034 0.999992 0.848863 0.817453
C113  C     C_R   0.499967 1.000000 0.151138 0.823690
C114  C     C_R   0.605396 0.895264 0.250612 0.971623
C115  C     C_R   0.394975 0.105440 0.750261 0.951051
C116  C     C_R   0.104877 0.605381 0.250330 0.976021
C117  C     C_R   0.742399 0.214721 0.737815 0.055320
C118  C     C_R   0.894538 0.395066 0.750095 0.964881
C119  C     C_R   0.394883 0.105225 0.249907 0.952975
C120  C     C_R   0.605445 0.894910 0.749868 0.933302
C121  C     C_R   0.894369 0.394776 0.249916 0.931819
C122  C     C_R   0.105214 0.605418 0.749575 0.937301
C123  C     C_R   0.605972 0.104868 0.749625 0.940177
C124  C     C_R   0.394161 0.895027 0.250413 0.936413
C125  C     C_R   0.105285 0.394529 0.749950 0.938844
C126  C     C_R   0.894879 0.605304 0.250176 0.958270
C127  C     C_R   0.395068 0.895118 0.749990 0.995097
C128  C     C_R   0.229962 0.272075 0.248950 0.035275
C129  C     C_R   0.604988 0.105140 0.249961 0.980656
C130  C     C_R   0.894277 0.604740 0.750350 0.944688
C131  C     C_R   0.105400 0.394693 0.250011 0.939987
C132  C     C_1   0.000078 0.500063 0.421662 -0.050699
C133  C     C_1   0.999925 0.500032 0.578337 -0.050577
C134  C     C_1   0.500038 0.999902 0.421649 -0.053333
C135  C     C_1   0.500026 0.000081 0.578350 -0.054233
C136  C     C_1   0.500077 0.999947 0.921663 -0.056335
C137  C     C_1   0.499934 0.999972 0.078337 -0.054965
C138  C     C_1   0.999982 0.499913 0.921650 -0.053022
C139  C     C_R   0.768290 0.725259 0.751230 0.033122
C140  C     C_1   0.999995 0.500092 0.078350 -0.054582
C141  C     C_R   0.699730 0.215854 0.282532 0.318091
C142  C     C_R   0.312399 0.779494 0.714560 0.280715
C143  C     C_R   0.783832 0.696994 0.286935 0.274408
C144  C     C_R   0.227369 0.308280 0.722474 0.348665
C145  C     C_R   0.304678 0.780812 0.287334 0.306186
C146  C     C_R   0.698941 0.215439 0.711971 0.283511
C147  C     C_R   0.228030 0.309964 0.278129 0.332461
C148  C     C_R   0.776384 0.692527 0.719639 0.347922
C149  C     C_R   0.674998 0.759842 0.734806 0.347492
C150  C     C_R   0.726529 0.769133 0.750787 0.053671
C151  C     C_R   0.327341 0.242948 0.255420 0.329346
C152  C     C_R   0.801003 0.290205 0.709399 0.340548
C153  C     C_R   0.199175 0.709251 0.292834 0.336699
C154  C     C_R   0.329080 0.244541 0.745679 0.338201
C155  C     C_R   0.684180 0.774414 0.284564 0.349228
C156  C     C_R   0.234580 0.676502 0.720266 0.311773
C157  C     C_R   0.758080 0.324298 0.265354 0.326065
C158  C     C_R   0.199862 0.722537 0.774798 0.324095
C159  C     C_R   0.817213 0.263308 0.230792 0.322122
C160  C     C_R   0.260002 0.177590 0.762485 0.337531
H1    H     H_    0.587520 0.005531 0.034240 0.154760
H2    H     H_    0.912346 0.502307 0.465754 0.154830
H3    H     H_    0.500958 0.087533 0.534017 0.154619
H4    H     H_    0.499134 0.912447 0.465981 0.156216
H5    H     H_    0.912295 0.502291 0.533987 0.155704
H6    H     H_    0.087709 0.497844 0.466012 0.156159
H7    H     H_    0.499125 0.912549 0.534219 0.155894
H8    H     H_    0.500966 0.087430 0.465780 0.154655
H9    H     H_    0.684321 0.254229 0.327566 0.359257
H10   H     H_    0.348776 0.728283 0.685052 0.369377
H11   H     H_    0.770738 0.687804 0.339874 0.362899
H12   H     H_    0.412496 0.994349 0.965762 0.153907
H13   H     H_    0.262942 0.328661 0.675608 0.358795
H14   H     H_    0.344685 0.728321 0.316735 0.348703
H15   H     H_    0.667513 0.268319 0.678773 0.328975
H16   H     H_    0.280602 0.336667 0.313597 0.353712
H17   H     H_    0.761540 0.681483 0.666681 0.361261
H18   H     H_    0.620618 0.706067 0.720365 0.358393
H19   H     H_    0.381386 0.300893 0.253102 0.359848
H20   H     H_    0.792260 0.295316 0.655880 0.367478
H21   H     H_    0.228310 0.699231 0.341736 0.359136
H22   H     H_    0.382904 0.302913 0.744827 0.354674
H23   H     H_    0.999327 0.587548 0.034015 0.155143
H24   H     H_    0.673759 0.701198 0.301516 0.348277
H25   H     H_    0.282150 0.626334 0.695454 0.339367
H26   H     H_    0.699112 0.374231 0.275978 0.349094
H27   H     H_    0.165159 0.777107 0.805577 0.346797
H28   H     H_    0.864179 0.205361 0.212293 0.357674
H29   H     H_    0.199003 0.126756 0.762716 0.354265
H30   H     H_    0.680113 0.765543 0.166634 0.355221
H31   H     H_    0.806262 0.251708 0.827109 0.359937
H32   H     H_    0.181143 0.766438 0.182090 0.360343
H33   H     H_    0.795955 0.871909 0.778843 0.359072
H34   H     H_    0.000639 0.412458 0.965984 0.155253
H35   H     H_    0.199198 0.121256 0.240007 0.363439
H36   H     H_    0.164776 0.236552 0.175666 0.362035
H37   H     H_    0.817407 0.753448 0.829833 0.357595
H38   H     H_    0.204585 0.882992 0.219312 0.355054
H39   H     H_    0.795117 0.121442 0.786811 0.350017
H40   H     H_    0.837281 0.771505 0.188655 0.344565
H41   H     H_    0.180575 0.260720 0.835387 0.359301
H42   H     H_    0.738838 0.200110 0.166145 0.352693
H43   H     H_    0.309391 0.766833 0.835681 0.359367
H44   H     H_    0.647277 0.178309 0.336753 0.358234
H45   H     H_    0.412450 0.994362 0.033996 0.153931
H46   H     H_    0.348197 0.833566 0.661421 0.388788
H47   H     H_    0.808542 0.612360 0.327245 0.334789
H48   H     H_    0.222315 0.400587 0.688605 0.337565
H49   H     H_    0.380789 0.802234 0.332318 0.357175
H50   H     H_    0.621232 0.199337 0.667250 0.358301
H51   H     H_    0.223929 0.399060 0.313928 0.341491
H52   H     H_    0.774332 0.600427 0.688615 0.349992
H53   H     H_    0.607498 0.777094 0.684300 0.355006
H54   H     H_    0.414929 0.241311 0.291616 0.355922
H55   H     H_    0.800575 0.379260 0.672142 0.335318
H56   H     H_    0.587566 0.005519 0.966005 0.154491
H57   H     H_    0.173128 0.636507 0.339836 0.348668
H58   H     H_    0.416415 0.241709 0.708889 0.356560
H59   H     H_    0.632308 0.814293 0.337059 0.396141
H60   H     H_    0.201265 0.617977 0.668259 0.370700
H61   H     H_    0.766275 0.405378 0.306962 0.356166
H62   H     H_    0.133783 0.703960 0.826963 0.356916
H63   H     H_    0.897174 0.275846 0.187190 0.349854
H64   H     H_    0.260328 0.087762 0.795877 0.356276
H65   H     H_    0.685329 0.852543 0.168443 0.353941
H66   H     H_    0.875851 0.299864 0.825565 0.340662
H67   H     H_    0.000647 0.412561 0.034220 0.155046
H68   H     H_    0.142709 0.693087 0.169226 0.358430
H69   H     H_    0.726266 0.893937 0.813240 0.353971
H70   H     H_    0.263756 0.087611 0.204329 0.354701
H71   H     H_    0.092970 0.275682 0.194131 0.342068
H72   H     H_    0.889841 0.712901 0.820210 0.339131
H73   H     H_    0.275401 0.884675 0.183694 0.357102
H74   H     H_    0.722016 0.114651 0.818766 0.357651
H75   H     H_    0.856590 0.692377 0.168221 0.358851
H76   H     H_    0.101529 0.273824 0.811167 0.350707
H77   H     H_    0.684584 0.136419 0.165741 0.344397
H78   H     H_    0.999319 0.587445 0.965778 0.155427
H79   H     H_    0.324880 0.849641 0.833497 0.345857
H80   H     H_    0.087659 0.497829 0.534245 0.156556
O1    O     O_3   0.500000 0.000000 0.250000 -0.549960
O2    O     O_R   0.500000 0.045450 0.668550 -0.627150
O3    O     O_3   0.794314 0.410439 0.287585 -0.716797
O4    O     O_3   0.118505 0.685421 0.805098 -0.717895
O5    O     O_3   0.905590 0.296213 0.210069 -0.712673
O6    O     O_3   0.288626 0.085225 0.776400 -0.717216
O7    O     O_3   0.654243 0.857350 0.185592 -0.732766
O8    O     O_3   0.865353 0.333593 0.812495 -0.715491
O9    O     O_3   0.133353 0.667170 0.189011 -0.721539
O10   O     O_3   0.703121 0.904372 0.791827 -0.705230
O11   O     O_3   0.287724 0.083570 0.226220 -0.712437
O12   O     O_3   0.108731 0.312738 0.194915 -0.701475
O13   O     O_R   0.045450 0.500000 0.331450 -0.614599
O14   O     O_3   0.880920 0.676127 0.811015 -0.702199
O15   O     O_3   0.302588 0.896469 0.202244 -0.705403
O16   O     O_3   0.695444 0.103588 0.799555 -0.705002
O17   O     O_3   0.874556 0.674965 0.189698 -0.721316
O18   O     O_3   0.108849 0.312657 0.805581 -0.714077
O19   O     O_3   0.654826 0.136238 0.184047 -0.716226
O20   O     O_3   0.355272 0.850955 0.815680 -0.736220
O21   O     O_R   0.954550 0.500000 0.668550 -0.617042
O22   O     O_R   0.000000 0.545450 0.831450 -0.619897
O23   O     O_R   1.000000 0.454550 0.168550 -0.625716
O24   O     O_R   0.454550 1.000000 0.831450 -0.626972
O25   O     O_R   0.545450 0.000000 0.168550 -0.614842
O26   O     O_R   0.000000 0.454550 0.831450 -0.620427
O27   O     O_R   1.000000 0.545450 0.168550 -0.619859
O28   O     O_R   0.545450 1.000000 0.831450 -0.626123
O29   O     O_3   0.500000 0.000000 0.750000 -0.550408
O30   O     O_R   0.454550 0.000000 0.168550 -0.632821
O31   O     O_R   0.564020 0.890520 0.271340 -0.598857
O32   O     O_R   0.435980 0.109480 0.728660 -0.594616
O33   O     O_R   0.109480 0.564020 0.271340 -0.603187
O34   O     O_R   0.890520 0.435980 0.728660 -0.597659
O35   O     O_R   0.435980 0.109480 0.271340 -0.598708
O36   O     O_R   0.564020 0.890520 0.728660 -0.589998
O37   O     O_R   0.890520 0.435980 0.271340 -0.592663
O38   O     O_R   0.109480 0.564020 0.728660 -0.591451
O39   O     O_R   0.564020 0.109480 0.728660 -0.578902
O40   O     O_3   0.000000 0.500000 0.250000 -0.548569
O41   O     O_R   0.435980 0.890520 0.271340 -0.587983
O42   O     O_R   0.109480 0.435980 0.728660 -0.596302
O43   O     O_R   0.890520 0.564020 0.271340 -0.607695
O44   O     O_R   0.435980 0.890520 0.728660 -0.602271
O45   O     O_R   0.564020 0.109480 0.271340 -0.590761
O46   O     O_R   0.890520 0.564020 0.728660 -0.592873
O47   O     O_R   0.109480 0.435980 0.271340 -0.596658
O48   O     O_R   0.064020 0.390520 0.771340 -0.591418
O49   O     O_R   0.935980 0.609480 0.228660 -0.592207
O50   O     O_R   0.609480 0.064020 0.771340 -0.585745
O51   O     O_3   1.000000 0.500000 0.750000 -0.549301
O52   O     O_R   0.390520 0.935980 0.228660 -0.581964
O53   O     O_R   0.935980 0.609480 0.771340 -0.596277
O54   O     O_R   0.064020 0.390520 0.228660 -0.587247
O55   O     O_R   0.390520 0.935980 0.771340 -0.606361
O56   O     O_R   0.609480 0.064020 0.228660 -0.612066
O57   O     O_R   0.064020 0.609480 0.228660 -0.600266
O58   O     O_R   0.935980 0.390520 0.771340 -0.608945
O59   O     O_R   0.609480 0.935980 0.228660 -0.606396
O60   O     O_R   0.390520 0.064020 0.771340 -0.598993
O61   O     O_R   0.935980 0.390520 0.228660 -0.589784
O62   O     O_R   0.500000 0.045450 0.331450 -0.627203
O63   O     O_R   0.064020 0.609480 0.771340 -0.592240
O64   O     O_R   0.390520 0.064020 0.228660 -0.596380
O65   O     O_R   0.609480 0.935980 0.771340 -0.587199
O66   O     O_3   0.717082 0.239904 0.314961 -0.713841
O67   O     O_3   0.315365 0.751004 0.682224 -0.671616
O68   O     O_3   0.769148 0.717010 0.321085 -0.675147
O69   O     O_3   0.259447 0.296655 0.691852 -0.707967
O70   O     O_3   0.306890 0.740501 0.313424 -0.746780
O71   O     O_3   0.702461 0.248231 0.681226 -0.713350
O72   O     O_3   0.261526 0.302128 0.308383 -0.704788
O73   O     O_R   0.500000 0.954550 0.668550 -0.619907
O74   O     O_3   0.749497 0.705416 0.687055 -0.708248
O75   O     O_3   0.660285 0.707573 0.725172 -0.706790
O76   O     O_3   0.341664 0.297215 0.256794 -0.748711
O77   O     O_3   0.798176 0.266574 0.674629 -0.649260
O78   O     O_3   0.209820 0.728740 0.327802 -0.668660
O79   O     O_3   0.343110 0.298666 0.741783 -0.730971
O80   O     O_3   0.673648 0.737896 0.312614 -0.708982
O81   O     O_3   0.274931 0.666236 0.695239 -0.711378
O82   O     O_3   0.706583 0.335039 0.278729 -0.741792
O83   O     O_3   0.202326 0.765792 0.799035 -0.736932
O84   O     O_R   0.954550 0.500000 0.331450 -0.623942
O85   O     O_3   0.824957 0.212447 0.215604 -0.751344
O86   O     O_3   0.205525 0.165678 0.767763 -0.716962
O87   O     O_3   0.700615 0.749286 0.187440 -0.697653
O88   O     O_3   0.778350 0.256705 0.807725 -0.704764
O89   O     O_3   0.213390 0.750339 0.194545 -0.721735
O90   O     O_3   0.791471 0.832202 0.776217 -0.742661
O91   O     O_3   0.203573 0.161153 0.239502 -0.723506
O92   O     O_3   0.199035 0.240673 0.189753 -0.706617
O93   O     O_3   0.784912 0.742179 0.815612 -0.701579
O94   O     O_3   0.204134 0.844114 0.226336 -0.737725
O95   O     O_R   0.045450 0.500000 0.668550 -0.616996
O96   O     O_3   0.793522 0.160583 0.780660 -0.730371
O97   O     O_3   0.800011 0.763203 0.197208 -0.715593
O98   O     O_3   0.206243 0.250291 0.815626 -0.709704
O99   O     O_3   0.725928 0.229386 0.182549 -0.709645
O100  O     O_3   0.302201 0.745746 0.813083 -0.696189
O101  O     O_3   0.634327 0.157595 0.315105 -0.721504
O102  O     O_3   0.361668 0.852495 0.683585 -0.723175
O103  O     O_3   0.841365 0.629228 0.316146 -0.710909
O104  O     O_3   0.185062 0.386732 0.693310 -0.703662
O105  O     O_3   0.391747 0.817839 0.308273 -0.709599
O106  O     O_R   0.500000 0.954550 0.331450 -0.616582
O107  O     O_3   0.613099 0.176667 0.689456 -0.703332
O108  O     O_3   0.186683 0.390316 0.305491 -0.696701
O109  O     O_3   0.812854 0.608865 0.694671 -0.714117
O110  O     O_3   0.595912 0.799862 0.705461 -0.710222
O111  O     O_3   0.418018 0.212518 0.272569 -0.716690
O112  O     O_3   0.836563 0.374280 0.684174 -0.710928
O113  O     O_3   0.148332 0.632273 0.318601 -0.712842
O114  O     O_3   0.419139 0.212729 0.727871 -0.715463
O115  O     O_3   0.626702 0.839994 0.316329 -0.711038
O116  O     O_3   0.176283 0.610602 0.689052 -0.710180
Zn1   Zn    Zn3+2 0.564990 1.000000 0.219470 1.034455
Zn2   Zn    Zn3+2 0.935010 0.500000 0.280530 1.030440
Zn3   Zn    Zn3+2 0.500000 0.064990 0.719470 1.037638
Zn4   Zn    Zn3+2 0.500000 0.935010 0.280530 1.041594
Zn5   Zn    Zn3+2 0.935010 0.500000 0.719470 1.039755
Zn6   Zn    Zn3+2 0.064990 0.500000 0.280530 1.039319
Zn7   Zn    Zn3+2 0.500000 0.935010 0.719470 1.039545
Zn8   Zn    Zn3+2 0.500000 0.064990 0.280530 1.038620
Zn9   Zn    Zn3+2 0.435010 0.000000 0.780530 1.032316
Zn10  Zn    Zn3+2 0.000000 0.564990 0.219470 1.041214
Zn11  Zn    Zn3+2 1.000000 0.435010 0.780530 1.032579
Zn12  Zn    Zn3+2 0.435010 1.000000 0.219470 1.036520
Zn13  Zn    Zn3+2 0.564990 0.000000 0.780530 1.038501
Zn14  Zn    Zn3+2 0.000000 0.435010 0.219470 1.032142
Zn15  Zn    Zn3+2 1.000000 0.564990 0.780530 1.033456
Zn16  Zn    Zn3+2 0.064990 0.500000 0.719470 1.034465

loop_
_geom_bond_atom_site_label_1
_geom_bond_atom_site_label_2
_ccdc_geom_bond_type
H65   O7    S    
C3    O87   S    
C108  O13   A    
C108  O84   A    
C20   C144  A    
C35   C154  A    
C41   C61   A    
O29   Zn7   S    
C114  O31   A    
H48   O104  S    
O50   Zn13  S    
C46   C155  A    
C59   C131  S    
C37   C160  A    
O84   Zn2   S    
O28   Zn13  S    
C123  O39   A    
C155  O80   S    
C20   O104  S    
C1    C68   S    
C12   C84   A    
C7    C42   A    
H58   O114  S    
C89   H45   S    
C45   C56   A    
C147  O72   S    
O52   Zn12  S    
C50   C52   A    
C152  O77   S    
C1    C15   A    
C25   C60   A    
O31   Zn4   S    
C30   O114  S    
H37   O93   S    
C100  C135  S    
C33   C69   A    
H42   O99   S    
O36   Zn7   S    
C91   H67   S    
O60   Zn9   S    
C29   C64   A    
C95   C144  A    
O95   Zn16  S    
C80   C83   A    
H18   O75   S    
C17   C52   A    
C12   O97   S    
C73   C142  A    
C5    O89   S    
H11   O68   S    
C11   O96   S    
C90   H78   S    
O2    Zn3   S    
C97   C132  S    
C109  O95   A    
C63   C118  S    
C23   O108  S    
C81   C99   A    
C104  C140  S    
C117  C146  A    
C34   C67   A    
C74   C110  S    
C126  O49   A    
C54   C126  S    
O32   Zn3   S    
C31   C155  A    
C158  O83   S    
C93   H1    S    
C126  O43   A    
H13   O69   S    
O51   Zn16  S    
C21   O105  S    
C86   C99   A    
C78   C134  T    
C62   C119  S    
C112  O24   A    
C46   C84   S    
O73   Zn7   S    
C42   O11   S    
O57   Zn10  S    
C96   C104  A    
C114  O59   A    
O47   Zn6   S    
H74   O16   S    
C14   C95   A    
C79   C85   A    
O1    Zn4   S    
C127  O55   A    
H68   O9    S    
H21   O78   S    
C3    C46   A    
C94   H34   S    
C79   C97   A    
C26   C149  A    
H50   O107  S    
C121  O37   A    
C124  O52   A    
C22   C58   A    
C128  C147  A    
C31   O115  S    
C139  C150  S    
H76   O18   S    
C129  O56   A    
C129  O45   A    
C111  O27   A    
C47   O16   S    
C91   C94   A    
C92   H12   S    
C6    O90   S    
O40   Zn2   S    
C148  O74   S    
C39   O8    S    
C28   C63   A    
C30   C154  A    
H54   O111  S    
C15   O99   S    
C143  O68   S    
O29   Zn13  S    
O1    Zn8   S    
O65   Zn13  S    
C51   O20   S    
C2    C7    A    
C16   C51   A    
O58   Zn11  S    
O59   Zn1   S    
O21   Zn5   S    
C23   C59   A    
H28   O85   S    
H30   O87   S    
C153  O78   S    
O54   Zn14  S    
C14   O98   S    
O44   Zn7   S    
C141  O66   S    
C4    O88   S    
C57   C73   S    
C123  O50   A    
C32   C156  A    
C145  O70   S    
C8    C128  A    
O39   Zn3   S    
C22   C146  A    
C37   C65   A    
H29   O86   S    
C120  O65   A    
O45   Zn8   S    
C119  O64   A    
O29   Zn3   S    
C42   C62   A    
C36   C159  A    
C43   C59   A    
C61   C120  S    
C36   O5    S    
C65   C115  S    
C122  O38   A    
C120  O36   A    
C70   C113  S    
C57   C156  A    
H43   O100  S    
C118  O58   A    
C71   C136  T    
H27   O83   S    
C49   C55   A    
C99   C134  S    
C51   C53   A    
C102  C137  S    
C127  O44   A    
H32   O89   S    
H24   O80   S    
C25   O109  S    
C27   C62   A    
C107  O73   A    
C27   O111  S    
H40   O97   S    
H49   O105  S    
C71   C112  S    
C10   C45   A    
O106  Zn4   S    
C32   C67   A    
C17   O101  S    
C19   C54   A    
H64   O6    S    
C83   H2    S    
C116  O57   A    
C19   O103  S    
C33   O3    S    
C24   C106  S    
C43   O12   S    
C96   H23   S    
H70   O11   S    
C16   O100  S    
O51   Zn11  S    
C87   C100  A    
H61   O3    S    
C112  O28   A    
C160  O86   S    
H33   O90   S    
C154  O79   S    
C90   C96   A    
C28   O112  S    
C85   H80   S    
H14   O70   S    
O34   Zn5   S    
O24   Zn9   S    
C76   C132  T    
C146  O71   S    
C116  O33   A    
O42   Zn16  S    
C30   C65   A    
H35   O91   S    
O55   Zn9   S    
O25   Zn1   S    
C7    O91   S    
C57   C158  A    
C64   C116  S    
O48   Zn11  S    
H36   O92   S    
C11   C47   A    
C8    C43   A    
C118  O34   A    
C12   C48   A    
C156  O81   S    
C9    O93   S    
H63   O5    S    
O30   Zn12  S    
C74   C138  T    
C98   C133  S    
C58   C123  S    
C106  C145  A    
C52   C129  S    
C56   C124  S    
C26   C61   A    
C159  O85   S    
H31   O88   S    
C17   C141  A    
C105  O106  A    
C35   C160  A    
O29   Zn9   S    
H19   O76   S    
C53   C127  S    
C18   C53   A    
H59   O115  S    
O56   Zn1   S    
O1    Zn12  S    
C55   C125  S    
C9    C44   A    
O62   Zn8   S    
C41   O10   S    
O51   Zn15  S    
H38   O94   S    
C29   O113  S    
C82   H7    S    
O35   Zn8   S    
O38   Zn16  S    
C72   C111  S    
C76   C108  S    
C33   C157  A    
C48   O17   S    
C34   O4    S    
C122  O63   A    
H79   O20   S    
O40   Zn10  S    
C103  C138  S    
C82   C86   A    
C23   C147  A    
C37   O6    S    
C131  O54   A    
C115  O60   A    
C21   C145  A    
C48   C54   A    
H46   O102  S    
C10   O94   S    
H72   O14   S    
O26   Zn11  S    
H66   O8    S    
C81   C87   A    
C92   C101  A    
O37   Zn2   S    
H39   O96   S    
O64   Zn12  S    
C94   C103  A    
O46   Zn5   S    
C86   H4    S    
C109  O21   A    
C68   C157  A    
C80   H5    S    
C8    O92   S    
C24   C153  A    
C2    C151  A    
C27   C151  A    
C66   C114  S    
C80   C98   A    
C139  C148  A    
C13   C152  A    
H57   O113  S    
C93   C102  A    
C21   C56   A    
C13   C117  S    
C22   O107  S    
C75   C133  T    
C35   C95   S    
H53   O110  S    
C142  O67   S    
H52   O109  S    
H55   O112  S    
C149  C150  A    
C9    C139  A    
C44   C60   A    
C81   H8    S    
C25   C148  A    
C105  O62   A    
C90   C103  A    
C1    C141  A    
C119  O35   A    
C6    C150  A    
H9    O66   S    
C70   C137  T    
C83   C97   A    
C5    C40   A    
C10   C106  A    
H25   O81   S    
C2    C128  S    
C31   C66   A    
C87   H3    S    
O40   Zn14  S    
C89   C102  A    
C91   C104  A    
C88   C101  A    
C124  O41   A    
O63   Zn15  S    
C130  O53   A    
C78   C105  S    
O23   Zn14  S    
C14   C49   A    
C50   O19   S    
C157  O82   S    
C15   C50   A    
C4    C13   A    
C85   C98   A    
C144  O69   S    
O61   Zn14  S    
C38   C66   A    
C3    C38   A    
C6    C41   A    
H77   O19   S    
C107  O2    A    
O13   Zn6   S    
C68   C159  A    
H69   O10   S    
H47   O103  S    
C125  O48   A    
O27   Zn10  S    
H51   O108  S    
C20   C55   A    
H71   O12   S    
H44   O101  S    
C149  O75   S    
H20   O77   S    
C75   C109  S    
H22   O79   S    
C16   C73   A    
C77   C107  S    
C113  O30   A    
C110  O26   A    
C60   C130  S    
H62   O4    S    
C115  O32   A    
C84   C143  A    
H26   O82   S    
C121  O61   A    
C26   O110  S    
O51   Zn5   S    
C49   O18   S    
C4    C39   A    
C69   C121  S    
H10   O67   S    
H75   O17   S    
C89   C92   A    
C111  O23   A    
C18   O102  S    
C34   C158  A    
H15   O71   S    
C45   O15   S    
C28   C152  A    
C151  O76   S    
O40   Zn6   S    
C72   C140  T    
C11   C117  A    
C67   C122  S    
C36   C69   A    
C29   C153  A    
C101  C136  S    
C88   C93   A    
C18   C142  A    
C19   C143  A    
C88   H56   S    
C82   C100  A    
H17   O74   S    
H41   O98   S    
O41   Zn4   S    
O53   Zn15  S    
C39   C63   A    
O43   Zn2   S    
C40   C64   A    
O33   Zn6   S    
C47   C58   A    
C131  O47   A    
C40   O9    S    
C44   O14   S    
C5    C24   A    
C38   O7    S    
C130  O46   A    
C79   H6    S    
C113  O25   A    
O22   Zn15  S    
C110  O22   A    
H73   O15   S    
C125  O42   A    
H60   O116  S    
O1    Zn1   S    
H16   O72   S    
O49   Zn10  S    
C77   C135  T    
C32   O116  S    
