data_mof_unit_39117.cif
_audit_creation_date              2012-12-10T17:17:52-0500
_audit_creation_method            fapswitch 2.2
_symmetry_space_group_name_H-M    P1
_symmetry_Int_Tables_number       1
_space_group_crystal_system       triclinic
_cell_length_a                    14.865812
_cell_length_b                    15.67801
_cell_length_c                    9.618799
_cell_angle_alpha                 89.983013
_cell_angle_beta                  90.037995
_cell_angle_gamma                 90.329149
_cell_volume                      2241.78078553

loop_
_atom_site_label
_atom_site_type_symbol
_atom_type_description
_atom_site_fract_x
_atom_site_fract_y
_atom_site_fract_z
_atom_type_partial_charge
C1    C     C_R   0.381613 0.881123 0.499416 0.842627
C2    C     C_R   0.378810 0.116553 0.500299 0.815238
C3    C     C_R   0.881603 0.381132 0.499416 0.842621
C4    C     C_R   0.878800 0.616545 0.500300 0.815207
C5    C     C_R   0.311350 0.246999 0.403711 0.376923
C6    C     C_R   0.336801 0.731216 0.470616 0.363927
C7    C     C_R   0.811233 0.746902 0.403565 0.376934
C8    C     C_R   0.836772 0.231257 0.470269 0.363921
C9    C     C_R   0.746103 0.809058 0.404101 -0.199930
C10   C     C_R   0.771713 0.167778 0.472108 -0.233675
C11   C     C_R   0.246225 0.309163 0.404248 -0.200023
C12   C     C_R   0.271735 0.667746 0.472475 -0.233747
C13   C     C_R   0.676690 0.807274 0.501095 -0.114059
C14   C     C_R   0.682432 0.187802 0.500686 -0.124380
C15   C     C_R   0.176721 0.307298 0.501085 -0.114039
C16   C     C_R   0.182419 0.687815 0.500694 -0.124370
C17   C     C_R   0.665360 0.001009 0.144082 -0.112667
C18   C     C_R   0.165359 0.501027 0.144084 -0.112551
C19   C     C_R   0.746249 0.001577 0.072072 -0.160441
C20   C     C_R   0.246248 0.501617 0.072076 -0.160528
C21   C     C_R   0.746282 0.001530 0.928732 -0.157059
C22   C     C_R   0.246282 0.501577 0.928737 -0.157113
C23   C     C_R   0.665424 0.000884 0.856420 -0.108349
C24   C     C_R   0.165425 0.500907 0.856421 -0.108246
C25   C     C_R   0.581294 0.000555 0.925401 0.182025
C26   C     C_R   0.081294 0.500568 0.925401 0.182044
C27   C     C_R   0.581266 0.000535 0.074885 0.149257
C28   C     C_R   0.081266 0.500546 0.074886 0.149242
C29   C     C_R   0.422438 0.999186 0.072600 0.486453
C30   C     C_R   0.922439 0.499172 0.072601 0.486542
C31   C     C_R   0.618178 0.118815 0.500145 0.789083
C32   C     C_R   0.615367 0.878741 0.500278 0.815174
C33   C     C_R   0.118159 0.618832 0.500147 0.789009
C34   C     C_R   0.115381 0.378752 0.500275 0.815017
C35   C     C_R   0.422924 0.998721 0.925331 -0.080132
C36   C     C_R   0.922926 0.498698 0.925334 -0.080136
C37   C     C_R   0.225305 0.107144 0.694841 -0.178871
C38   C     C_R   0.193093 0.923988 0.518835 -0.139189
C39   C     C_R   0.725426 0.607263 0.695148 -0.178789
C40   C     C_R   0.693090 0.423953 0.519475 -0.139198
C41   C     C_R   0.153196 0.103051 0.786882 -0.161674
C42   C     C_R   0.103135 0.944561 0.541325 -0.148350
C43   C     C_R   0.653408 0.603248 0.787364 -0.161706
C44   C     C_R   0.603149 0.444488 0.542218 -0.148331
C45   C     C_R   0.587115 0.665168 0.783582 0.016163
C46   C     C_R   0.539329 0.379995 0.560591 0.044666
C47   C     C_R   0.086900 0.164971 0.783079 0.016246
C48   C     C_R   0.039289 0.880096 0.559739 0.044659
C49   C     C_R   0.593858 0.732131 0.688738 -0.123703
C50   C     C_R   0.564906 0.294547 0.549235 -0.130913
C51   C     C_R   0.093729 0.232014 0.688394 -0.123781
C52   C     C_R   0.064857 0.794630 0.548645 -0.130975
C53   C     C_R   0.668463 0.739384 0.597413 0.108873
C54   C     C_R   0.655488 0.272857 0.522716 0.086348
C55   C     C_R   0.168413 0.239335 0.597244 0.108845
C56   C     C_R   0.155459 0.772899 0.522390 0.086271
C57   C     C_R   0.235021 0.175197 0.598691 0.049147
C58   C     C_R   0.220927 0.838232 0.514088 0.040833
C59   C     C_R   0.735071 0.675246 0.598848 0.049186
C60   C     C_R   0.720935 0.338206 0.514425 0.040902
C61   C     C_R   0.307400 0.180020 0.501356 -0.184262
C62   C     C_R   0.312211 0.816059 0.496277 -0.150584
C63   C     C_R   0.807374 0.680000 0.501360 -0.184369
C64   C     C_R   0.812202 0.316066 0.496279 -0.150631
Cu1   Cu    Cu3+1 0.499990 0.000000 0.640660 0.940247
Cu2   Cu    Cu3+1 0.999990 0.500000 0.640660 0.940272
Cu3   Cu    Cu3+1 0.500010 1.000000 0.359340 1.045971
Cu4   Cu    Cu3+1 0.000010 0.500000 0.359340 1.046037
H1    H     H_    0.809508 0.001946 0.872869 0.181711
H2    H     H_    0.309509 0.502012 0.872879 0.181766
H3    H     H_    0.673003 0.000545 0.746708 0.201348
H4    H     H_    0.173005 0.500553 0.746710 0.201333
H5    H     H_    0.359861 0.996945 0.869743 0.155465
H6    H     H_    0.859864 0.496891 0.869752 0.155380
H7    H     H_    0.270453 0.054057 0.698290 0.154781
H8    H     H_    0.240348 0.975442 0.501436 0.135204
H9    H     H_    0.770549 0.554163 0.698590 0.154816
H10   H     H_    0.740317 0.475425 0.502067 0.135025
H11   H     H_    0.147853 0.049768 0.858300 0.172232
H12   H     H_    0.083312 0.010923 0.544443 0.179588
H13   H     H_    0.648125 0.550018 0.858897 0.172347
H14   H     H_    0.583310 0.510843 0.545525 0.179527
H15   H     H_    0.538268 0.776051 0.684818 0.177147
H16   H     H_    0.513764 0.245635 0.560267 0.141843
H17   H     H_    0.038156 0.275955 0.684458 0.177021
H18   H     H_    0.013703 0.745733 0.559717 0.141742
H19   H     H_    0.751819 0.861410 0.330910 0.171325
H20   H     H_    0.790824 0.102283 0.451773 0.165889
H21   H     H_    0.252003 0.361574 0.331180 0.171207
H22   H     H_    0.290862 0.602223 0.452409 0.165851
H23   H     H_    0.672930 0.000837 0.253763 0.182968
H24   H     H_    0.172929 0.500841 0.253764 0.182967
H25   H     H_    0.809428 0.001957 0.128240 0.182919
H26   H     H_    0.309428 0.502007 0.128245 0.182918
N1    N     N_R   0.501200 0.000000 0.147910 -0.226794
N2    N     N_R   0.001200 0.500000 0.147910 -0.226783
N3    N     N_R   0.501270 0.000000 0.852040 -0.226908
N4    N     N_R   0.001270 0.500000 0.852040 -0.226880
O1    O     O_R   0.409820 0.909830 0.618810 -0.605591
O2    O     O_R   0.409820 0.090170 0.618810 -0.603058
O3    O     O_R   0.909820 0.409830 0.618810 -0.605636
O4    O     O_R   0.909820 0.590170 0.618810 -0.603067
O5    O     O_R   0.409840 0.909830 0.381240 -0.505895
O6    O     O_R   0.409840 0.090170 0.381240 -0.479727
O7    O     O_R   0.909840 0.409830 0.381240 -0.505762
O8    O     O_R   0.909840 0.590170 0.381240 -0.479691
O9    O     O_R   0.590170 0.090170 0.618760 -0.598157
O10   O     O_R   0.590170 0.909830 0.618760 -0.618941
O11   O     O_R   0.090170 0.590170 0.618760 -0.598120
O12   O     O_R   0.090170 0.409830 0.618760 -0.618863
O13   O     O_R   0.590190 0.090180 0.381190 -0.574790
O14   O     O_R   0.590190 0.909820 0.381190 -0.588503
O15   O     O_R   0.090190 0.590180 0.381190 -0.574860
O16   O     O_R   0.090190 0.409820 0.381190 -0.588400
Cl1   Cl    Cl    0.400112 0.260368 0.283346 -0.586161
Cl2   Cl    Cl    0.448096 0.702308 0.430390 -0.645338
Cl3   Cl    Cl    0.899891 0.760211 0.282994 -0.586161
Cl4   Cl    Cl    0.948033 0.202405 0.429703 -0.645158
C65   C     C_1   0.510448 0.658795 0.874627 0.268973
N5    N     N_1   0.448824 0.653687 0.947684 -0.238822
C66   C     C_1   0.447270 0.401837 0.589673 0.277652
N6    N     N_1   0.373447 0.419723 0.613421 -0.321026
C67   C     C_1   0.010155 0.158530 0.873953 0.268986
N7    N     N_1   0.948468 0.153369 0.946873 -0.239057
C68   C     C_1   0.947227 0.901990 0.588674 0.277668
N8    N     N_1   0.873403 0.919925 0.612319 -0.321106
Cl5   Cl    Cl    0.317138 0.998770 0.155118 -0.573793
Cl6   Cl    Cl    0.817139 0.498747 0.155119 -0.573691

loop_
_geom_bond_atom_site_label_1
_geom_bond_atom_site_label_2
_ccdc_geom_bond_type
C58   C62   A    
Cu2   Cu4   S    
C42   H12   S    
Cu2   N4    S    
C40   C60   A    
C7    Cl3   S    
C13   C32   S    
C27   N1    A    
C17   H23   S    
C14   C31   S    
C1    C62   S    
C1    O1    A    
C53   C59   A    
Cu3   O5    S    
C67   N7    T    
C38   H8    S    
C3    C64   S    
C3    O7    A    
C4    C63   S    
C10   H20   S    
Cu4   N2    S    
Cu2   O4    S    
C39   H9    S    
C12   H22   S    
C19   C21   A    
C24   C26   A    
C38   C42   A    
C44   H14   S    
C6    C12   A    
C49   C53   A    
C9    C13   A    
C30   N2    A    
C48   C68   S    
C38   C58   A    
C11   C15   A    
C29   Cl5   S    
C12   C16   A    
Cu1   Cu3   S    
C4    O4    A    
C46   C66   S    
C2    O6    A    
C1    O5    A    
C15   C34   S    
C51   C55   A    
C19   H25   S    
C2    C61   S    
Cu4   O15   S    
Cu1   O9    S    
C33   O15   A    
C3    O3    A    
C46   C50   A    
C37   H7    S    
C2    O2    A    
C5    Cl1   S    
Cu3   N1    S    
Cu2   O3    S    
C51   H17   S    
Cu4   O8    S    
C44   C46   A    
Cu3   O6    S    
C13   C53   A    
C30   Cl6   S    
C8    Cl4   S    
C17   C27   A    
C23   H3    S    
C18   C28   A    
Cu1   O1    S    
C10   C14   A    
C29   N1    A    
C39   C43   A    
C6    Cl2   S    
C4    O8    A    
Cu2   O12   S    
C21   H1    S    
C60   C64   A    
C15   C55   A    
C42   C48   A    
C16   C56   A    
C16   C33   S    
C11   H21   S    
C47   C67   S    
C45   C49   A    
C39   C59   A    
C41   C47   A    
C5    C61   A    
Cu1   O10   S    
C50   C54   A    
C54   C60   A    
C57   C61   A    
C43   C45   A    
C7    C63   A    
C66   N6    T    
C36   H6    S    
C8    C64   A    
C40   H10   S    
C25   N3    A    
C14   C54   A    
C26   N4    A    
C21   C23   A    
C68   N8    T    
C34   O12   A    
C22   C24   A    
C59   C63   A    
C34   O16   A    
Cu4   O7    S    
C40   C44   A    
C24   H4    S    
Cu3   O13   S    
C7    C9    A    
C20   H26   S    
C35   H5    S    
C32   O14   A    
C31   O9    A    
Cu1   O2    S    
C20   C22   A    
C41   H11   S    
C47   C51   A    
C65   N5    T    
C5    C11   A    
C25   C27   A    
C29   C35   A    
C26   C28   A    
C30   C36   A    
C6    C62   A    
C28   N2    A    
C18   H24   S    
C49   H15   S    
C55   C57   A    
Cu1   N3    S    
C9    H19   S    
C45   C65   S    
C43   H13   S    
C52   H18   S    
C17   C19   A    
C56   C58   A    
C50   H16   S    
C18   C20   A    
C23   C25   A    
Cu2   O11   S    
C37   C41   A    
Cu3   O14   S    
C48   C52   A    
C33   O11   A    
C8    C10   A    
C32   O10   A    
C31   O13   A    
C36   N4    A    
C35   N3    A    
C22   H2    S    
C37   C57   A    
C52   C56   A    
Cu4   O16   S    
