data_mof_unit_19288.cif
_audit_creation_date              2012-12-10T19:08:47-0500
_audit_creation_method            fapswitch 2.2
_symmetry_space_group_name_H-M    P1
_symmetry_Int_Tables_number       1
_space_group_crystal_system       triclinic
_cell_length_a                    13.061612
_cell_length_b                    13.57603
_cell_length_c                    26.587335
_cell_angle_alpha                 89.688401
_cell_angle_beta                  93.549248
_cell_angle_gamma                 85.745195
_cell_volume                      4692.3450398

loop_
_atom_site_label
_atom_site_type_symbol
_atom_type_description
_atom_site_fract_x
_atom_site_fract_y
_atom_site_fract_z
_atom_type_partial_charge
C1    C     C_R   0.481187 0.685359 0.499342 0.875455
C2    C     C_R   0.345289 0.384462 0.128599 -0.013353
C3    C     C_R   0.500226 0.493400 0.650460 -0.132880
C4    C     C_R   0.501110 0.468926 0.352287 -0.110167
C5    C     C_R   0.315764 0.373727 0.022919 0.061119
C6    C     C_R   0.463605 0.266328 0.967340 0.060728
C7    C     C_R   0.475486 0.266286 0.020839 0.002658
C8    C     C_R   0.311987 0.384623 0.969582 0.002726
C9    C     C_R   0.402872 0.322057 0.048325 0.071576
C10   C     C_R   0.388072 0.333163 0.942373 0.072139
C11   C     C_R   0.238122 0.416960 0.052211 -0.229518
C12   C     C_R   0.518793 0.314717 0.499917 0.870147
C13   C     C_R   0.527191 0.204787 0.937545 -0.225438
C14   C     C_R   0.253066 0.422585 0.104108 -0.143789
C15   C     C_R   0.527482 0.219753 0.885888 -0.152460
C16   C     C_R   0.500570 0.497810 0.595235 0.870373
C17   C     C_R   0.499821 0.499031 0.404909 0.869065
C18   C     C_R   0.238605 0.450603 0.943075 -0.212035
C19   C     C_R   0.560930 0.216385 0.047439 -0.219592
C20   C     C_1   0.533644 0.212162 0.493843 -0.115923
C21   C     C_1   0.466206 0.788093 0.492261 -0.119031
C22   C     C_2   0.544839 0.022038 0.479130 -0.123069
C23   C     C_R   0.390902 0.350246 0.889967 -0.066712
C24   C     C_2   0.454690 0.978378 0.476021 -0.122194
C25   C     C_1   0.457435 0.874718 0.484562 0.046135
C26   C     C_1   0.542188 0.125604 0.487024 0.033384
C27   C     C_2   0.032762 0.475791 0.483849 -0.205493
C28   C     C_2   0.967405 0.522650 0.516496 -0.203130
C29   C     C_1   0.854738 0.518031 0.511027 0.228283
C30   C     C_1   0.145333 0.481342 0.489130 0.243247
C31   C     C_R   0.334066 0.437409 0.812706 0.501461
C32   C     C_R   0.529441 0.311345 0.178395 0.472192
C33   C     C_R   0.476564 0.324102 0.812614 0.522855
C34   C     C_R   0.419170 0.329937 0.101368 -0.070765
C35   C     C_R   0.366213 0.402204 0.179685 0.483308
C36   C     C_R   0.566286 0.437759 0.734284 0.139528
C37   C     C_R   0.518277 0.495584 0.262637 0.101231
C38   C     C_R   0.578096 0.439900 0.681586 0.059705
C39   C     C_R   0.525027 0.531642 0.312840 0.090612
C40   C     C_R   0.421579 0.549615 0.672956 -0.248870
C41   C     C_R   0.471961 0.373600 0.342512 -0.237399
C42   C     C_R   0.410850 0.542644 0.724767 0.163020
C43   C     C_R   0.461123 0.338193 0.293476 0.132933
C44   C     C_R   0.467378 0.463897 0.751605 0.130077
C45   C     C_R   0.319895 0.419649 0.864307 -0.077032
C46   C     C_R   0.482343 0.400446 0.253453 0.240100
C47   C     C_2   0.005935 0.580361 0.560623 0.931867
C48   C     C_2   0.994537 0.417268 0.439930 0.934451
C49   C     C_3   0.357213 0.629446 0.750839 -0.370725
C50   C     C_3   0.408153 0.725848 0.741628 -0.404718
C51   C     C_3   0.358517 0.811014 0.771047 -0.840841
C52   C     C_3   0.425181 0.235709 0.282070 -0.417952
C53   C     C_3   0.404584 0.172452 0.328046 -0.324373
C54   C     C_3   0.372167 0.070878 0.312139 -0.833780
C55   C     C_3   0.167608 0.550950 0.865361 -0.342267
C56   C     C_R   0.510068 0.286318 0.126998 -0.066127
C57   C     C_3   0.100292 0.615716 0.899623 -0.424154
C58   C     C_3   0.039128 0.699079 0.869644 -0.847867
C59   C     C_3   0.668634 0.160887 0.126977 -0.327153
C60   C     C_3   0.721692 0.077989 0.096384 -0.434826
C61   C     C_3   0.799076 0.013194 0.129774 -0.839851
C62   C     C_3   0.552841 0.636692 0.324334 -0.416768
C63   C     C_3   0.460744 0.713543 0.314862 -0.382045
C64   C     C_3   0.379742 0.706734 0.353472 -0.752476
C65   C     C_3   0.667667 0.380233 0.659333 -0.412123
C66   C     C_3   0.631702 0.286605 0.633784 -0.335525
C67   C     C_R   0.241678 0.470617 0.891178 0.108656
C68   C     C_3   0.718976 0.230868 0.607694 -0.794451
C69   C     C_3   0.551580 0.555683 0.218704 -0.423589
C70   C     C_3   0.667075 0.535464 0.212165 -0.331846
C71   C     C_3   0.701485 0.596752 0.168878 -0.877306
C72   C     C_3   0.658867 0.424424 0.772182 -0.393136
C73   C     C_3   0.732059 0.506801 0.766635 -0.394102
C74   C     C_3   0.825280 0.492615 0.804178 -0.846472
C75   C     C_2   0.351149 0.033277 0.469376 0.930771
C76   C     C_2   0.648292 0.966891 0.480102 0.942403
C77   C     C_R   0.578349 0.222502 0.100005 0.109454
C78   C     C_R   0.464537 0.296401 0.862506 -0.019189
H1    H     H_    0.371355 0.602237 0.650442 0.165059
H2    H     H_    0.875895 0.380096 0.393221 0.352457
H3    H     H_    0.275348 0.823008 0.759393 0.266277
H4    H     H_    0.367599 0.794953 0.812165 0.254892
H5    H     H_    0.396232 0.879728 0.763382 0.262097
H6    H     H_    0.491399 0.715886 0.753637 0.228010
H7    H     H_    0.400595 0.745812 0.700917 0.233820
H8    H     H_    0.275002 0.638265 0.736882 0.240085
H9    H     H_    0.362042 0.617413 0.792227 0.203014
H10   H     H_    0.300390 0.078478 0.287305 0.262995
H11   H     H_    0.433890 0.030485 0.291818 0.251470
H12   H     H_    0.455438 0.328242 0.374160 0.158487
H13   H     H_    0.357880 0.027108 0.346078 0.266719
H14   H     H_    0.475487 0.161751 0.353457 0.238056
H15   H     H_    0.341910 0.209987 0.348936 0.260167
H16   H     H_    0.353344 0.244525 0.257245 0.217480
H17   H     H_    0.484827 0.194226 0.260891 0.229259
H18   H     H_    0.092054 0.748540 0.852759 0.263100
H19   H     H_    0.989180 0.668568 0.839186 0.261905
H20   H     H_    0.989808 0.743254 0.895078 0.251276
H21   H     H_    0.044989 0.570034 0.917430 0.227157
H22   H     H_    0.149604 0.649423 0.929422 0.231169
H23   H     H_    0.193146 0.460348 0.124778 0.188622
H24   H     H_    0.214088 0.601757 0.845032 0.218396
H25   H     H_    0.115430 0.515180 0.837614 0.245376
H26   H     H_    0.858760 0.058389 0.147466 0.269065
H27   H     H_    0.759523 0.976524 0.159736 0.261493
H28   H     H_    0.837313 0.955276 0.106580 0.249942
H29   H     H_    0.663310 0.030603 0.079218 0.232914
H30   H     H_    0.764089 0.110487 0.066138 0.226438
H31   H     H_    0.728035 0.211058 0.140106 0.240271
H32   H     H_    0.638838 0.124488 0.160088 0.236384
H33   H     H_    0.342710 0.635948 0.349587 0.269214
H34   H     H_    0.581265 0.174361 0.864860 0.184650
H35   H     H_    0.415165 0.712593 0.392219 0.244751
H36   H     H_    0.319372 0.768273 0.347061 0.242670
H37   H     H_    0.489577 0.788515 0.316965 0.222676
H38   H     H_    0.423241 0.705501 0.276664 0.228454
H39   H     H_    0.584627 0.643410 0.363737 0.216140
H40   H     H_    0.616386 0.656317 0.301312 0.183413
H41   H     H_    0.747206 0.278081 0.578037 0.272351
H42   H     H_    0.783573 0.208356 0.635496 0.260874
H43   H     H_    0.690664 0.163519 0.589759 0.265360
H44   H     H_    0.603624 0.237363 0.662660 0.248449
H45   H     H_    0.164909 0.447963 0.036207 0.138458
H46   H     H_    0.567198 0.305191 0.605469 0.209418
H47   H     H_    0.706619 0.426311 0.633004 0.226320
H48   H     H_    0.728721 0.356045 0.688379 0.203360
H49   H     H_    0.659406 0.578435 0.132948 0.263375
H50   H     H_    0.686998 0.676823 0.176410 0.261218
H51   H     H_    0.785147 0.580325 0.164956 0.258201
H52   H     H_    0.712030 0.553276 0.247347 0.225878
H53   H     H_    0.684683 0.456134 0.204117 0.268014
H54   H     H_    0.508443 0.538434 0.182992 0.208928
H55   H     H_    0.533501 0.635773 0.223738 0.201110
H56   H     H_    0.578287 0.144729 0.953037 0.137711
H57   H     H_    0.800693 0.495694 0.843430 0.258162
H58   H     H_    0.868343 0.420408 0.798152 0.266902
H59   H     H_    0.877320 0.552222 0.798705 0.252996
H60   H     H_    0.759778 0.508168 0.728027 0.236666
H61   H     H_    0.690412 0.579525 0.773366 0.225540
H62   H     H_    0.633727 0.428855 0.811310 0.202090
H63   H     H_    0.700194 0.350662 0.768404 0.235125
H64   H     H_    0.265413 0.156058 0.444790 0.362491
H65   H     H_    0.734926 0.845271 0.460639 0.354918
H66   H     H_    0.181235 0.491363 0.963123 0.137142
H67   H     H_    0.618373 0.176138 0.027156 0.139046
H68   H     H_    0.124130 0.612996 0.608814 0.348183
N1    N     N_R   0.426959 0.410177 0.793457 -0.322293
N2    N     N_R   0.458884 0.369901 0.202633 -0.341544
N3    N     N_1   0.234530 0.484780 0.492250 -0.060893
N4    N     N_1   0.765470 0.515220 0.507750 -0.066954
O1    O     O_R   0.402510 0.634760 0.497160 -0.605135
O2    O     O_2   0.618442 0.280691 0.203973 -0.614814
O3    O     O_2   0.296020 0.454386 0.206082 -0.565300
O4    O     O_2   0.535865 0.265171 0.783725 -0.588711
O5    O     O_2   0.945666 0.636345 0.582183 -0.618398
O6    O     O_R   0.109175 0.570008 0.578561 -0.797913
O7    O     O_2   0.055717 0.364039 0.417396 -0.618117
O8    O     O_R   0.890459 0.423336 0.423419 -0.800325
O9    O     O_2   0.274993 0.993937 0.481597 -0.599592
O10   O     O_R   0.339629 0.127812 0.447634 -0.819261
O11   O     O_2   0.723385 0.004437 0.499298 -0.608470
O12   O     O_R   0.597490 0.365240 0.502840 -0.604909
O13   O     O_R   0.660961 0.874220 0.457612 -0.802060
O14   O     O_R   0.572960 0.644530 0.502140 -0.581204
O15   O     O_R   0.427040 0.355470 0.497860 -0.585006
O16   O     O_R   0.414790 0.495100 0.568760 -0.585407
O17   O     O_R   0.585210 0.504900 0.431240 -0.591722
O18   O     O_R   0.585240 0.504870 0.573730 -0.616598
O19   O     O_R   0.414760 0.495130 0.426270 -0.604852
O20   O     O_2   0.254625 0.472981 0.781579 -0.592362
Zn1   Zn    Zn3+2 0.386190 0.493480 0.496680 1.015727
Zn2   Zn    Zn3+2 0.613810 0.506520 0.503320 1.002860

loop_
_geom_bond_atom_site_label_1
_geom_bond_atom_site_label_2
_ccdc_geom_bond_type
C27   C48   S    
C2    C35   A    
C66   C68   S    
C28   C47   S    
C34   C56   A    
C23   C45   A    
C37   C69   S    
C41   C43   A    
C13   H56   S    
C49   H9    S    
C58   H20   S    
C22   C76   S    
C59   C77   S    
C50   H6    S    
C53   C54   S    
C1    C21   S    
C55   H24   S    
C19   H67   S    
C20   C26   T    
C28   C29   S    
C5    C11   A    
C68   H41   S    
C11   C14   A    
C17   O19   A    
C33   C78   A    
C15   C78   A    
C73   H60   S    
C57   H21   S    
C55   H25   S    
C70   H52   S    
C44   N1    S    
O1    Zn1   S    
C52   H17   S    
C73   C74   S    
C19   C77   A    
C58   H18   S    
C62   H39   S    
C33   N1    A    
C50   H7    S    
C29   N4    T    
C46   N2    S    
C3    C38   A    
C16   O16   A    
C74   H58   S    
C45   C67   A    
C66   H44   S    
C52   H16   S    
C70   C71   S    
C61   H27   S    
C51   H3    S    
C60   H30   S    
C63   H37   S    
C2    C34   A    
C40   C42   A    
C41   H12   S    
C59   C60   S    
C27   C30   S    
O19   Zn1   S    
C71   H49   S    
C76   O11   D    
C58   H19   S    
C42   C44   A    
C2    C14   A    
C15   H34   S    
H65   O13   S    
C72   H63   S    
C74   H59   S    
N4    Zn2   S    
C64   H36   S    
C53   H15   S    
C61   H26   S    
C24   C25   S    
C1    O14   A    
C54   H11   S    
C17   O17   A    
C12   O15   A    
C33   O4    S    
C64   H33   S    
C73   H61   S    
C18   C67   A    
C57   H22   S    
C48   O8    S    
C8    C18   A    
C56   C77   A    
C60   C61   S    
C65   H47   S    
C5    C9    A    
C62   C63   S    
C71   H51   S    
H2    O8    S    
C32   O2    S    
C4    C39   A    
O18   Zn2   S    
C74   H57   S    
C12   C20   S    
C53   H14   S    
C50   C51   S    
C40   H1    S    
H68   O6    S    
C61   H28   S    
C51   H4    S    
O17   Zn2   S    
C60   H29   S    
O16   Zn1   S    
O15   Zn1   S    
C63   H38   S    
C3    C40   A    
C49   C50   S    
C7    C19   A    
C13   C15   A    
C22   C26   S    
C9    C34   A    
C66   H46   S    
C71   H50   S    
O14   Zn2   S    
C4    C17   S    
C31   C45   A    
C36   C38   A    
C51   H5    S    
C52   C53   S    
C75   O9    D    
C7    C9    A    
C39   C62   S    
C21   C25   T    
C69   H55   S    
C64   H35   S    
N3    Zn1   S    
C49   H8    S    
C11   H45   S    
C35   O3    S    
H64   O10   S    
C72   C73   S    
C14   H23   S    
C68   H43   S    
C6    C10   A    
C5    C8    A    
C55   C67   S    
C59   H32   S    
C24   C75   S    
C6    C7    A    
C32   N2    A    
C31   O20   S    
C10   C23   A    
C48   O7    D    
C65   H48   S    
C55   C57   S    
C37   C46   A    
C31   N1    A    
C54   H13   S    
C37   C39   A    
C68   H42   S    
C6    C13   A    
C54   H10   S    
C57   C58   S    
C47   O5    D    
C16   O18   A    
C69   H54   S    
C18   H66   S    
C70   H53   S    
C59   H31   S    
C1    O1    A    
C22   C24   D    
C35   N2    A    
C23   C78   A    
C69   C70   S    
C43   C52   S    
C43   C46   A    
C62   H40   S    
C36   C44   A    
C47   O6    S    
C12   O12   A    
C63   C64   S    
C36   C72   S    
C72   H62   S    
O12   Zn2   S    
C8    C10   A    
C65   C66   S    
C4    C41   A    
C27   C28   D    
C75   O10   S    
C76   O13   S    
C42   C49   S    
C38   C65   S    
C32   C56   A    
C3    C16   S    
C30   N3    T    
