data_mof_unit_19253.cif
_audit_creation_date              2012-12-11T15:54:07-0500
_audit_creation_method            fapswitch 2.2
_symmetry_space_group_name_H-M    P1
_symmetry_Int_Tables_number       1
_space_group_crystal_system       triclinic
_cell_length_a                    10.609251
_cell_length_b                    10.714745
_cell_length_c                    17.12433
_cell_angle_alpha                 80.271811
_cell_angle_beta                  99.316501
_cell_angle_gamma                 118.201272
_cell_volume                      1683.31192474

loop_
_atom_site_label
_atom_site_type_symbol
_atom_type_description
_atom_site_fract_x
_atom_site_fract_y
_atom_site_fract_z
_atom_type_partial_charge
C1    C     C_R   0.358336 0.223065 0.626408 0.548209
C2    C     C_1   0.294184 0.110975 0.772072 -0.014153
C3    C     C_1   0.336209 0.664238 0.277711 -0.052341
C4    C     C_R   0.368523 0.653705 0.585325 0.544279
C5    C     C_1   0.322935 0.673493 0.207121 -0.057391
C6    C     C_R   0.866891 0.684008 0.167248 0.020101
C7    C     C_R   0.910095 0.597992 0.223710 0.029150
C8    C     C_R   0.899035 0.590619 0.302916 0.014509
C9    C     C_R   0.829692 0.779628 0.274682 -0.159451
C10   C     C_R   0.839192 0.784834 0.193716 -0.164853
C11   C     C_3   0.870699 0.443997 0.227240 -0.262933
C12   C     C_R   0.405397 0.813101 0.681441 -0.156838
C13   C     C_3   0.857061 0.434144 0.314952 -0.266533
C14   C     C_R   0.845450 0.671650 0.328703 0.017587
C15   C     C_R   0.293538 0.104479 0.171914 0.022908
C16   C     C_R   0.776139 0.618123 0.627198 0.548162
C17   C     C_R   0.249097 0.200252 0.187318 0.031935
C18   C     C_R   0.267429 0.234857 0.262377 0.031625
C19   C     C_R   0.399007 0.100015 0.308507 -0.171526
C20   C     C_R   0.378082 0.061856 0.231493 -0.168160
C21   C     C_3   0.108017 0.204035 0.169358 -0.264870
C22   C     C_3   0.128214 0.241668 0.253381 -0.265694
C23   C     C_R   0.421148 0.819790 0.763134 0.013629
C24   C     C_R   0.332037 0.177139 0.324977 0.023737
C25   C     C_R   0.891923 0.702476 0.855691 0.549314
C26   C     C_R   0.312050 0.715095 0.893332 0.540700
C27   C     C_R   0.252912 0.058819 0.851326 0.555120
C28   C     C_R   0.351145 0.224885 0.400917 0.546002
C29   C     C_R   0.892620 0.693630 0.085981 0.546574
C30   C     C_R   0.312559 0.701274 0.124039 0.542426
C31   C     C_R   0.253666 0.050946 0.095828 0.550195
C32   C     C_R   0.365860 0.653918 0.360634 0.549162
C33   C     C_R   0.774514 0.623658 0.400820 0.550042
C34   C     C_3   0.170044 0.429366 0.798532 0.018266
C35   C     C_R   0.325439 0.701477 0.812428 -0.009247
C36   C     C_R   0.217129 0.585154 0.776077 0.009153
C37   C     C_R   0.214095 0.573874 0.696582 -0.025815
C38   C     C_2   0.551609 0.943553 0.793322 0.595666
C39   C     C_3   0.426850 0.467135 0.836843 -0.269849
C40   C     C_3   0.165016 0.416342 0.710851 -0.192219
C41   C     C_R   0.317951 0.682876 0.650362 -0.019536
C42   C     C_1   0.822368 0.656013 0.706261 -0.038207
C43   C     C_1   0.850515 0.684976 0.773624 -0.039556
C44   C     C_1   0.329714 0.157100 0.705722 -0.006952
Cr1   Cr    Cr6+3 0.608440 0.389080 0.519680 1.034093
Cr2   Cr    Cr6+3 0.288640 0.400090 0.490760 1.007508
Cr3   Cr    Cr6+3 0.602940 0.710800 0.489510 1.019359
Cr4   Cr    Cr6+3 0.052530 0.947560 0.964210 1.042962
Cr5   Cr    Cr6+3 0.059970 0.626800 0.992920 1.002383
Cr6   Cr    Cr6+3 0.373320 0.938440 0.995370 1.046412
H1    H     H_    0.481736 0.901528 0.645180 0.169846
H2    H     H_    0.048272 0.156896 0.292241 0.144856
H3    H     H_    0.061914 0.372899 0.820987 0.143082
H4    H     H_    0.242523 0.383487 0.696889 0.176966
H5    H     H_    0.053843 0.355404 0.683346 0.125243
H6    H     H_    0.794468 0.849152 0.293020 0.140572
H7    H     H_    0.817894 0.862004 0.151865 0.133353
H8    H     H_    0.961544 0.427807 0.215449 0.143876
H9    H     H_    0.677633 0.156151 0.781405 0.336496
H10   H     H_    0.259146 0.376941 0.909899 0.273583
H11   H     H_    0.475725 0.395529 0.861499 0.168159
H12   H     H_    0.766674 0.383119 0.192383 0.151280
H13   H     H_    0.484162 0.564588 0.868161 0.152467
H14   H     H_    0.443607 0.496500 0.772799 0.143476
H15   H     H_    0.744534 0.365217 0.329751 0.169240
H16   H     H_    0.939423 0.410588 0.353986 0.140782
H17   H     H_    0.460387 0.064237 0.355159 0.132685
H18   H     H_    0.420884 0.993772 0.219624 0.142218
H19   H     H_    0.016037 0.098157 0.159597 0.144745
H20   H     H_    0.112868 0.292262 0.123168 0.151209
H21   H     H_    0.144752 0.351320 0.255857 0.145295
N1    N     N_2   0.275582 0.394758 0.850452 -0.484904
O1    O     O_R   0.754020 0.497590 0.609930 -0.503943
O2    O     O_R   0.406180 0.826930 0.920660 -0.480740
O3    O     O_R   0.358620 0.062870 0.901950 -0.482249
O4    O     O_R   0.481420 0.271390 0.600630 -0.469778
O5    O     O_R   0.163910 0.085460 0.050210 -0.518847
O6    O     O_R   0.935200 0.815170 0.045770 -0.509779
O7    O     O_R   0.916120 0.596690 0.069430 -0.515495
O8    O     O_R   0.192310 0.631200 0.086170 -0.506903
O9    O     O_R   0.406770 0.819480 0.096420 -0.518095
O10   O     O_R   0.359170 0.055960 0.064880 -0.496758
O11   O     O_3   0.161940 0.837600 0.984160 -0.298197
O12   O     O_R   0.295080 0.533620 0.397890 -0.504184
O13   O     O_R   0.263810 0.254550 0.589590 -0.535150
O14   O     O_R   0.300820 0.531200 0.560890 -0.506248
O15   O     O_R   0.491480 0.744020 0.564270 -0.520189
O16   O     O_R   0.726290 0.693800 0.583010 -0.495411
O17   O     O_R   0.747830 0.500190 0.434090 -0.523103
O18   O     O_R   0.475680 0.273800 0.437630 -0.507133
O19   O     O_R   0.257620 0.257160 0.413750 -0.520976
O20   O     O_2   0.634837 0.924562 0.846481 -0.501604
O21   O     O_R   0.584705 0.080978 0.756801 -0.710553
O22   O     O_R   0.485280 0.746620 0.388440 -0.517785
O23   O     O_R   0.720550 0.696220 0.420010 -0.506936
O24   O     O_3   0.500010 0.499990 0.499980 -0.250865
O25   O     O_R   0.163320 0.092900 0.874450 -0.482479
O26   O     O_R   0.934650 0.822080 0.882840 -0.483695
O27   O     O_R   0.915520 0.604140 0.893670 -0.514810
O28   O     O_R   0.191760 0.638110 0.923230 -0.507668

loop_
_geom_bond_atom_site_label_1
_geom_bond_atom_site_label_2
_ccdc_geom_bond_type
C32   O22   A    
C8    C13   S    
C16   C42   S    
C19   C20   A    
C11   H12   S    
C25   C43   S    
C14   C33   S    
C7    C8    A    
C4    O15   A    
C13   H15   S    
C7    C11   S    
C39   H14   S    
C12   C23   A    
C31   O10   A    
Cr1   O4    S    
C34   C40   S    
C36   C37   A    
C37   C40   S    
Cr6   O2    S    
C4    O14   A    
C4    C41   S    
H10   N1    S    
C38   O20   D    
Cr1   O1    S    
Cr4   O6    S    
C25   O27   A    
C29   O6    A    
C35   C36   A    
C2    C44   T    
C39   N1    S    
C19   H17   S    
C2    C27   S    
C11   H8    S    
Cr1   O17   S    
C9    C10   A    
Cr2   O13   S    
C30   O8    A    
C21   C22   S    
C27   O3    A    
C33   O23   A    
Cr6   O11   S    
C31   O5    A    
C13   H16   S    
C1    O13   A    
C15   C20   A    
C39   H11   S    
C16   O1    A    
C10   H7    S    
Cr2   O19   S    
C17   C21   S    
Cr5   O7    S    
C21   H19   S    
Cr3   O15   S    
Cr4   O5    S    
C9    C14   A    
C12   C41   A    
Cr4   O25   S    
C33   O17   A    
Cr5   O27   S    
C25   O26   A    
C1    C44   S    
C29   O7    A    
Cr3   O24   S    
C40   H5    S    
C17   C18   A    
C9    H6    S    
Cr1   O18   S    
Cr2   O12   S    
C23   C35   A    
C18   C24   A    
C42   C43   T    
C34   N1    S    
C22   H21   S    
C12   H1    S    
Cr4   O26   S    
Cr6   O10   S    
C22   H2    S    
C5    C30   S    
C15   C17   A    
C27   O25   A    
C8    C14   A    
C18   C22   S    
C1    O4    A    
C20   H18   S    
C24   C28   S    
C32   O12   A    
C3    C5    T    
C6    C10   A    
Cr5   O8    S    
C15   C31   S    
C6    C7    A    
C23   C38   S    
C39   H13   S    
C40   H4    S    
Cr4   O11   S    
C21   H20   S    
Cr3   O16   S    
Cr5   O11   S    
C30   O9    A    
C19   C24   A    
Cr6   O3    S    
Cr5   O28   S    
C11   C13   S    
C38   O21   S    
C26   O2    A    
Cr3   O22   S    
C28   O19   A    
C34   C36   S    
C37   C41   A    
C3    C32   S    
C26   C35   S    
C6    C29   S    
Cr2   O24   S    
C34   H3    S    
C16   O16   A    
Cr3   O23   S    
C28   O18   A    
H9    O21   S    
Cr1   O24   S    
Cr6   O9    S    
C26   O28   A    
Cr2   O14   S    
