data_mof_unit_48751.cif
_audit_creation_date              2012-12-10T17:17:23-0500
_audit_creation_method            fapswitch 2.2
_symmetry_space_group_name_H-M    P1
_symmetry_Int_Tables_number       1
_space_group_crystal_system       triclinic
_cell_length_a                    10.23258
_cell_length_b                    10.804038
_cell_length_c                    12.215044
_cell_angle_alpha                 90.946567
_cell_angle_beta                  109.34474
_cell_angle_gamma                 96.072631
_cell_volume                      1265.10654175

loop_
_atom_site_label
_atom_site_type_symbol
_atom_type_description
_atom_site_fract_x
_atom_site_fract_y
_atom_site_fract_z
_atom_type_partial_charge
C1    C     C_R   0.049893 0.732176 0.489318 0.958368
C2    C     C_R   0.201634 0.506865 0.839562 -0.122845
C3    C     C_2   0.071961 0.863449 0.472235 -0.353764
C4    C     C_R   0.132419 0.506749 0.714414 0.858223
C5    C     C_2   0.967256 0.930869 0.463272 -0.161304
C6    C     C_2   0.909477 0.134094 0.495229 -0.368461
C7    C     C_2   0.988894 0.063351 0.460073 -0.127730
C8    C     C_2   0.432900 0.512294 0.510385 -0.003189
C9    C     C_2   0.566953 0.487853 0.491431 -0.197002
C10   C     C_R   0.946253 0.267324 0.503927 0.922619
C11   C     C_R   0.865573 0.485741 0.285222 0.865324
C12   C     C_R   0.415378 0.483835 0.995666 0.074498
C13   C     C_R   0.716075 0.319463 0.989158 -0.234344
C14   C     C_R   0.786922 0.458289 0.161880 -0.137390
C15   C     C_R   0.159942 0.582631 0.913286 -0.186272
C16   C     C_R   0.242167 0.604415 0.029255 -0.067131
C17   C     C_R   0.370747 0.558510 0.069979 -0.180705
C18   C     C_2   0.959147 0.325593 0.120042 0.918300
C19   C     C_2   0.439348 0.613611 0.594925 0.990907
C20   C     C_R   0.320971 0.445098 0.884551 0.104809
C21   C     C_R   0.550955 0.447416 0.027001 0.088918
C22   C     C_R   0.581979 0.356309 0.957487 0.155540
C23   C     C_R   0.478838 0.303844 0.856741 -0.198685
C24   C     C_R   0.349763 0.348078 0.820166 -0.148109
C25   C     C_R   0.657631 0.502658 0.123713 -0.257095
C26   C     C_R   0.820158 0.369721 0.091185 -0.027943
H1    H     H_    0.867006 0.889672 0.466673 0.195458
H2    H     H_    0.066288 0.628204 0.880425 0.162332
H3    H     H_    0.431481 0.580206 0.160295 0.139236
H4    H     H_    0.209199 0.661716 0.086501 0.157775
H5    H     H_    0.272607 0.305431 0.741136 0.156800
H6    H     H_    0.077519 0.103027 0.436460 0.192279
H7    H     H_    0.068978 0.179410 0.129319 0.338143
H8    H     H_    0.486315 0.669150 0.763358 0.332239
H9    H     H_    0.821173 0.093928 0.518875 0.157406
H10   H     H_    0.172010 0.905111 0.468975 0.174906
H11   H     H_    0.563546 0.412840 0.430010 0.169703
H12   H     H_    0.688809 0.624800 0.602857 0.183116
H13   H     H_    0.315448 0.376849 0.396921 0.169698
H14   H     H_    0.499281 0.231397 0.804223 0.146626
H15   H     H_    0.739475 0.251033 0.934465 0.166032
H16   H     H_    0.640958 0.578681 0.174125 0.159059
N1    N     N_2   0.313640 0.446500 0.454900 -0.226061
N2    N     N_2   0.686360 0.553430 0.545150 -0.182596
O1    O     O_R   0.936910 0.692950 0.509080 -0.618803
O2    O     O_R   0.968937 0.198228 0.108933 -0.814766
O3    O     O_2   0.416157 0.717723 0.561845 -0.648960
O4    O     O_R   0.483572 0.592357 0.713455 -0.808297
O5    O     O_R   0.138320 0.658600 0.480130 -0.571757
O6    O     O_R   0.002900 0.525670 0.675280 -0.606658
O7    O     O_R   0.204310 0.491320 0.646330 -0.594214
O8    O     O_R   0.861680 0.341400 0.519870 -0.603834
O9    O     O_R   0.063090 0.307050 0.490920 -0.623378
O10   O     O_R   0.795690 0.508680 0.353670 -0.611253
O11   O     O_R   0.997100 0.474330 0.324720 -0.573860
O12   O     O_2   0.064496 0.400398 0.147900 -0.621845
Zn1   Zn    Zn3+2 0.865520 0.522940 0.519330 0.948099
Zn2   Zn    Zn3+2 0.134480 0.477060 0.480670 0.991835

loop_
_geom_bond_atom_site_label_1
_geom_bond_atom_site_label_2
_ccdc_geom_bond_type
C25   H16   S    
C6    C10   S    
C2    C4    S    
C23   C24   A    
H12   N2    S    
C6    C7    D    
C2    C15   A    
C17   H3    S    
C18   C26   S    
C8    N1    D    
C18   O12   D    
N2    Zn1   S    
O9    Zn2   S    
C10   O8    A    
C12   C20   A    
C13   H15   S    
C24   H5    S    
O7    Zn2   S    
C21   C22   A    
C14   C26   A    
C12   C17   A    
H7    O2    S    
C1    O1    A    
C15   H2    S    
C11   O10   A    
C1    O5    A    
C3    H10   S    
C18   O2    S    
C9    H11   S    
C13   C22   A    
C14   C25   A    
O1    Zn1   S    
C11   C14   S    
C19   O3    D    
C13   C26   A    
C8    C19   S    
H8    O4    S    
O8    Zn1   S    
C4    O7    A    
C2    C20   A    
C15   C16   A    
C20   C24   A    
C11   O11   A    
C6    H9    S    
O11   Zn2   S    
C5    C7    S    
C10   O9    A    
C21   C25   A    
C22   C23   A    
C16   C17   A    
C9    N2    D    
H13   N1    S    
C7    H6    S    
C19   O4    S    
N1    Zn2   S    
C3    C5    D    
C5    H1    S    
O6    Zn1   S    
C16   H4    S    
C12   C21   A    
O5    Zn2   S    
C23   H14   S    
C4    O6    A    
C8    C9    S    
C1    C3    S    
O10   Zn1   S    
