data_mof_unit_18550.cif
_audit_creation_date              2012-12-11T15:12:49-0500
_audit_creation_method            fapswitch 2.2
_symmetry_space_group_name_H-M    P1
_symmetry_Int_Tables_number       1
_space_group_crystal_system       triclinic
_cell_length_a                    22.306296
_cell_length_b                    7.000687
_cell_length_c                    19.467526
_cell_angle_alpha                 90.431769
_cell_angle_beta                  99.075775
_cell_angle_gamma                 89.482519
_cell_volume                      3001.79770865

loop_
_atom_site_label
_atom_site_type_symbol
_atom_type_description
_atom_site_fract_x
_atom_site_fract_y
_atom_site_fract_z
_atom_type_partial_charge
O1    O     O_R   0.448420 0.506120 0.415750 -0.538447
O2    O     O_R   0.551580 0.006120 0.584250 -0.532934
O3    O     O_R   0.436490 0.174470 0.555610 -0.535523
O4    O     O_R   0.563510 0.674470 0.444390 -0.537929
C1    C     C_R   0.421756 0.345200 0.576179 0.773694
C2    C     C_R   0.578390 0.842958 0.423772 0.772027
O5    O     O_R   0.441310 0.176330 0.414520 -0.536106
O6    O     O_R   0.558690 0.676330 0.585480 -0.541061
O7    O     O_R   0.556430 0.007110 0.442150 -0.532081
O8    O     O_R   0.443570 0.507110 0.557850 -0.535337
C3    C     C_R   0.426786 0.345393 0.388819 0.793519
C4    C     C_R   0.573261 0.845366 0.611180 0.793898
O9    O     O_3   0.537770 0.339560 0.509230 -0.372666
O10   O     O_3   0.462230 0.839560 0.490770 -0.373439
V1    V     V_3+5 0.492990 0.064280 0.498290 1.465803
V2    V     V_3+5 0.507010 0.564280 0.501710 1.457554
C5    C     C_R   0.872519 0.968680 0.694190 0.199466
C6    C     C_R   0.125679 0.442016 0.305938 0.197435
C7    C     C_R   0.886207 0.941246 0.820435 -0.173346
C8    C     C_R   0.113680 0.439544 0.179372 -0.171311
C9    C     C_R   0.591657 0.847219 0.738108 -0.204683
C10   C     C_R   0.408928 0.368234 0.262289 -0.206514
C11   C     C_R   0.627284 0.878351 0.802145 -0.134460
C12   C     C_R   0.373038 0.407286 0.199103 -0.132297
C13   C     C_R   0.689274 0.909125 0.806720 -0.043113
C14   C     C_R   0.310532 0.428148 0.194789 -0.042736
C15   C     C_R   0.718452 0.900549 0.747196 0.045402
C16   C     C_R   0.281216 0.400702 0.253376 0.045001
C17   C     C_R   0.680748 0.888263 0.680564 -0.009308
C18   C     C_R   0.318716 0.377293 0.319644 -0.008435
C19   C     C_R   0.783435 0.913885 0.752046 -0.054313
C20   C     C_R   0.216094 0.407144 0.248204 -0.055902
C21   C     C_R   0.808395 0.950974 0.690523 -0.045506
C22   C     C_R   0.190092 0.426679 0.310242 -0.047484
C23   C     C_R   0.768770 0.972648 0.626644 0.270589
C24   C     C_R   0.228970 0.432817 0.375226 0.272136
C25   C     C_R   0.707482 0.916253 0.620332 0.208791
C26   C     C_R   0.291077 0.383310 0.380088 0.206959
C27   C     C_R   0.824326 0.887164 0.815767 0.281290
C28   C     C_R   0.176119 0.390095 0.183388 0.278609
C29   C     C_R   0.909732 0.988057 0.759647 0.086980
C30   C     C_R   0.089128 0.473457 0.240757 0.098486
C31   C     C_R   0.616783 0.856245 0.676878 -0.055689
C32   C     C_R   0.383290 0.357237 0.323134 -0.054876
H1    H     H_    0.543350 0.825264 0.736032 0.103437
H2    H     H_    0.457669 0.356097 0.264332 0.103205
H3    H     H_    0.712736 0.949216 0.857375 0.172511
H4    H     H_    0.286574 0.476019 0.145417 0.171997
H5    H     H_    0.606430 0.882556 0.848738 0.128467
H6    H     H_    0.394055 0.426494 0.153176 0.132720
C33   C     C_3   0.807942 0.758544 0.258008 0.113366
C34   C     C_3   0.217052 0.210629 0.770489 0.137498
C35   C     C_3   0.788469 0.117265 0.255721 0.386517
C36   C     C_3   0.186919 0.543561 0.722656 0.375863
C37   C     C_3   0.748128 0.072532 0.315854 0.302876
C38   C     C_3   0.230734 0.493230 0.666346 0.303259
H7    H     H_    0.770751 0.676358 0.351630 0.154997
H8    H     H_    0.261128 0.097727 0.684662 0.185477
H9    H     H_    0.847742 0.794888 0.297400 0.097166
H10   H     H_    0.176032 0.163291 0.735268 0.158897
C39   C     C_1   0.624186 0.847758 0.378368 -0.222391
C40   C     C_1   0.376166 0.356698 0.621503 -0.217707
C41   C     C_3   0.791160 0.930746 0.207784 0.005589
C42   C     C_3   0.208295 0.422826 0.792199 -0.009017
C43   C     C_3   0.753707 0.714975 0.296788 -0.449275
C44   C     C_3   0.272616 0.193865 0.730019 -0.550112
C45   C     C_3   0.707702 0.887339 0.291918 0.082836
C46   C     C_3   0.291795 0.395018 0.707018 0.100307
C47   C     C_3   0.674560 0.894884 0.212038 0.192613
C48   C     C_3   0.320445 0.504029 0.777761 0.239929
C49   C     C_3   0.726163 0.895204 0.162343 0.655758
C50   C     C_3   0.272078 0.497857 0.831465 0.651431
C51   C     C_1   0.662067 0.857824 0.339903 0.001274
C52   C     C_1   0.338261 0.370635 0.659755 0.003943
C53   C     C_1   0.837837 0.944667 0.160247 0.064113
C54   C     C_1   0.161818 0.432220 0.840032 0.065777
C55   C     C_1   0.875717 0.947971 0.121654 -0.170109
C56   C     C_1   0.124087 0.439369 0.878647 -0.168148
H11   H     H_    0.731506 0.585511 0.274291 0.220983
H12   H     H_    0.311503 0.121153 0.760908 0.161003
O11   O     O_R   0.056480 0.288780 0.942210 -0.532951
O12   O     O_R   0.943520 0.788780 0.057790 -0.535920
O13   O     O_R   0.058700 0.616820 0.085490 -0.537464
O14   O     O_R   0.941300 0.116820 0.914510 -0.535738
C57   C     C_R   0.072697 0.448351 0.111593 0.713195
C58   C     C_R   0.927204 0.948425 0.888365 0.714955
O15   O     O_R   0.063520 0.618570 0.944410 -0.536811
O16   O     O_R   0.936480 0.118570 0.055590 -0.535602
O17   O     O_R   0.948420 0.787670 0.915740 -0.541077
O18   O     O_R   0.051580 0.287670 0.084260 -0.539294
C59   C     C_R   0.078684 0.449274 0.924180 0.708856
C60   C     C_R   0.921267 0.951477 0.075982 0.710962
O19   O     O_3   0.962260 0.453430 0.990800 -0.366287
O20   O     O_3   0.037740 0.953430 0.009200 -0.365236
V3    V     V_3+5 0.007000 0.728750 0.001710 1.446603
V4    V     V_3+5 0.993000 0.228750 0.998290 1.454098
C61   C     C_3   0.975464 0.050676 0.765297 -0.752416
H13   H     H_    0.984273 0.172161 0.802317 0.211155
H14   H     H_    0.006334 0.930058 0.783867 0.198047
H15   H     H_    0.987269 0.103775 0.715692 0.207083
C62   C     C_3   0.023016 0.534774 0.235770 -0.782617
H16   H     H_    0.013452 0.658312 0.200226 0.208392
H17   H     H_    0.992903 0.414698 0.215656 0.197677
H18   H     H_    0.011094 0.584574 0.286120 0.207243
O21   O     O_3   0.760339 0.266719 0.214318 -0.628091
H19   H     H_    0.782939 0.285981 0.174891 0.355529
O22   O     O_3   0.191838 0.740142 0.738648 -0.639632
H20   H     H_    0.165058 0.771448 0.773428 0.327689
C63   C     C_3   0.853097 0.190756 0.286333 -0.743074
H21   H     H_    0.881902 0.083096 0.317397 0.166908
H22   H     H_    0.878101 0.235750 0.244252 0.202961
H23   H     H_    0.849358 0.318263 0.319713 0.241097
C64   C     C_3   0.118446 0.511254 0.692764 -0.784759
H24   H     H_    0.106840 0.359531 0.682060 0.185223
H25   H     H_    0.088574 0.564347 0.729427 0.194538
H26   H     H_    0.105683 0.593801 0.644096 0.224931
C65   C     C_3   0.788183 0.035150 0.388981 -0.773349
H27   H     H_    0.810627 0.167136 0.411870 0.219426
H28   H     H_    0.759664 0.983111 0.426659 0.218058
H29   H     H_    0.825307 0.930429 0.388868 0.188840
C66   C     C_3   0.199852 0.354594 0.607116 -0.772025
H30   H     H_    0.162944 0.426813 0.571340 0.230696
H31   H     H_    0.233295 0.303106 0.574422 0.214807
H32   H     H_    0.178799 0.227146 0.625898 0.188842
C67   C     C_3   0.709028 0.248391 0.332610 -0.659659
H33   H     H_    0.680211 0.313414 0.288108 0.201457
H34   H     H_    0.679153 0.213144 0.371132 0.192016
H35   H     H_    0.738927 0.363262 0.357181 0.192780
C68   C     C_3   0.243008 0.672573 0.623291 -0.646951
H36   H     H_    0.264611 0.792646 0.652805 0.198008
H37   H     H_    0.272301 0.635759 0.583974 0.183109
H38   H     H_    0.199599 0.731233 0.595102 0.207614
O23   O     O_3   0.727634 0.723289 0.123651 -0.628297
H39   H     H_    0.728041 0.611940 0.154341 0.339037
O24   O     O_3   0.292689 0.382874 0.890295 -0.630300
H40   H     H_    0.309149 0.260534 0.876032 0.301472
O25   O     O_3   0.714718 0.041818 0.112576 -0.634111
H41   H     H_    0.679027 0.003728 0.078147 0.312909
O26   O     O_3   0.264262 0.682317 0.858025 -0.646544
H42   H     H_    0.243449 0.672536 0.899336 0.320494
C69   C     C_3   0.629770 0.723032 0.194438 -0.762468
H43   H     H_    0.590272 0.737017 0.222596 0.214689
H44   H     H_    0.611501 0.720528 0.137902 0.223920
H45   H     H_    0.649176 0.580042 0.207248 0.189109
C70   C     C_3   0.383700 0.415814 0.809955 -0.746389
H46   H     H_    0.418583 0.443768 0.776358 0.207775
H47   H     H_    0.400096 0.482271 0.861472 0.231560
H48   H     H_    0.384760 0.260072 0.818142 0.177527
O27   O     O_3   0.824351 0.595463 0.222625 -0.627697
H49   H     H_    0.868320 0.603865 0.219724 0.293502
O28   O     O_3   0.220489 0.089924 0.828672 -0.617939
H50   H     H_    0.256928 0.008259 0.831752 0.346736
O29   O     O_3   0.789550 0.060879 0.571698 -0.657061
H51   H     H_    0.754950 0.124395 0.542096 0.297931
O30   O     O_3   0.206563 0.498973 0.433327 -0.659234
H52   H     H_    0.240061 0.557333 0.465949 0.296414
C71   C     C_3   0.631099 0.071631 0.197637 -0.723023
H53   H     H_    0.654244 0.204334 0.187543 0.250673
H54   H     H_    0.597588 0.050969 0.149484 0.200732
H55   H     H_    0.604468 0.095497 0.240596 0.198082
C72   C     C_3   0.337678 0.713238 0.763881 -0.718232
H56   H     H_    0.298021 0.807441 0.757169 0.244941
H57   H     H_    0.368115 0.775233 0.809190 0.213372
H58   H     H_    0.361431 0.723294 0.718015 0.190648
C73   C     C_3   0.902524 0.943605 0.629821 -0.671410
H59   H     H_    0.875941 0.846957 0.591264 0.225960
H60   H     H_    0.908465 0.084511 0.606084 0.224441
H61   H     H_    0.947308 0.870903 0.642461 0.180956
C74   C     C_3   0.094774 0.401856 0.368455 -0.673869
H62   H     H_    0.120249 0.292195 0.402496 0.226810
H63   H     H_    0.090012 0.535617 0.398189 0.224019
H64   H     H_    0.049322 0.337653 0.352714 0.181733
O31   O     O_3   0.803544 0.797764 0.870614 -0.649819
H65   H     H_    0.835934 0.784829 0.911184 0.291756
O32   O     O_3   0.198377 0.312766 0.126636 -0.649217
H66   H     H_    0.166519 0.305675 0.085298 0.287320
O33   O     O_3   0.673118 0.894886 0.555342 -0.662760
H67   H     H_    0.700411 0.862949 0.521286 0.281454
O34   O     O_3   0.325293 0.346639 0.444151 -0.664286
H68   H     H_    0.298227 0.300230 0.476129 0.283651

loop_
_geom_bond_atom_site_label_1
_geom_bond_atom_site_label_2
_ccdc_geom_bond_type
C44   C46   S    
O16   V4    S    
C55   C60   S    
O4    V2    S    
C73   H59   S    
C43   H11   S    
O15   C59   A    
C15   C17   A    
C65   H27   S    
C74   H62   S    
O21   H19   S    
O1    C3    A    
C27   O31   S    
C7    C58   S    
O2    C4    A    
C70   H48   S    
C2    O7    A    
C61   H13   S    
C34   C44   S    
O24   H40   S    
C49   O25   S    
O31   H65   S    
O5    C3    A    
C71   H53   S    
C36   C42   S    
C36   O22   S    
C2    C39   S    
C23   C25   A    
O14   C58   A    
C68   H36   S    
C4    C31   S    
C65   H28   S    
C70   H46   S    
C8    C28   A    
C11   H5    S    
C17   C25   A    
C46   C52   S    
C36   C64   S    
O12   C60   A    
C18   C26   A    
C33   C43   S    
C47   C49   S    
C66   H32   S    
C34   H10   S    
C63   H22   S    
C72   H57   S    
C9    C31   A    
H8    C44   S    
C50   O26   S    
C10   C32   A    
O16   C60   A    
C43   C45   S    
O15   V3    S    
C67   H35   S    
C47   C71   S    
O28   H50   S    
C19   C21   A    
C45   C51   S    
C13   H3    S    
C22   C24   A    
C38   C68   S    
C14   H4    S    
C68   H38   S    
O5    V1    S    
C67   H33   S    
C25   O33   S    
C73   H60   S    
C17   C31   A    
C74   H63   S    
C18   C32   A    
C5    C21   A    
C72   H58   S    
C70   H47   S    
C72   H56   S    
C9    H1    S    
C35   C37   S    
C9    C11   A    
C12   H6    S    
O12   V3    S    
C57   O18   A    
C36   C38   S    
C15   C19   A    
C62   H16   S    
C37   C67   S    
C16   C20   A    
C33   C41   S    
C5    C73   S    
O4    C2    A    
C61   H14   S    
C65   H29   S    
H7    C43   S    
C48   C70   S    
O11   V4    S    
C50   O24   S    
C39   C51   T    
C38   C46   S    
C63   H23   S    
C45   C47   S    
C69   H44   S    
C20   C22   A    
O17   V3    S    
C53   C55   T    
C8    C30   A    
O32   H66   S    
O6    C4    A    
O13   V3    S    
C8    C57   S    
C29   C61   S    
C42   C54   S    
C3    C32   S    
O1    V2    S    
O20   V4    S    
O2    V1    S    
C6    C22   A    
C66   H30   S    
C7    C27   A    
C46   C48   S    
C10   H2    S    
C41   C49   S    
O19   V4    S    
C20   C28   A    
O9    V1    S    
C34   C42   S    
O23   H39   S    
C56   C59   S    
C74   H64   S    
O10   V2    S    
C69   H45   S    
C33   H9    S    
O22   H20   S    
C71   H54   S    
C24   C26   A    
C30   C62   S    
O14   V4    S    
C61   H15   S    
O3    V1    S    
C64   H24   S    
C37   C65   S    
C6    C74   S    
C35   C63   S    
C26   O34   S    
O13   C57   A    
C23   O29   S    
C54   C56   T    
O3    C1    A    
C58   O17   A    
C49   O23   S    
C28   O32   S    
C37   C45   S    
O26   H42   S    
O18   V4    S    
C71   H55   S    
C73   H61   S    
C44   H12   S    
O25   H41   S    
C14   C16   A    
C62   H17   S    
C38   C66   S    
C64   H26   S    
C6    C30   A    
O7    V1    S    
C1    O8    A    
O8    V2    S    
O27   H49   S    
C35   C41   S    
C12   C14   A    
O19   V3    S    
C41   C53   S    
C34   O28   S    
C16   C18   A    
C21   C23   A    
C19   C27   A    
C1    C40   S    
C10   C12   A    
C42   C50   S    
O20   V3    S    
C5    C29   A    
C66   H31   S    
O34   H68   S    
O11   C59   A    
C35   O21   S    
C11   C13   A    
C33   O27   S    
O6    V2    S    
O33   H67   S    
O9    V2    S    
C63   H21   S    
O30   H52   S    
C67   H34   S    
O10   V1    S    
C40   C52   T    
C48   C50   S    
C62   H18   S    
C64   H25   S    
O29   H51   S    
C69   H43   S    
C47   C69   S    
C48   C72   S    
C7    C29   A    
C24   O30   S    
C68   H37   S    
C13   C15   A    
