data_mof_unit_6708.cif
_audit_creation_date              2013-03-05T15:52:03-0500
_audit_creation_method            fapswitch 2.2
_symmetry_space_group_name_H-M    P1
_symmetry_Int_Tables_number       1
_space_group_crystal_system       triclinic
_cell_length_a                    25.879813
_cell_length_b                    26.055405
_cell_length_c                    22.175319
_cell_angle_alpha                 89.998721
_cell_angle_beta                  125.848369
_cell_angle_gamma                 90.001181
_cell_volume                      12120.4629542

loop_
_atom_site_label
_atom_site_type_symbol
_atom_site_description
_atom_site_fract_x
_atom_site_fract_y
_atom_site_fract_z
_atom_type_partial_charge
Zn1   Zn    Zn3+2 0.074160 0.706620 0.561580 1.056798
Zn2   Zn    Zn3+2 0.925840 0.293380 0.438420 1.059935
Zn3   Zn    Zn3+2 0.925840 0.706620 0.438420 1.055129
Zn4   Zn    Zn3+2 0.074160 0.293380 0.561580 1.054851
Zn5   Zn    Zn3+2 0.574160 0.206620 0.561580 1.052762
Zn6   Zn    Zn3+2 0.425840 0.793380 0.438420 1.033654
Zn7   Zn    Zn3+2 0.425840 0.206620 0.438420 1.032372
Zn8   Zn    Zn3+2 0.574160 0.793380 0.561580 1.051457
Zn9   Zn    Zn3+2 0.012590 0.793370 0.438410 1.086765
Zn10  Zn    Zn3+2 0.987410 0.206630 0.561590 1.086357
Zn11  Zn    Zn3+2 0.987410 0.793370 0.561590 1.084345
Zn12  Zn    Zn3+2 0.012590 0.206630 0.438410 1.086138
Zn13  Zn    Zn3+2 0.512590 0.293370 0.438410 1.034184
Zn14  Zn    Zn3+2 0.487410 0.706630 0.561590 1.039354
Zn15  Zn    Zn3+2 0.487410 0.293370 0.561590 1.035977
Zn16  Zn    Zn3+2 0.512590 0.706630 0.438410 1.032478
O1    O     O_3   0.000000 0.750000 0.500000 -0.518388
O2    O     O_3   1.000000 0.250000 0.500000 -0.521216
O3    O     O_3   0.500000 0.250000 0.500000 -0.516278
O4    O     O_3   0.500000 0.750000 0.500000 -0.518339
O5    O     O_R   0.887450 0.719640 0.335600 -0.641352
O6    O     O_R   0.112550 0.280360 0.664400 -0.593072
O7    O     O_R   0.112550 0.719640 0.664400 -0.638272
O8    O     O_R   0.887450 0.280360 0.335600 -0.591448
O9    O     O_R   0.387450 0.219640 0.335600 -0.633836
O10   O     O_R   0.612550 0.780360 0.664400 -0.604070
O11   O     O_R   0.612550 0.219640 0.664400 -0.647025
O12   O     O_R   0.387450 0.780360 0.335600 -0.586890
O13   O     O_R   0.094250 0.780350 0.456890 -0.627894
O14   O     O_R   0.905750 0.219650 0.543110 -0.613673
O15   O     O_R   0.905750 0.780350 0.543110 -0.629598
O16   O     O_R   0.094250 0.219650 0.456890 -0.611241
O17   O     O_R   0.594250 0.280350 0.456890 -0.590494
O18   O     O_R   0.405750 0.719650 0.543110 -0.641465
O19   O     O_R   0.405750 0.280350 0.543110 -0.658414
O20   O     O_R   0.594250 0.719650 0.456890 -0.576697
O21   O     O_R   0.008810 0.865800 0.456890 -0.588090
O22   O     O_R   0.991190 0.134200 0.543110 -0.587623
O23   O     O_R   0.991190 0.865800 0.543110 -0.588084
O24   O     O_R   0.008810 0.134200 0.456890 -0.587535
O25   O     O_R   0.508810 0.365800 0.456890 -0.629736
O26   O     O_R   0.491190 0.634200 0.543110 -0.626596
O27   O     O_R   0.491190 0.365800 0.543110 -0.627611
O28   O     O_R   0.508810 0.634200 0.456890 -0.631014
O29   O     O_R   0.948090 0.634190 0.456900 -0.634227
O30   O     O_R   0.051910 0.365810 0.543100 -0.628914
O31   O     O_R   0.051910 0.634190 0.543100 -0.631704
O32   O     O_R   0.948090 0.365810 0.456900 -0.626849
O33   O     O_R   0.448090 0.134190 0.456900 -0.626719
O34   O     O_R   0.551910 0.865810 0.543100 -0.624615
O35   O     O_R   0.551910 0.134190 0.543100 -0.628967
O36   O     O_R   0.448090 0.865810 0.456900 -0.622297
O37   O     O_R   0.137350 0.719630 0.543100 -0.602912
O38   O     O_R   0.862650 0.280370 0.456900 -0.643439
O39   O     O_R   0.862650 0.719630 0.456900 -0.601347
O40   O     O_R   0.137350 0.280370 0.543100 -0.648462
O41   O     O_R   0.637350 0.219630 0.543100 -0.610584
O42   O     O_R   0.362650 0.780370 0.456900 -0.637355
O43   O     O_R   0.362650 0.219630 0.456900 -0.593208
O44   O     O_R   0.637350 0.780370 0.543100 -0.654671
O45   O     O_R   0.948170 0.780360 0.335600 -0.619953
O46   O     O_R   0.051830 0.219640 0.664400 -0.631803
O47   O     O_R   0.051830 0.780360 0.664400 -0.622451
O48   O     O_R   0.948170 0.219640 0.335600 -0.632977
O49   O     O_R   0.448170 0.280360 0.335600 -0.645463
O50   O     O_R   0.551830 0.719640 0.664400 -0.588504
O51   O     O_R   0.551830 0.280360 0.664400 -0.579964
O52   O     O_R   0.448170 0.719640 0.335600 -0.657184
C1    C     C_R   0.900268 0.749980 0.300587 0.861742
C2    C     C_R   0.099788 0.249990 0.699413 0.878368
C3    C     C_R   0.099706 0.749944 0.699412 0.862377
C4    C     C_R   0.900280 0.250069 0.300587 0.877202
C5    C     C_R   0.400197 0.250008 0.300580 0.800358
C6    C     C_R   0.599780 0.750007 0.699422 0.869868
C7    C     C_R   0.599838 0.250061 0.699419 0.852531
C8    C     C_R   0.400232 0.750010 0.300576 0.816917
C9    C     C_R   0.139947 0.749971 0.500104 0.835361
C10   C     C_R   0.860048 0.250033 0.499922 0.811135
C11   C     C_R   0.860055 0.749944 0.499914 0.833745
C12   C     C_R   0.139931 0.250027 0.500055 0.811813
C13   C     C_R   0.639890 0.249928 0.499995 0.838369
C14   C     C_R   0.360068 0.750041 0.499962 0.772813
C15   C     C_R   0.360058 0.249951 0.499924 0.794952
C16   C     C_R   0.639885 0.750067 0.499967 0.814983
C17   C     C_R   0.999999 0.890032 0.500000 0.948102
C18   C     C_R   0.999998 0.109968 0.499997 0.946949
C19   C     C_R   0.508062 0.390282 0.506845 0.856382
C20   C     C_R   0.508061 0.609717 0.506845 0.856044
C21   C     C_R   0.999999 0.609839 0.500020 0.910188
C22   C     C_R   0.999987 0.390330 0.500017 0.883859
C23   C     C_R   0.500000 0.109827 0.500001 0.915115
C24   C     C_R   0.499999 0.890319 0.500001 0.893168
H1    H     H_    0.219702 0.536915 0.628904 0.204158
H2    H     H_    0.784709 0.464296 0.305522 0.203505
H3    H     H_    0.780332 0.536992 0.372198 0.206081
H4    H     H_    0.214983 0.464233 0.695358 0.203317
H5    H     H_    0.719977 0.036878 0.631437 0.207145
H6    H     H_    0.285583 0.964216 0.302797 0.204590
H7    H     H_    0.280024 0.036884 0.368637 0.207355
H8    H     H_    0.714389 0.964211 0.697264 0.204331
C25   C     C_R   0.882878 0.546043 0.447291 0.360021
C26   C     C_R   0.112542 0.455251 0.618634 0.362016
C27   C     C_R   0.117186 0.545952 0.553357 0.362671
C28   C     C_R   0.887182 0.455315 0.381813 0.360766
C29   C     C_R   0.382468 0.045902 0.445278 0.359279
C30   C     C_R   0.612045 0.955205 0.619426 0.361320
C31   C     C_R   0.617536 0.045897 0.554764 0.360101
C32   C     C_R   0.387930 0.955209 0.380604 0.359144
C33   C     C_R   0.826301 0.521988 0.390150 -0.258324
C34   C     C_R   0.171151 0.479003 0.646358 -0.274353
C35   C     C_R   0.173670 0.521917 0.610720 -0.266724
C36   C     C_R   0.828634 0.479063 0.354398 -0.271329
C37   C     C_R   0.326214 0.021895 0.387416 -0.258926
C38   C     C_R   0.670797 0.978984 0.647944 -0.271512
C39   C     C_R   0.673782 0.021890 0.612641 -0.259836
C40   C     C_R   0.329183 0.978988 0.352107 -0.269903
C41   C     C_R   0.943242 0.474823 0.448215 -0.061194
C42   C     C_R   0.057929 0.525865 0.533546 -0.066121
C43   C     C_R   0.056619 0.474787 0.552113 -0.063224
C44   C     C_R   0.942038 0.525912 0.466837 -0.067142
C45   C     C_R   0.443507 0.974759 0.447476 -0.061655
C46   C     C_R   0.558027 0.025836 0.534154 -0.066192
C47   C     C_R   0.556481 0.974757 0.552543 -0.062176
C48   C     C_R   0.441969 0.025839 0.465869 -0.065726
C49   C     C_R   0.999943 0.446658 0.500100 -0.078840
C50   C     C_R   0.999991 0.553792 0.500121 -0.079894
C51   C     C_R   0.499995 0.946626 0.500006 -0.082026
C52   C     C_R   0.499999 0.053760 0.500007 -0.082931
C53   C     C_3   0.782093 0.205381 0.025024 -0.312414
C54   C     C_3   0.213510 0.792853 0.974955 -0.298073
C55   C     C_3   0.203640 0.213618 0.974578 -0.314249
C56   C     C_3   0.805071 0.775919 0.025286 -0.308590
C57   C     C_3   0.285580 0.706346 0.024931 -0.324097
C58   C     C_3   0.719103 0.296138 0.974967 -0.294276
C59   C     C_3   0.695501 0.724588 0.974880 -0.309662
C60   C     C_3   0.296728 0.285052 0.025369 -0.310329
C61   C     C_3   0.211464 0.707564 0.974935 -0.321207
C62   C     C_3   0.792895 0.290038 0.025427 -0.307634
C63   C     C_3   0.763572 0.701106 0.024861 -0.308655
C64   C     C_3   0.223930 0.296515 0.974735 -0.306001
C65   C     C_3   0.708353 0.211492 0.974680 -0.321455
C66   C     C_3   0.287656 0.791675 0.024914 -0.305150
C67   C     C_3   0.276380 0.202160 0.025230 -0.314794
C68   C     C_3   0.737008 0.799417 0.975243 -0.310088
H9    H     H_    0.179109 0.673856 0.953641 0.162358
H10   H     H_    0.828253 0.321655 0.047537 0.166806
H11   H     H_    0.775863 0.661112 0.046012 0.167623
H12   H     H_    0.201385 0.334665 0.952982 0.169804
H13   H     H_    0.672685 0.180110 0.953130 0.163911
H14   H     H_    0.319727 0.825559 0.046249 0.168001
H15   H     H_    0.298995 0.163978 0.046665 0.164789
H16   H     H_    0.725096 0.839405 0.954017 0.174610
H17   H     H_    0.809039 0.168793 0.046289 0.168145
H18   H     H_    0.182948 0.827619 0.953490 0.165056
H19   H     H_    0.164626 0.185159 0.953009 0.165867
H20   H     H_    0.850480 0.796325 0.047195 0.163104
H21   H     H_    0.315720 0.671339 0.046317 0.160277
H22   H     H_    0.692471 0.332788 0.953031 0.174357
H23   H     H_    0.650169 0.704136 0.953342 0.166480
H24   H     H_    0.335597 0.313659 0.047241 0.161410
C69   C     C_1   0.139387 0.749817 0.778781 -0.115482
C70   C     C_1   0.860503 0.250241 0.221214 -0.086948
C71   C     C_1   0.860460 0.750048 0.221215 -0.114882
C72   C     C_1   0.139976 0.249676 0.778782 -0.087063
C73   C     C_1   0.640054 0.250396 0.778805 -0.083762
C74   C     C_1   0.360252 0.749901 0.221181 -0.098734
C75   C     C_1   0.360242 0.249932 0.221193 -0.126024
C76   C     C_1   0.639697 0.750036 0.778815 -0.056328
C77   C     C_3   0.285628 0.748461 0.976034 0.579746
C78   C     C_3   0.714614 0.256623 0.023523 0.595847
C79   C     C_3   0.720086 0.773179 0.023941 0.575720
C80   C     C_3   0.285357 0.238079 0.976721 0.599095
C81   C     C_3   0.786624 0.244915 0.976534 0.590630
C82   C     C_3   0.213535 0.750746 0.023838 0.595233
C83   C     C_3   0.214992 0.260606 0.023235 0.588955
C84   C     C_3   0.780498 0.727373 0.976213 0.595994
C85   C     C_3   0.212725 0.749645 0.926654 0.064780
C86   C     C_3   0.787125 0.250613 0.073339 0.054431
C87   C     C_3   0.787018 0.750113 0.073338 0.061827
C88   C     C_3   0.213805 0.249316 0.926655 0.057310
C89   C     C_3   0.714088 0.250862 0.926706 0.053851
C90   C     C_3   0.286415 0.749594 0.073271 0.059366
C91   C     C_3   0.286542 0.249386 0.073312 0.059127
C92   C     C_3   0.713531 0.750374 0.926731 0.053630
C93   C     C_1   0.172625 0.749717 0.845569 0.012344
C94   C     C_1   0.827162 0.250439 0.154424 0.024529
C95   C     C_1   0.827151 0.750131 0.154426 0.014731
C96   C     C_1   0.173619 0.249418 0.845571 0.022378
C97   C     C_1   0.673758 0.250673 0.845603 0.024853
C98   C     C_1   0.326726 0.749755 0.154378 0.015712
C99   C     C_1   0.326699 0.249718 0.154398 0.005633
C100  C     C_1   0.673210 0.750144 0.845618 0.035809
H25   H     H_    0.915030 0.676833 0.733841 0.142662
H26   H     H_    0.083020 0.317492 0.262472 0.140388
H27   H     H_    0.083516 0.680758 0.263645 0.136915
H28   H     H_    0.915791 0.320798 0.735443 0.142907
H29   H     H_    0.416353 0.180555 0.736268 0.141992
H30   H     H_    0.584096 0.820769 0.264422 0.142868
H31   H     H_    0.583716 0.180151 0.263885 0.141003
H32   H     H_    0.416649 0.818484 0.736977 0.143496
C101  C     C_R   0.740215 0.787124 0.373287 -0.079717
C102  C     C_R   0.260093 0.213765 0.627213 -0.078792
C103  C     C_R   0.260180 0.785930 0.627463 -0.080025
C104  C     C_R   0.739983 0.213382 0.372968 -0.078821
C105  C     C_R   0.239775 0.285834 0.372517 -0.137934
C106  C     C_R   0.759149 0.711245 0.625477 -0.068209
C107  C     C_R   0.759478 0.287713 0.626185 -0.069734
C108  C     C_R   0.239945 0.713505 0.372967 -0.136750
C109  C     C_R   0.682409 0.805659 0.311813 -0.121450
C110  C     C_R   0.318023 0.195587 0.688879 -0.122540
C111  C     C_R   0.318191 0.803834 0.689312 -0.122339
C112  C     C_R   0.682071 0.195133 0.311333 -0.118179
C113  C     C_R   0.181629 0.303344 0.310427 -0.127615
C114  C     C_R   0.816786 0.692172 0.686602 -0.112888
C115  C     C_R   0.817318 0.306152 0.687727 -0.108004
C116  C     C_R   0.181931 0.695515 0.311181 -0.130682
C117  C     C_R   0.628879 0.806084 0.312091 -0.138026
C118  C     C_R   0.371492 0.195028 0.688486 -0.139689
C119  C     C_R   0.371714 0.804247 0.689027 -0.141419
C120  C     C_R   0.628575 0.194630 0.311677 -0.136739
C121  C     C_R   0.128038 0.303519 0.310572 -0.129105
C122  C     C_R   0.870395 0.691961 0.686466 -0.133212
C123  C     C_R   0.870991 0.306173 0.687727 -0.134019
C124  C     C_R   0.128413 0.695141 0.311475 -0.124629
C125  C     C_R   0.632887 0.787927 0.373814 -0.126724
C126  C     C_R   0.367312 0.212739 0.626480 -0.086321
C127  C     C_R   0.367490 0.786700 0.626918 -0.126265
C128  C     C_R   0.632724 0.212434 0.373628 -0.085034
C129  C     C_R   0.132329 0.286164 0.372794 -0.136534
C130  C     C_R   0.866629 0.710829 0.625209 -0.090665
C131  C     C_R   0.867063 0.287800 0.626148 -0.133919
C132  C     C_R   0.132620 0.712848 0.373496 -0.092658
C133  C     C_R   0.690992 0.768375 0.436730 0.070953
C134  C     C_R   0.309081 0.231953 0.563367 0.076421
C135  C     C_R   0.309172 0.767760 0.563609 0.070171
C136  C     C_R   0.690913 0.231780 0.436662 0.078034
C137  C     C_R   0.190748 0.267524 0.436291 0.068862
C138  C     C_R   0.808699 0.730894 0.562653 0.072521
C139  C     C_R   0.808909 0.268393 0.563129 0.066659
C140  C     C_R   0.190893 0.731979 0.436658 0.075166
C141  C     C_R   0.745425 0.768091 0.436544 0.062549
C142  C     C_R   0.254687 0.232301 0.563622 0.056514
C143  C     C_R   0.254751 0.767488 0.563813 0.059174
C144  C     C_R   0.745324 0.232105 0.436438 0.060658
C145  C     C_R   0.245206 0.267373 0.436161 0.074376
C146  C     C_R   0.754230 0.731072 0.562768 0.071569
C147  C     C_R   0.754410 0.268314 0.563181 0.074471
C148  C     C_R   0.245314 0.732223 0.436458 0.072009
C149  C     C_R   0.695944 0.750025 0.499946 -0.118745
C150  C     C_R   0.303933 0.249755 0.499810 -0.125124
C151  C     C_R   0.303972 0.750114 0.499939 -0.137932
C152  C     C_R   0.695960 0.249880 0.500030 -0.103341
C153  C     C_R   0.196010 0.250082 0.500077 -0.146922
C154  C     C_R   0.803899 0.749695 0.499736 -0.128555
C155  C     C_R   0.803916 0.250179 0.499823 -0.140089
C156  C     C_R   0.196055 0.749784 0.500217 -0.132912
H33   H     H_    0.780581 0.788143 0.370576 0.171810
H34   H     H_    0.219758 0.212733 0.629982 0.175734
H35   H     H_    0.219819 0.787041 0.630179 0.171540
H36   H     H_    0.780328 0.212360 0.370219 0.174992
H37   H     H_    0.280250 0.287290 0.370024 0.124464
H38   H     H_    0.718618 0.709865 0.627884 0.159188
H39   H     H_    0.718920 0.289236 0.628528 0.154685
H40   H     H_    0.280389 0.712167 0.370405 0.128678
H41   H     H_    0.679249 0.819992 0.263921 0.150690
H42   H     H_    0.321304 0.181574 0.736979 0.156627
H43   H     H_    0.321508 0.817722 0.737488 0.152243
H44   H     H_    0.678812 0.181053 0.263277 0.156177
H45   H     H_    0.178263 0.317159 0.262189 0.144000
H46   H     H_    0.819742 0.677217 0.734086 0.158624
H47   H     H_    0.820391 0.320758 0.735440 0.155214
H48   H     H_    0.178622 0.681459 0.263084 0.146100
H49   H     H_    0.590075 0.789732 0.371656 0.129288
H50   H     H_    0.410060 0.210745 0.628522 0.138979
H51   H     H_    0.410298 0.788558 0.629079 0.134829
H52   H     H_    0.589955 0.210514 0.371549 0.133247
H53   H     H_    0.089476 0.287920 0.370544 0.126864
H54   H     H_    0.909439 0.709070 0.627354 0.132254
H55   H     H_    0.909947 0.289423 0.628445 0.127626
H56   H     H_    0.089846 0.710939 0.371406 0.130879
H57   H     H_    0.789523 0.953540 0.289063 0.188435
H58   H     H_    0.210591 0.046478 0.710691 0.189962
H59   H     H_    0.210552 0.953565 0.710815 0.189191
H60   H     H_    0.789525 0.046452 0.289060 0.188843
H61   H     H_    0.521759 0.454069 0.729025 0.203938
H62   H     H_    0.601275 0.545935 0.376205 0.208557
H63   H     H_    0.601240 0.454102 0.376162 0.207030
H64   H     H_    0.521764 0.545918 0.729022 0.205321
C157  C     C_R   0.115108 0.946329 0.611362 0.337665
C158  C     C_R   0.884903 0.053672 0.388641 0.338461
C159  C     C_R   0.884902 0.946324 0.388648 0.338184
C160  C     C_R   0.115141 0.053683 0.611240 0.337813
C161  C     C_R   0.580859 0.446833 0.457455 0.359322
C162  C     C_R   0.538970 0.553102 0.645001 0.356438
C163  C     C_R   0.538970 0.446885 0.645008 0.356995
C164  C     C_R   0.580884 0.553180 0.457490 0.356186
C165  C     C_R   0.167604 0.973654 0.668031 -0.230142
C166  C     C_R   0.832465 0.026360 0.331855 -0.229503
C167  C     C_R   0.832465 0.973632 0.331855 -0.229266
C168  C     C_R   0.167623 0.026380 0.667967 -0.227364
C169  C     C_R   0.586313 0.473521 0.406750 -0.272493
C170  C     C_R   0.523241 0.526482 0.686899 -0.268944
C171  C     C_R   0.523239 0.473505 0.686901 -0.274145
C172  C     C_R   0.586331 0.526508 0.406773 -0.269656
C173  C     C_R   0.057179 0.027401 0.555072 -0.069871
C174  C     C_R   0.942838 0.972600 0.444892 -0.069907
C175  C     C_R   0.942838 0.027397 0.444887 -0.069789
C176  C     C_R   0.057169 0.972601 0.555110 -0.069928
C177  C     C_R   0.554266 0.527524 0.490490 -0.062910
C178  C     C_R   0.533390 0.472487 0.584344 -0.061279
C179  C     C_R   0.533386 0.527503 0.584340 -0.061220
C180  C     C_R   0.554262 0.472480 0.490482 -0.062775
C181  C     C_R   0.000002 0.053990 0.499992 -0.129577
C182  C     C_R   1.000000 0.946010 0.500010 -0.130271
C183  C     C_R   0.531631 0.554508 0.526968 -0.095261
C184  C     C_R   0.531635 0.445488 0.526968 -0.095278
N1    N     N_R   0.124427 0.892244 0.610784 0.159998
O53   O     O_R   0.139831 0.874474 0.568466 -0.425599
O54   O     O_R   0.136072 0.864376 0.666150 -0.435045
N2    N     N_R   0.875507 0.107726 0.389402 0.159852
O55   O     O_R   0.863711 0.135729 0.334074 -0.439478
O56   O     O_R   0.860224 0.125325 0.431912 -0.419753
N3    N     N_R   0.875489 0.892277 0.389450 0.159543
O57   O     O_R   0.860299 0.874714 0.432065 -0.427181
O58   O     O_R   0.863565 0.864257 0.334078 -0.431510
N4    N     N_R   0.124512 0.107741 0.610466 0.159814
O59   O     O_R   0.136264 0.135743 0.665772 -0.436642
O60   O     O_R   0.139833 0.125346 0.567993 -0.418091
N5    N     N_R   0.615580 0.399285 0.486540 0.229870
O61   O     O_R   0.633173 0.374737 0.450219 -0.396253
O62   O     O_R   0.642103 0.386927 0.555685 -0.381321
N6    N     N_R   0.573900 0.600397 0.675693 0.231127
O63   O     O_R   0.571701 0.625255 0.725073 -0.396743
O64   O     O_R   0.618236 0.612436 0.667469 -0.367943
N7    N     N_R   0.573894 0.399587 0.675706 0.230868
O65   O     O_R   0.618211 0.387531 0.667457 -0.370168
O66   O     O_R   0.571718 0.374749 0.725118 -0.404708
N8    N     N_R   0.615632 0.600714 0.486622 0.231324
O67   O     O_R   0.642116 0.613054 0.555763 -0.378198
O68   O     O_R   0.633308 0.625248 0.450372 -0.380505
N9    N     N_R   0.879851 0.585185 0.491026 0.221491
O69   O     O_R   0.926279 0.590422 0.561217 -0.424085
O70   O     O_R   0.827477 0.610950 0.463848 -0.371407
N10   N     N_R   0.109243 0.418205 0.664484 0.225759
O71   O     O_R   0.057856 0.414320 0.661959 -0.415910
O72   O     O_R   0.159682 0.392430 0.714818 -0.385661
N11   N     N_R   0.120428 0.585014 0.509691 0.218702
O73   O     O_R   0.074192 0.590176 0.439411 -0.430735
O74   O     O_R   0.172801 0.610837 0.537106 -0.388693
N12   N     N_R   0.890249 0.418344 0.335715 0.225656
O75   O     O_R   0.941464 0.414537 0.337867 -0.418602
O76   O     O_R   0.839750 0.392555 0.285542 -0.380239
N13   N     N_R   0.378677 0.084845 0.488670 0.221978
O77   O     O_R   0.424496 0.089963 0.559115 -0.424335
O78   O     O_R   0.326197 0.110626 0.460741 -0.375575
N14   N     N_R   0.608162 0.918041 0.664712 0.225285
O79   O     O_R   0.556375 0.914067 0.661327 -0.418782
O80   O     O_R   0.658429 0.892285 0.715449 -0.388763
N15   N     N_R   0.621345 0.084838 0.511381 0.221257
O81   O     O_R   0.575538 0.089956 0.440931 -0.424802
O82   O     O_R   0.673827 0.110621 0.539327 -0.381417
N16   N     N_R   0.391792 0.918048 0.335301 0.226537
O83   O     O_R   0.443564 0.914078 0.338654 -0.415176
O84   O     O_R   0.341518 0.892289 0.284583 -0.378199
O85   O     O_3   0.679281 0.262081 0.053162 -0.629916
C185  C     C_3   0.614098 0.270800 0.995692 0.065092
H65   H     H_    0.585492 0.244430 0.004737 0.166521
H66   H     H_    0.600216 0.262622 0.938533 0.126623
C186  C     C_3   0.596621 0.326116 0.999935 -0.326941
H67   H     H_    0.604289 0.332306 0.054233 0.235530
H68   H     H_    0.627911 0.353123 0.996336 0.228717
C187  C     C_3   0.527275 0.337865 0.936992 -0.940930
H69   H     H_    0.519407 0.334075 0.882273 0.275106
H70   H     H_    0.515686 0.377781 0.942744 0.273314
H71   H     H_    0.494867 0.311201 0.938995 0.263484
O86   O     O_3   0.320287 0.747512 0.945202 -0.633840
C188  C     C_3   0.386041 0.744258 0.002874 0.078079
H72   H     H_    0.396974 0.708216 0.035274 0.141004
H73   H     H_    0.401969 0.777901 0.040857 0.136928
C189  C     C_3   0.423082 0.743778 0.968881 -0.308237
H74   H     H_    0.406764 0.711000 0.929588 0.235445
H75   H     H_    0.413582 0.779929 0.937328 0.224658
C190  C     C_3   0.494630 0.738726 0.028789 -0.963071
H76   H     H_    0.512212 0.771644 0.067947 0.265434
H77   H     H_    0.520164 0.738277 0.002389 0.268543
H78   H     H_    0.505254 0.702399 0.060265 0.272757
O87   O     O_3   0.319837 0.226122 0.947477 -0.634229
C191  C     C_3   0.384700 0.216570 0.005479 0.075282
H79   H     H_    0.398029 0.179327 0.993704 0.167604
H80   H     H_    0.395388 0.213064 0.061945 0.121998
C192  C     C_3   0.426213 0.258859 0.006586 -0.335311
H81   H     H_    0.418370 0.260329 0.951691 0.230535
H82   H     H_    0.412394 0.296538 0.016582 0.223899
C193  C     C_3   0.496803 0.249361 0.067369 -0.964064
H83   H     H_    0.505719 0.247706 0.122813 0.269445
H84   H     H_    0.525525 0.281147 0.067749 0.274533
H85   H     H_    0.512341 0.212743 0.056968 0.262037
O88   O     O_3   0.691810 0.797399 0.054835 -0.630635
C194  C     C_3   0.629626 0.813462 0.997217 0.074942
H86   H     H_    0.598839 0.779638 0.966481 0.135052
H87   H     H_    0.630250 0.839430 0.957732 0.143895
C195  C     C_3   0.601286 0.842780 0.031135 -0.304965
H88   H     H_    0.600651 0.817547 0.071090 0.227833
H89   H     H_    0.631576 0.876690 0.062065 0.233563
C196  C     C_3   0.533565 0.860857 0.971298 -0.967263
H90   H     H_    0.533709 0.888151 0.932916 0.272779
H91   H     H_    0.513659 0.880596 0.997875 0.271362
H92   H     H_    0.502507 0.827697 0.938840 0.264987
O89   O     O_3   0.178107 0.751524 0.053711 -0.635066
C197  C     C_3   0.111938 0.753774 0.996176 0.058794
H93   H     H_    0.088491 0.721802 0.004784 0.163394
H94   H     H_    0.099176 0.748999 0.938872 0.125047
C198  C     C_3   0.085091 0.804660 0.000939 -0.325111
H95   H     H_    0.092715 0.807313 0.055662 0.237262
H96   H     H_    0.110682 0.837024 0.996550 0.228279
C199  C     C_3   0.013981 0.809425 0.938871 -0.947184
H97   H     H_    0.005606 0.808934 0.883686 0.269636
H98   H     H_    0.995734 0.846207 0.944874 0.275658
H99   H     H_    0.987266 0.777354 0.941748 0.263390
O90   O     O_3   0.821854 0.238472 0.946918 -0.635974
C200  C     C_3   0.887945 0.235638 0.004604 0.080084
H100  H     H_    0.907317 0.201630 0.993817 0.171122
H101  H     H_    0.899807 0.230320 0.061411 0.124060
C201  C     C_3   0.921252 0.283738 0.003431 -0.334849
H102  H     H_    0.912811 0.287020 0.948332 0.230081
H103  H     H_    0.901032 0.318305 0.011787 0.223761
C202  C     C_3   0.992904 0.281925 0.064291 -0.966199
H104  H     H_    0.002405 0.278807 0.119933 0.266662
H105  H     H_    0.015472 0.317659 0.062780 0.270925
H106  H     H_    0.014650 0.248632 0.055589 0.267167
O91   O     O_3   0.809619 0.703046 0.946358 -0.630017
C203  C     C_3   0.872256 0.687127 0.003881 0.087611
H107  H     H_    0.877333 0.646311 0.993680 0.174102
H108  H     H_    0.883772 0.688794 0.060888 0.119188
C204  C     C_3   0.920563 0.719215 0.001525 -0.341481
H109  H     H_    0.912306 0.713920 0.946760 0.229805
H110  H     H_    0.914062 0.760500 0.007915 0.224071
C205  C     C_3   0.988891 0.703676 0.063358 -0.968403
H111  H     H_    0.998373 0.709269 0.118683 0.265014
H112  H     H_    0.022766 0.727827 0.060573 0.270353
H113  H     H_    0.997116 0.662813 0.057014 0.267414
O92   O     O_3   0.180227 0.272108 0.052258 -0.640451
C206  C     C_3   0.115344 0.281337 0.994018 0.071404
H114  H     H_    0.085823 0.256759 0.003773 0.166479
H115  H     H_    0.101477 0.271558 0.937286 0.126636
C207  C     C_3   0.099294 0.337569 0.995617 -0.334310
H116  H     H_    0.106943 0.345875 0.049476 0.227385
H117  H     H_    0.131418 0.362754 0.990913 0.224868
C208  C     C_3   0.030297 0.349723 0.931883 -0.949802
H118  H     H_    0.022625 0.344122 0.877509 0.265780
H119  H     H_    0.019542 0.390293 0.935969 0.275119
H120  H     H_    0.997119 0.324493 0.934539 0.265218

loop_
_geom_bond_atom_site_label_1
_geom_bond_atom_site_label_2
_geom_bond_distance
_ccdc_geom_bond_type
C56   C68   1.555471 S    
C192  C193  1.526855 S    
C202  H104  1.110918 S    
C68   C92   1.547179 S    
C57   C61   1.555147 S    
Zn8   O10   1.909854 S    
Zn6   O42   1.934455 S    
C60   C64   1.556164 S    
C79   C87   1.529426 S    
C134  C150  1.413971 A    
C38   C39   1.392624 A    
C178  C184  1.431102 A    
C147  C152  1.413793 A    
C54   C82   1.542038 S    
C59   C63   1.555403 S    
C138  C154  1.413846 A    
O90   C200  1.415830 S    
C105  C145  1.417962 A    
O42   C14   1.271027 A    
C187  H69   1.110959 S    
O46   C2    1.280585 A    
C194  H87   1.114122 S    
O24   C18   1.272685 A    
C127  H51   1.081579 S    
C34   C35   1.392599 A    
C188  C189  1.527646 S    
C114  C122  1.389182 A    
C207  C208  1.526528 S    
C208  H119  1.110238 S    
Zn9   O21   1.945762 S    
C8    C74   1.427104 S    
N4    O59   1.300812 A    
H5    C39   1.082503 S    
Zn16  O28   1.945741 S    
C195  H89   1.111683 S    
C186  C187  1.526016 S    
Zn4   O2    1.938045 S    
C106  C114  1.393213 A    
C67   H15   1.110124 S    
C198  H96   1.111171 S    
Zn4   O40   1.934473 S    
C53   C81   1.542285 S    
C9    C156  1.450617 S    
O33   C23   1.271739 A    
O11   C7    1.280169 A    
Zn7   O43   1.934470 S    
N13   O78   1.301609 A    
C78   O85   1.411480 S    
C103  H35   1.081288 S    
O25   C19   1.288244 A    
C59   H23   1.110025 S    
N3    O57   1.300793 A    
C174  C182  1.429870 A    
H3    C33   1.082538 S    
C17   C182  1.458511 S    
N7    O66   1.301861 A    
C112  C120  1.389000 A    
O87   C191  1.416045 S    
Zn12  O24   1.945741 S    
C109  H41   1.082735 S    
C116  C124  1.388911 A    
Zn13  O17   1.932584 S    
C54   C85   1.545829 S    
C29   N13   1.440739 S    
O16   C12   1.270787 A    
Zn10  O14   1.932586 S    
Zn16  O4    1.941593 S    
C104  C112  1.393225 A    
C174  C175  1.427761 A    
C137  C145  1.411050 A    
C7    C73   1.427004 S    
C135  C143  1.411072 A    
O30   C22   1.273938 A    
C28   N12   1.440217 S    
C203  H107  1.110987 S    
C66   C90   1.547073 S    
C78   C86   1.529152 S    
Zn7   O3    1.938048 S    
C139  C155  1.414279 A    
C166  C167  1.373844 A    
O23   C17   1.272705 A    
C129  C137  1.418041 A    
H29   C118  1.082573 S    
Zn8   O34   1.945412 S    
C55   C67   1.554969 S    
C83   C91   1.529349 S    
C28   C41   1.424503 A    
C169  C172  1.380580 A    
H62   C172  1.082739 S    
C84   C92   1.529520 S    
C161  N5    1.442033 S    
C207  H117  1.110930 S    
C3    C69   1.426651 S    
C16   C149  1.451057 S    
C125  H49   1.081643 S    
C72   C96   1.200537 T    
C107  C147  1.417752 A    
C75   C99   1.200638 T    
C53   C86   1.546102 S    
C76   C100  1.200776 T    
C187  H71   1.109820 S    
C131  H55   1.081616 S    
Zn10  O22   1.945761 S    
C109  C117  1.389028 A    
C199  H97   1.110885 S    
C132  H56   1.081613 S    
C157  C165  1.390000 A    
O85   C185  1.415412 S    
C80   O87   1.411261 S    
C32   C40   1.403359 A    
C128  H52   1.081643 S    
C60   C91   1.546464 S    
C129  H53   1.081525 S    
C64   C88   1.546171 S    
C81   O90   1.411446 S    
C101  C141  1.417830 A    
Zn3   O1    1.938048 S    
C65   C89   1.546266 S    
N12   O75   1.301846 A    
C206  H115  1.116954 S    
C63   C87   1.546040 S    
C193  H83   1.111052 S    
N7    O65   1.301273 A    
C86   C94   1.457582 S    
C53   C65   1.555033 S    
C112  H44   1.082623 S    
C164  C177  1.430839 A    
N15   O81   1.301744 A    
Zn5   O35   1.945407 S    
C90   C98   1.457898 S    
C31   C46   1.424592 A    
Zn6   O36   1.945407 S    
O89   C197  1.415860 S    
C196  H90   1.110784 S    
C118  C126  1.393217 A    
C26   C43   1.424458 A    
C189  H74   1.111751 S    
C204  H110  1.110593 S    
C145  C150  1.414288 A    
C200  H100  1.110972 S    
C179  C183  1.431101 A    
C82   C90   1.529151 S    
C177  C183  1.430689 A    
C173  C181  1.429849 A    
C202  H105  1.109983 S    
C68   C79   1.542470 S    
C130  H54   1.081725 S    
Zn9   O45   1.907917 S    
C10   C155  1.451418 S    
C29   C37   1.403259 A    
Zn10  O2    1.941548 S    
C67   C80   1.542604 S    
Zn11  O47   1.907913 S    
C77   O86   1.411001 S    
Zn12  O48   1.907911 S    
N16   O83   1.301839 A    
C194  H86   1.113535 S    
C102  C142  1.417836 A    
C114  H46   1.082615 S    
Zn1   O37   1.934458 S    
Zn5   O11   1.909865 S    
C161  C180  1.430833 A    
Zn3   O39   1.934470 S    
C11   C154  1.451008 S    
C203  C204  1.530086 S    
Zn6   O12   1.909865 S    
C162  C179  1.430957 A    
C191  H79   1.111013 S    
C185  H65   1.110988 S    
O32   C22   1.273624 A    
N5    O62   1.301198 A    
C103  C111  1.393142 A    
C63   C84   1.541917 S    
C113  C121  1.388829 A    
C136  C152  1.413892 A    
C77   C85   1.529665 S    
N9    O70   1.301627 A    
C140  C156  1.413890 A    
C27   C42   1.424621 A    
C199  H99   1.109936 S    
H8    C38   1.082515 S    
N6    O63   1.301828 A    
C196  H92   1.110402 S    
C115  C123  1.389042 A    
C28   C36   1.403370 A    
C82   O89   1.411117 S    
C20   C183  1.523687 S    
O5    C1    1.280415 A    
N3    O58   1.300825 A    
N2    O56   1.300807 A    
C108  C148  1.417853 A    
C102  H34   1.081300 S    
Zn4   O6    1.909854 S    
H59   C165  1.083679 S    
C47   C51   1.427137 A    
O91   C203  1.415962 S    
Zn15  O51   1.907913 S    
C159  C174  1.442928 A    
C111  H43   1.082683 S    
C54   H18   1.109848 S    
C185  C186  1.529902 S    
C197  H93   1.110975 S    
C134  C142  1.411061 A    
C189  C190  1.526299 S    
C191  H80   1.116736 S    
C201  H102  1.111437 S    
C58   H22   1.109437 S    
C200  C201  1.529911 S    
N8    O68   1.301816 A    
O51   C7    1.280562 A    
C161  C169  1.397689 A    
C24   C51   1.467123 S    
O8    C4    1.279843 A    
C18   C181  1.458522 S    
C163  C171  1.397462 A    
C195  H88   1.111107 S    
O34   C24   1.273643 A    
C192  H82   1.110740 S    
C25   C44   1.424734 A    
Zn14  O18   1.932586 S    
C55   C88   1.546297 S    
Zn13  O25   1.945762 S    
C27   C35   1.403254 A    
C31   N15   1.440748 S    
O52   C8    1.280608 A    
C111  C119  1.388921 A    
Zn1   O1    1.938057 S    
O40   C12   1.270966 A    
C190  H78   1.110803 S    
Zn15  O27   1.945740 S    
C68   H16   1.110040 S    
Zn16  O20   1.932572 S    
C53   H17   1.110098 S    
C105  H37   1.081471 S    
C62   H10   1.109427 S    
C191  C192  1.529040 S    
H2    C36   1.082526 S    
C56   H20   1.109528 S    
C187  H70   1.110274 S    
O9    C5    1.279846 A    
C54   C66   1.555759 S    
C30   N14   1.440263 S    
C188  H73   1.114055 S    
C130  C138  1.417530 A    
C160  C173  1.442932 A    
C105  C113  1.393390 A    
C60   H24   1.109632 S    
O13   C9    1.271232 A    
N10   O71   1.301847 A    
C122  C130  1.393311 A    
O7    C3    1.280244 A    
C110  H42   1.082636 S    
C208  H118  1.110935 S    
C58   C78   1.542530 S    
C142  C153  1.414188 A    
C4    C70   1.426700 S    
C202  H106  1.110716 S    
N4    O60   1.300811 A    
O18   C14   1.270948 A    
O92   C206  1.416077 S    
C41   C49   1.427636 A    
O6    C2    1.280000 A    
C117  C125  1.393430 A    
C186  H68   1.110387 S    
C146  C149  1.413729 A    
C198  H95   1.111677 S    
C185  H66   1.117014 S    
C158  C166  1.390025 A    
C32   C45   1.424444 A    
C5    C75   1.426954 S    
C6    C76   1.427061 S    
N13   O77   1.301744 A    
C133  C149  1.414118 A    
C162  N6    1.441642 S    
Zn15  O3    1.941590 S    
C19   C184  1.523639 S    
H61   C171  1.082764 S    
C137  C153  1.414276 A    
C106  C146  1.417562 A    
O43   C15   1.270395 A    
C45   C51   1.427163 A    
H27   C124  1.082587 S    
C44   C50   1.423123 A    
C163  C178  1.431058 A    
C87   C95   1.457592 S    
C25   C33   1.403277 A    
C85   C93   1.457562 S    
C120  C128  1.393293 A    
C139  C147  1.411110 A    
C56   C84   1.542094 S    
N1    O54   1.300806 A    
C57   C77   1.543186 S    
C205  H111  1.110847 S    
C69   C93   1.200507 T    
C88   C96   1.457516 S    
O35   C23   1.271729 A    
C89   C97   1.457830 S    
C201  C202  1.526731 S    
C60   C80   1.541602 S    
C73   C97   1.200699 T    
C92   C100  1.458009 S    
C175  C181  1.429848 A    
C59   C79   1.542909 S    
O29   C21   1.271630 A    
C48   C52   1.423409 A    
C80   C88   1.529484 S    
C203  H108  1.116894 S    
C81   C89   1.529486 S    
H57   C167  1.083700 S    
Zn10  O46   1.907919 S    
C26   N10   1.440257 S    
C104  C144  1.417803 A    
C123  C131  1.393422 A    
C21   C50   1.460314 S    
C12   C153  1.451020 S    
Zn13  O3    1.941549 S    
C65   H13   1.110104 S    
Zn14  O4    1.941548 S    
C23   C52   1.460833 S    
C41   C44   1.399481 A    
C27   N11   1.440729 S    
N11   O73   1.301737 A    
O19   C15   1.271361 A    
Zn1   O31   1.945407 S    
Zn4   O30   1.945412 S    
Zn2   O32   1.945407 S    
H4    C34   1.082520 S    
Zn3   O29   1.945412 S    
C143  C156  1.414188 A    
C29   C48   1.424593 A    
C2    C72   1.426680 S    
C205  H113  1.110758 S    
C67   C91   1.546528 S    
O37   C9    1.270264 A    
C164  N8    1.442050 S    
O39   C11   1.270140 A    
C61   H9    1.110108 S    
C208  H120  1.110012 S    
C138  C146  1.411146 A    
C62   C81   1.542121 S    
C107  C115  1.393266 A    
N12   O76   1.301640 A    
C176  C182  1.429891 A    
H1    C35   1.082509 S    
H26   C121  1.082629 S    
C43   C49   1.427359 A    
O22   C18   1.272759 A    
C198  C199  1.526348 S    
C15   C150  1.451029 S    
Zn2   O38   1.934455 S    
C160  C168  1.389973 A    
H30   C117  1.082617 S    
C13   C152  1.450626 S    
O12   C8    1.280208 A    
C189  H75   1.111636 S    
C178  C179  1.433454 A    
Zn11  O1    1.941590 S    
C79   O88   1.410796 S    
H64   C170  1.082730 S    
C193  H85   1.110804 S    
C126  C134  1.417766 A    
H7    C37   1.082505 S    
Zn5   O3    1.938057 S    
Zn6   O4    1.938057 S    
C108  H40   1.081503 S    
Zn5   O41   1.934458 S    
C125  C133  1.417728 A    
C66   H14   1.110038 S    
C55   H19   1.110123 S    
C61   C82   1.541703 S    
Zn8   O44   1.934473 S    
C104  H36   1.081304 S    
C136  C144  1.411101 A    
N16   O84   1.301628 A    
C64   C83   1.541737 S    
C55   C83   1.542128 S    
C65   C78   1.541639 S    
C22   C49   1.467638 S    
C46   C52   1.423407 A    
C162  C170  1.397469 A    
H28   C123  1.082645 S    
C157  N1    1.431021 S    
C121  C129  1.393243 A    
C140  C148  1.411042 A    
H32   C119  1.082697 S    
C126  H50   1.081638 S    
C119  C127  1.393402 A    
C199  H98   1.110326 S    
O38   C10   1.270714 A    
O50   C6    1.280738 A    
C194  C195  1.527544 S    
C207  H116  1.111562 S    
Zn2   O2    1.938057 S    
N5    O61   1.301807 A    
C135  C151  1.414374 A    
C84   O91   1.411545 S    
C64   H12   1.109736 S    
H58   C168  1.083680 S    
C192  H81   1.111356 S    
Zn13  O49   1.907917 S    
N9    O69   1.301730 A    
C157  C176  1.442971 A    
C106  H38   1.081654 S    
C63   H11   1.110099 S    
C158  C175  1.442907 A    
Zn8   O4    1.938045 S    
C30   C38   1.403366 A    
C164  C172  1.397665 A    
O21   C17   1.272745 A    
N6    O64   1.301271 A    
C124  C132  1.393155 A    
C32   N16   1.440248 S    
C196  H91   1.110369 S    
C103  C143  1.417967 A    
C131  C139  1.417821 A    
O49   C5    1.280859 A    
C71   C95   1.200522 T    
H60   C166  1.083674 S    
C42   C43   1.399362 A    
C133  C141  1.411133 A    
C45   C48   1.399375 A    
C206  C207  1.528965 S    
C144  C155  1.414333 A    
C30   C47   1.424430 A    
Zn16  O52   1.907911 S    
C159  C167  1.390023 A    
C57   H21   1.109963 S    
C148  C151  1.414371 A    
Zn9   O13   1.932584 S    
Zn14  O26   1.945761 S    
C37   C40   1.392607 A    
C201  H103  1.110389 S    
Zn11  O15   1.932574 S    
C200  H101  1.116850 S    
Zn12  O16   1.932572 S    
C83   O92   1.411310 S    
O31   C21   1.271524 A    
C59   C92   1.546824 S    
C102  C110  1.393079 A    
Zn15  O19   1.932574 S    
C160  N4    1.431028 S    
C101  H33   1.081310 S    
C101  C109  1.393172 A    
C14   C151  1.451431 S    
Zn7   O33   1.945412 S    
C197  C198  1.528986 S    
C33   C36   1.392573 A    
C70   C94   1.200551 T    
C180  C184  1.430739 A    
C74   C98   1.200770 T    
C163  N7    1.441670 S    
N14   O80   1.301625 A    
C190  H77   1.110255 S    
N11   O74   1.301605 A    
C195  C196  1.526526 S    
H6    C40   1.082518 S    
C159  N3    1.431016 S    
C173  C176  1.427826 A    
C158  N2    1.431025 S    
Zn14  O50   1.907919 S    
N15   O82   1.301609 A    
Zn7   O9    1.909854 S    
Zn11  O23   1.945740 S    
C31   C39   1.403264 A    
C188  H72   1.113567 S    
C193  H84   1.109570 S    
Zn9   O1    1.941549 S    
N10   O72   1.301628 A    
Zn1   O7    1.909865 S    
C66   C77   1.542373 S    
Zn2   O8    1.909865 S    
C165  C168  1.373809 A    
O41   C13   1.270742 A    
Zn3   O5    1.909854 S    
O26   C20   1.286700 A    
C58   C89   1.546370 S    
C113  H45   1.082674 S    
C62   C86   1.546640 S    
C25   N9    1.440800 S    
O86   C188  1.410480 S    
C186  H67   1.111462 S    
C177  C180  1.434196 A    
O45   C1    1.280173 A    
C170  C171  1.380345 A    
H25   C122  1.082578 S    
C197  H94   1.117030 S    
H31   C120  1.082660 S    
C1    C71   1.426684 S    
O47   C3    1.280357 A    
C91   C99   1.457581 S    
C58   C62   1.556095 S    
O15   C11   1.271571 A    
C127  C135  1.417954 A    
C110  C118  1.388984 A    
O27   C19   1.286688 A    
N2    O55   1.300815 A    
C204  C205  1.526765 S    
C206  H114  1.110937 S    
O44   C16   1.271256 A    
C107  H39   1.081613 S    
O20   C16   1.270448 A    
N14   O79   1.301839 A    
O10   C6    1.279998 A    
O48   C4    1.280787 A    
N1    O53   1.300813 A    
C205  H112  1.109843 S    
C128  C136  1.417814 A    
C26   C34   1.403353 A    
C56   C87   1.545596 S    
C204  H109  1.111573 S    
O14   C10   1.271242 A    
C57   C90   1.546698 S    
C61   C85   1.546092 S    
C108  C116  1.393447 A    
N8    O67   1.301179 A    
H63   C169  1.082725 S    
Zn12  O2    1.941593 S    
C132  C140  1.417923 A    
O88   C194  1.410352 S    
C141  C154  1.414093 A    
C42   C50   1.423163 A    
C115  H47   1.082637 S    
C46   C47   1.399368 A    
O28   C20   1.288256 A    
O17   C13   1.270709 A    
C116  H48   1.082624 S    
O36   C24   1.273613 A    
C190  H76   1.110828 S    
