data_mof_unit_49791.cif
_audit_creation_date              2012-12-10T19:09:34-0500
_audit_creation_method            fapswitch 2.2
_symmetry_space_group_name_H-M    P1
_symmetry_Int_Tables_number       1
_space_group_crystal_system       triclinic
_cell_length_a                    15.550521
_cell_length_b                    15.671752
_cell_length_c                    9.646244
_cell_angle_alpha                 89.675583
_cell_angle_beta                  89.999378
_cell_angle_gamma                 89.999633
_cell_volume                      2350.78968223

loop_
_atom_site_label
_atom_site_type_symbol
_atom_type_description
_atom_site_fract_x
_atom_site_fract_y
_atom_site_fract_z
_atom_type_partial_charge
C1    C     C_R   0.124225 0.382478 0.500599 0.929322
C2    C     C_R   0.124226 0.617521 0.499400 0.929290
C3    C     C_R   0.624225 0.882478 0.500599 0.929323
C4    C     C_R   0.624226 0.117521 0.499400 0.929290
C5    C     C_3   0.910774 0.510120 0.079166 -0.238289
C6    C     C_3   0.910774 0.489879 0.920838 -0.238302
C7    C     C_3   0.410774 0.010120 0.079166 -0.238288
C8    C     C_3   0.410774 0.989880 0.920838 -0.238301
C9    C     C_R   0.882870 0.373562 0.500245 0.952531
C10   C     C_R   0.882877 0.626443 0.499756 0.952534
C11   C     C_R   0.382870 0.873562 0.500245 0.952531
C12   C     C_R   0.382876 0.126443 0.499756 0.952537
C13   C     C_3   0.845093 0.219309 0.597880 0.408771
C14   C     C_3   0.801549 0.263882 0.341141 0.367301
C15   C     C_3   0.845098 0.780702 0.402131 0.408744
C16   C     C_3   0.801547 0.736117 0.658864 0.367296
C17   C     C_3   0.345093 0.719309 0.597879 0.408770
C18   C     C_3   0.301548 0.763883 0.341141 0.367301
C19   C     C_3   0.345097 0.280700 0.402130 0.408745
C20   C     C_3   0.301548 0.236118 0.658864 0.367296
C21   C     C_3   0.281148 0.643683 0.563977 -0.091768
C22   C     C_3   0.218753 0.706787 0.342990 -0.027986
C23   C     C_3   0.281149 0.356324 0.436036 -0.091760
C24   C     C_3   0.218750 0.293212 0.657012 -0.027985
C25   C     C_3   0.781148 0.143683 0.563977 -0.091769
C26   C     C_3   0.718753 0.206786 0.342990 -0.027987
C27   C     C_3   0.781150 0.856325 0.436037 -0.091760
C28   C     C_3   0.718750 0.793211 0.657012 -0.027985
C29   C     C_3   0.726797 0.336439 0.563328 0.336593
C30   C     C_3   0.726809 0.663563 0.436670 0.336576
C31   C     C_3   0.226797 0.836439 0.563329 0.336595
C32   C     C_3   0.226808 0.163562 0.436672 0.336579
C33   C     C_3   0.817072 0.300898 0.500399 -0.084803
C34   C     C_3   0.817078 0.699107 0.499605 -0.084788
C35   C     C_3   0.317072 0.800898 0.500399 -0.084804
C36   C     C_3   0.317078 0.199107 0.499605 -0.084788
C37   C     C_3   0.195613 0.680973 0.497647 -0.107967
C38   C     C_3   0.195613 0.319028 0.502354 -0.107948
C39   C     C_3   0.695613 0.180973 0.497647 -0.107967
C40   C     C_3   0.695613 0.819028 0.502354 -0.107945
C41   C     C_3   0.166352 0.758871 0.583728 -0.338861
C42   C     C_3   0.166361 0.241129 0.416266 -0.338909
C43   C     C_3   0.666352 0.258871 0.583727 -0.338860
C44   C     C_3   0.666362 0.741129 0.416264 -0.338912
C45   C     C_3   0.039207 0.421674 0.080994 -0.225781
C46   C     C_3   0.047809 0.427038 0.918715 -0.255012
C47   C     C_3   0.039204 0.578327 0.919005 -0.225774
C48   C     C_3   0.047808 0.572963 0.081284 -0.255015
C49   C     C_3   0.539206 0.921674 0.080994 -0.225781
C50   C     C_3   0.547809 0.927037 0.918715 -0.255012
C51   C     C_3   0.539204 0.078327 0.919005 -0.225775
C52   C     C_3   0.547808 0.072962 0.081284 -0.255015
H1    H     H_    0.312022 0.604260 0.482682 0.217212
H2    H     H_    0.236685 0.644895 0.294712 0.180989
H3    H     H_    0.312019 0.395743 0.517339 0.217209
H4    H     H_    0.236679 0.355103 0.705292 0.180985
H5    H     H_    0.812022 0.104260 0.482683 0.217212
H6    H     H_    0.736685 0.144895 0.294713 0.180989
H7    H     H_    0.812018 0.895743 0.517341 0.217209
H8    H     H_    0.736678 0.855102 0.705292 0.180985
H9    H     H_    0.163264 0.739660 0.694612 0.180829
H10   H     H_    0.099461 0.775511 0.560279 0.244807
H11   H     H_    0.163280 0.260339 0.305381 0.180829
H12   H     H_    0.099468 0.224486 0.439708 0.244809
H13   H     H_    0.663263 0.239660 0.694612 0.180829
H14   H     H_    0.599461 0.275511 0.560278 0.244807
H15   H     H_    0.663282 0.760340 0.305379 0.180828
H16   H     H_    0.599469 0.724486 0.439703 0.244809
H17   H     H_    0.001257 0.364558 0.110867 0.173892
H18   H     H_    0.022757 0.367182 0.873176 0.166709
H19   H     H_    0.001252 0.635442 0.889134 0.173892
H20   H     H_    0.022755 0.632819 0.126825 0.166708
H21   H     H_    0.501257 0.864558 0.110868 0.173893
H22   H     H_    0.522757 0.867181 0.873176 0.166708
H23   H     H_    0.501252 0.135442 0.889134 0.173892
H24   H     H_    0.522756 0.132819 0.126825 0.166709
H25   H     H_    0.104020 0.412648 0.125800 0.152633
H26   H     H_    0.116744 0.433860 0.889804 0.158892
H27   H     H_    0.104016 0.587354 0.874196 0.152634
H28   H     H_    0.116742 0.566139 0.110190 0.158889
H29   H     H_    0.604019 0.912648 0.125800 0.152633
H30   H     H_    0.616743 0.933859 0.889804 0.158892
H31   H     H_    0.604017 0.087354 0.874196 0.152634
H32   H     H_    0.616742 0.066139 0.110190 0.158889
H33   H     H_    0.863306 0.472651 0.135478 0.151995
H34   H     H_    0.887245 0.423479 0.907165 0.143723
H35   H     H_    0.863304 0.527346 0.864526 0.151988
H36   H     H_    0.887243 0.576519 0.092842 0.143717
H37   H     H_    0.363306 0.972651 0.135478 0.151995
H38   H     H_    0.387245 0.923479 0.907164 0.143723
H39   H     H_    0.363305 0.027347 0.864526 0.151988
H40   H     H_    0.387243 0.076519 0.092842 0.143717
N1    N     N_3   0.998760 0.500000 0.138610 -0.040761
N2    N     N_3   0.998760 0.500000 0.861390 -0.040761
N3    N     N_3   0.498760 0.000000 0.138610 -0.040762
N4    N     N_3   0.498760 1.000000 0.861390 -0.040761
O1    O     O_R   0.092530 0.407440 0.616040 -0.640969
O2    O     O_R   0.092530 0.407440 0.383960 -0.625958
O3    O     O_R   0.092530 0.592560 0.383960 -0.640964
O4    O     O_R   0.092530 0.592560 0.616040 -0.625965
O5    O     O_R   0.592530 0.907440 0.616040 -0.640970
O6    O     O_R   0.592530 0.907440 0.383960 -0.625958
O7    O     O_R   0.592530 0.092560 0.383960 -0.640964
O8    O     O_R   0.592530 0.092560 0.616040 -0.625965
O9    O     O_R   0.907330 0.407420 0.616040 -0.635679
O10   O     O_R   0.907330 0.407420 0.383960 -0.619413
O11   O     O_R   0.907330 0.592580 0.383960 -0.635675
O12   O     O_R   0.907330 0.592580 0.616040 -0.619417
O13   O     O_R   0.407330 0.907420 0.616040 -0.635680
O14   O     O_R   0.407330 0.907420 0.383960 -0.619412
O15   O     O_R   0.407330 0.092580 0.383960 -0.635675
O16   O     O_R   0.407330 0.092580 0.616040 -0.619418
Zn1   Zn    Zn3+2 0.999890 0.500000 0.654960 0.921022
Zn2   Zn    Zn3+2 0.999890 0.500000 0.345040 0.921024
Zn3   Zn    Zn3+2 0.499890 0.000000 0.654960 0.921022
Zn4   Zn    Zn3+2 0.499890 0.000000 0.345040 0.921024
C53   C     C_3   0.849466 0.235633 0.757015 -0.811350
H41   H     H_    0.887382 0.185936 0.812529 0.270029
H42   H     H_    0.881788 0.296318 0.781519 0.243812
H43   H     H_    0.786585 0.230390 0.808786 0.211350
C54   C     C_3   0.799268 0.327752 0.216875 -0.807735
H44   H     H_    0.864714 0.344011 0.182888 0.261645
H45   H     H_    0.774463 0.297122 0.121293 0.234145
H46   H     H_    0.762735 0.386706 0.234287 0.213019
C55   C     C_3   0.849474 0.764386 0.242995 -0.811342
H47   H     H_    0.887386 0.814091 0.187489 0.270045
H48   H     H_    0.881804 0.703703 0.218487 0.243791
H49   H     H_    0.786588 0.769629 0.191230 0.211358
C56   C     C_3   0.799264 0.672245 0.783126 -0.807725
H50   H     H_    0.864709 0.655986 0.817116 0.261642
H51   H     H_    0.774454 0.702872 0.878708 0.234142
H52   H     H_    0.762732 0.613291 0.765709 0.213025
C57   C     C_3   0.349467 0.735633 0.757015 -0.811350
H53   H     H_    0.387383 0.685936 0.812528 0.270029
H54   H     H_    0.381788 0.796318 0.781518 0.243812
H55   H     H_    0.286585 0.730390 0.808786 0.211351
C58   C     C_3   0.299268 0.827752 0.216875 -0.807735
H56   H     H_    0.364714 0.844011 0.182887 0.261645
H57   H     H_    0.274461 0.797123 0.121293 0.234145
H58   H     H_    0.262734 0.886707 0.234288 0.213019
C59   C     C_3   0.349471 0.264384 0.242994 -0.811344
H59   H     H_    0.387383 0.314088 0.187486 0.270045
H60   H     H_    0.381799 0.203700 0.218486 0.243792
H61   H     H_    0.286585 0.269628 0.191230 0.211358
C60   C     C_3   0.299266 0.172246 0.783126 -0.807724
H62   H     H_    0.364711 0.155987 0.817115 0.261642
H63   H     H_    0.274457 0.202874 0.878709 0.234143
H64   H     H_    0.262733 0.113292 0.765711 0.213025
Br1   Br    Br    0.961592 0.177166 0.570138 -0.603041
Br2   Br    Br    0.895663 0.190485 0.268646 -0.579386
Br3   Br    Br    0.961592 0.822848 0.429878 -0.603057
Br4   Br    Br    0.895656 0.809514 0.731369 -0.579385
Br5   Br    Br    0.461592 0.677166 0.570137 -0.603041
Br6   Br    Br    0.395662 0.690486 0.268645 -0.579386
Br7   Br    Br    0.461592 0.322846 0.429873 -0.603057
Br8   Br    Br    0.395658 0.309515 0.731366 -0.579385
C61   C     C_3   0.270046 0.576900 0.681621 -0.837341
H65   H     H_    0.237839 0.518764 0.642014 0.225986
H66   H     H_    0.333769 0.555933 0.720920 0.290138
H67   H     H_    0.232021 0.602206 0.768873 0.240469
C62   C     C_3   0.143067 0.736175 0.245326 -0.828114
H68   H     H_    0.148799 0.701671 0.146288 0.207506
H69   H     H_    0.078929 0.726215 0.290366 0.293523
H70   H     H_    0.142119 0.802172 0.206404 0.240940
C63   C     C_3   0.270050 0.423115 0.318401 -0.837357
H71   H     H_    0.237838 0.481248 0.358014 0.225975
H72   H     H_    0.333772 0.444088 0.279117 0.290145
H73   H     H_    0.232031 0.397816 0.231140 0.240476
C64   C     C_3   0.143065 0.263823 0.754677 -0.828110
H74   H     H_    0.148800 0.298321 0.853722 0.207501
H75   H     H_    0.078926 0.273791 0.709646 0.293529
H76   H     H_    0.142114 0.197823 0.793588 0.240946
C65   C     C_3   0.770046 0.076900 0.681622 -0.837340
H77   H     H_    0.737839 0.018764 0.642015 0.225986
H78   H     H_    0.833768 0.055933 0.720921 0.290138
H79   H     H_    0.732020 0.102206 0.768874 0.240469
C66   C     C_3   0.643068 0.236174 0.245325 -0.828114
H80   H     H_    0.648800 0.201670 0.146287 0.207505
H81   H     H_    0.578929 0.226214 0.290364 0.293524
H82   H     H_    0.642120 0.302171 0.206403 0.240940
C67   C     C_3   0.770050 0.923116 0.318402 -0.837358
H83   H     H_    0.737838 0.981248 0.358015 0.225975
H84   H     H_    0.833772 0.944089 0.279119 0.290145
H85   H     H_    0.732031 0.897816 0.231140 0.240476
C68   C     C_3   0.643064 0.763822 0.754676 -0.828109
H86   H     H_    0.648799 0.798319 0.853721 0.207501
H87   H     H_    0.578925 0.773791 0.709645 0.293529
H88   H     H_    0.642112 0.697821 0.793585 0.240947
C69   C     C_3   0.730385 0.388097 0.703154 -0.866039
H89   H     H_    0.748924 0.354730 0.797958 0.218673
H90   H     H_    0.665154 0.411332 0.731514 0.254759
H91   H     H_    0.771200 0.445333 0.695491 0.246196
C70   C     C_3   0.682050 0.400283 0.465730 -0.854330
H92   H     H_    0.626773 0.431688 0.516957 0.281945
H93   H     H_    0.728700 0.447488 0.428632 0.224699
H94   H     H_    0.650519 0.371893 0.378586 0.274547
C71   C     C_3   0.730407 0.611903 0.296848 -0.865941
H95   H     H_    0.665159 0.588721 0.268442 0.254752
H96   H     H_    0.771183 0.554635 0.304565 0.246188
H97   H     H_    0.749020 0.645247 0.202044 0.218654
C72   C     C_3   0.682059 0.599715 0.534262 -0.854341
H98   H     H_    0.728708 0.552509 0.571374 0.224720
H99   H     H_    0.650515 0.628105 0.621397 0.274556
H100  H     H_    0.626790 0.568306 0.483019 0.281935
C73   C     C_3   0.230385 0.888096 0.703155 -0.866041
H101  H     H_    0.248923 0.854729 0.797958 0.218673
H102  H     H_    0.165154 0.911332 0.731515 0.254759
H103  H     H_    0.271201 0.945332 0.695493 0.246196
C74   C     C_3   0.182050 0.900284 0.465731 -0.854330
H104  H     H_    0.126773 0.931689 0.516958 0.281945
H105  H     H_    0.228700 0.947489 0.428633 0.224701
H106  H     H_    0.150520 0.871894 0.378587 0.274547
C75   C     C_3   0.230405 0.111902 0.296850 -0.865953
H107  H     H_    0.165158 0.088717 0.268448 0.254754
H108  H     H_    0.271184 0.054636 0.304563 0.246188
H109  H     H_    0.249013 0.145247 0.202046 0.218656
C76   C     C_3   0.182059 0.099715 0.534266 -0.854340
H110  H     H_    0.228709 0.052509 0.571377 0.224721
H111  H     H_    0.150516 0.128105 0.621401 0.274555
H112  H     H_    0.126790 0.068306 0.483025 0.281936

loop_
_geom_bond_atom_site_label_1
_geom_bond_atom_site_label_2
_ccdc_geom_bond_type
C16   C28   S    
C49   C50   S    
C63   H71   S    
C51   H31   S    
C11   O13   A    
C19   Br7   S    
C64   H74   S    
C10   O12   A    
C8    N4    S    
C41   H9    S    
C29   C69   S    
C30   C44   S    
C60   H64   S    
C14   C33   S    
C15   Br3   S    
C62   H68   S    
C7    C8    S    
C22   H2    S    
C45   C46   S    
C76   H112  S    
C75   H109  S    
C61   H65   S    
O10   Zn2   S    
C32   C36   S    
O9    Zn1   S    
C51   H23   S    
C31   C73   S    
C19   C36   S    
C50   H22   S    
C5    C6    S    
C26   C39   S    
C68   H87   S    
C28   C40   S    
C9    O9    A    
C7    H37   S    
C4    O7    A    
C29   C33   S    
C74   H106  S    
C52   N3    S    
C52   H32   S    
C72   H98   S    
C49   H29   S    
C69   H90   S    
C54   H46   S    
C16   C34   S    
C23   C63   S    
C5    H36   S    
C59   H59   S    
C20   C24   S    
C69   H91   S    
C70   H93   S    
C31   C74   S    
C57   H55   S    
C24   C38   S    
N4    Zn3   S    
O15   Zn4   S    
C47   H27   S    
C12   C36   S    
C20   Br8   S    
C18   C35   S    
C27   C40   S    
C15   C34   S    
C32   C76   S    
C18   Br6   S    
C51   N4    S    
C56   H52   S    
C5    H33   S    
C70   H94   S    
C28   H8    S    
C2    O4    A    
C66   H81   S    
C19   C59   S    
C14   C54   S    
C65   H77   S    
C29   C43   S    
C11   O14   A    
C9    C33   S    
C72   H99   S    
C13   C25   S    
C10   O11   A    
C67   H85   S    
C25   H5    S    
C41   H10   S    
O3    Zn2   S    
C8    H38   S    
C60   H63   S    
N2    Zn1   S    
C60   H62   S    
C75   H108  S    
C39   C43   S    
C67   H84   S    
C58   H58   S    
C46   H18   S    
C48   N1    S    
C30   C34   S    
C45   H17   S    
C51   C52   S    
C64   H76   S    
C16   Br4   S    
C59   H61   S    
C1    O1    A    
C46   H26   S    
C22   C62   S    
C68   H88   S    
C62   H69   S    
C6    N2    S    
C17   Br5   S    
C67   H83   S    
C22   C37   S    
C71   H95   S    
C14   C26   S    
C6    H35   S    
C59   H60   S    
O12   Zn1   S    
C71   H97   S    
C19   C23   S    
C27   C67   S    
O11   Zn2   S    
C13   C33   S    
C24   C64   S    
C55   H49   S    
O8    Zn3   S    
C58   H57   S    
C15   C27   S    
C47   C48   S    
C46   N2    S    
C4    C39   S    
C75   H107  S    
N3    Zn4   S    
C43   H13   S    
C66   H82   S    
C14   Br2   S    
C74   H104  S    
C10   C34   S    
C8    H39   S    
C49   N3    S    
C71   H96   S    
C23   H3    S    
C16   C56   S    
C26   H6    S    
C47   H19   S    
C54   H44   S    
C65   H78   S    
C1    C38   S    
C32   C75   S    
C3    O6    A    
C76   H110  S    
C45   N1    S    
C70   H92   S    
C63   H73   S    
C17   C57   S    
C57   H53   S    
O5    Zn3   S    
C72   H100  S    
C49   H21   S    
C44   H16   S    
C24   H4    S    
C48   H20   S    
O1    Zn1   S    
O14   Zn4   S    
C12   O16   A    
C62   H70   S    
C50   H30   S    
C57   H54   S    
C56   H50   S    
C64   H75   S    
C26   C66   S    
C30   C72   S    
C73   H101  S    
C74   H105  S    
C31   C41   S    
C18   C22   S    
C21   C61   S    
O4    Zn1   S    
C52   H24   S    
C63   H72   S    
C1    O2    A    
C3    C40   S    
C42   H12   S    
C5    N1    S    
C38   C42   S    
C61   H67   S    
C76   H111  S    
C23   C38   S    
C7    N3    S    
C58   H56   S    
C6    H34   S    
C48   H28   S    
C53   H42   S    
C2    O3    A    
C9    O10   A    
C13   Br1   S    
C27   H7    S    
C53   H41   S    
C25   C39   S    
C21   H1    S    
C2    C37   S    
C3    O5    A    
C68   H86   S    
C55   H47   S    
C43   H14   S    
C29   C70   S    
C7    H40   S    
C4    O8    A    
C11   C35   S    
C65   H79   S    
C47   N2    S    
C53   H43   S    
O7    Zn4   S    
C31   C35   S    
N1    Zn2   S    
O16   Zn3   S    
C37   C41   S    
C69   H89   S    
C18   C58   S    
C17   C21   S    
C54   H45   S    
O6    Zn4   S    
O13   Zn3   S    
C20   C36   S    
C25   C65   S    
C40   C44   S    
C30   C71   S    
C21   C37   S    
C61   H66   S    
C66   H80   S    
C15   C55   S    
C50   N4    S    
C13   C53   S    
C55   H48   S    
C32   C42   S    
C20   C60   S    
C44   H15   S    
C45   H25   S    
C73   H103  S    
C17   C35   S    
O2    Zn2   S    
C28   C68   S    
C73   H102  S    
C42   H11   S    
C12   O15   A    
C56   H51   S    
