data_mof_unit_8648.cif
_audit_creation_date              2012-12-10T16:56:30-0500
_audit_creation_method            fapswitch 2.2
_symmetry_space_group_name_H-M    P1
_symmetry_Int_Tables_number       1
_space_group_crystal_system       triclinic
_cell_length_a                    7.829093
_cell_length_b                    8.57419
_cell_length_c                    15.672984
_cell_angle_alpha                 90.589554
_cell_angle_beta                  88.022329
_cell_angle_gamma                 92.757822
_cell_volume                      1050.21441656

loop_
_atom_site_label
_atom_site_type_symbol
_atom_type_description
_atom_site_fract_x
_atom_site_fract_y
_atom_site_fract_z
_atom_type_partial_charge
C1    C     C_R   0.544866 0.794151 0.497861 0.969891
C2    C     C_3   0.371836 0.396395 0.024809 -0.270995
C3    C     C_1   0.517930 0.499854 0.750284 -0.098140
C4    C     C_1   0.482071 0.500146 0.249716 -0.098146
C5    C     C_3   0.353056 0.540324 0.967148 0.157407
C6    C     C_3   0.646945 0.459676 0.032852 0.157407
C7    C     C_3   0.516698 0.499202 0.916731 0.072230
C8    C     C_3   0.483303 0.500798 0.083269 0.072232
C9    C     C_1   0.523407 0.499578 0.825587 0.095675
C10   C     C_1   0.476593 0.500422 0.174413 0.095674
C11   C     C_2   0.420387 0.803809 0.055325 0.460627
C12   C     C_R   0.455134 0.205849 0.502139 0.969890
C13   C     C_2   0.579614 0.196191 0.944675 0.460627
C14   C     C_2   0.010672 0.431192 0.392807 0.723957
C15   C     C_2   0.989336 0.568788 0.607197 0.723979
C16   C     C_R   0.505296 0.500154 0.661671 0.901868
C17   C     C_R   0.494704 0.499847 0.338329 0.901869
C18   C     C_2   0.568678 0.957322 0.496622 -0.333937
C19   C     C_2   0.431322 0.042678 0.503378 -0.333934
C20   C     C_3   0.464069 0.642944 0.026771 -0.042436
C21   C     C_3   0.535931 0.357057 0.973229 -0.042436
C22   C     C_3   0.628165 0.603605 0.975191 -0.270993
H1    H     H_    0.731957 0.688309 0.953650 0.204144
H2    H     H_    0.268043 0.311691 0.046350 0.204143
H3    H     H_    0.699043 0.006748 0.490128 0.203424
H4    H     H_    0.300957 0.993252 0.509872 0.203423
H5    H     H_    0.397390 0.890967 0.008023 0.068062
H6    H     H_    0.602611 0.109033 0.991977 0.068063
H7    H     H_    0.058112 0.528306 0.353438 0.036215
H8    H     H_    0.941920 0.471671 0.646563 0.036202
I1    I     I_    0.873245 0.390147 0.092286 -0.311939
I2    I     I_    0.126755 0.609853 0.907714 -0.311927
N1    N     N_2   0.950320 0.457950 0.477300 -0.202230
N2    N     N_2   0.049680 0.542050 0.522700 -0.202232
O1    O     O_R   0.389250 0.738570 0.505570 -0.605378
O2    O     O_2   0.591303 0.162807 0.868916 -0.550131
O3    O     O_2   0.998824 0.300066 0.361999 -0.573702
O4    O     O_2   0.001180 0.699905 0.638016 -0.573701
O5    O     O_R   0.610750 0.261430 0.494430 -0.605377
O6    O     O_R   0.678390 0.711630 0.491020 -0.625593
O7    O     O_R   0.321610 0.288370 0.508980 -0.625597
O8    O     O_R   0.355460 0.513480 0.630490 -0.614365
O9    O     O_R   0.644540 0.486520 0.369510 -0.614362
O10   O     O_R   0.644600 0.486540 0.615950 -0.654129
O11   O     O_R   0.355400 0.513460 0.384050 -0.654137
O12   O     O_2   0.408697 0.837193 0.131083 -0.550130
Zn1   Zn    Zn3+2 0.306940 0.517990 0.509710 0.989466
Zn2   Zn    Zn3+2 0.693060 0.482010 0.490290 0.989470

loop_
_geom_bond_atom_site_label_1
_geom_bond_atom_site_label_2
_ccdc_geom_bond_type
C13   O2    D    
C17   O9    A    
C13   H6    S    
C12   O7    A    
C3    C9    T    
C7    C22   S    
O9    Zn2   S    
C16   O10   A    
C15   N2    S    
C11   H5    S    
C5    I2    S    
O1    Zn1   S    
C14   N1    S    
C6    I1    S    
O7    Zn1   S    
C13   C21   S    
C15   O4    D    
C5    C20   S    
C14   O3    D    
C1    C18   S    
C8    C20   S    
C18   H3    S    
C2    C21   S    
C4    C17   S    
C12   C19   S    
C20   C22   S    
N1    N2    D    
C7    C9    S    
O8    Zn1   S    
O11   Zn1   S    
C2    H2    S    
C11   C20   S    
C2    C5    S    
C14   H7    S    
C4    C10   T    
C6    C22   S    
C16   O8    A    
C1    O1    A    
C15   H8    S    
C8    C10   S    
C18   C19   D    
C5    C7    S    
N1    Zn2   S    
O6    Zn2   S    
C22   H1    S    
C11   O12   D    
C6    C8    S    
N2    Zn1   S    
C1    O6    A    
C7    C21   S    
C6    C21   S    
C12   O5    A    
C2    C8    S    
C3    C16   S    
O10   Zn2   S    
C17   O11   A    
O5    Zn2   S    
C19   H4    S    
