data_mof_unit_19331.cif
_audit_creation_date              2013-03-05T15:39:58-0500
_audit_creation_method            fapswitch 2.2
_symmetry_space_group_name_H-M    P1
_symmetry_Int_Tables_number       1
_space_group_crystal_system       triclinic
_cell_length_a                    27.615038
_cell_length_b                    27.606156
_cell_length_c                    27.618665
_cell_angle_alpha                 89.923331
_cell_angle_beta                  89.967007
_cell_angle_gamma                 89.889749
_cell_volume                      21054.8911767

loop_
_atom_site_label
_atom_site_type_symbol
_atom_site_description
_atom_site_fract_x
_atom_site_fract_y
_atom_site_fract_z
_atom_type_partial_charge
C1    C     C_R   0.028575 0.089006 0.028596 0.069132
C2    C     C_R   0.028368 0.028474 0.088968 0.068912
C3    C     C_R   0.088830 0.028319 0.028585 0.069214
N1    N     N_R   0.008552 0.068578 0.068544 -0.116769
N2    N     N_R   0.068308 0.008395 0.068535 -0.116778
N3    N     N_R   0.068513 0.068428 0.008674 -0.116695
C4    C     C_R   0.956122 0.142285 0.017978 -0.163989
C5    C     C_R   0.017742 0.955979 0.142143 -0.164435
C6    C     C_R   0.142004 0.017779 0.956117 -0.163685
C7    C     C_R   0.955537 0.017847 0.141647 -0.163097
C8    C     C_R   0.017993 0.141918 0.955884 -0.162809
C9    C     C_R   0.141401 0.955368 0.017732 -0.163146
C10   C     C_R   0.926239 0.169930 0.988061 -0.175794
C11   C     C_R   0.987861 0.926117 0.169772 -0.176709
C12   C     C_R   0.169617 0.987910 0.926187 -0.174365
C13   C     C_R   0.925646 0.987983 0.169285 -0.171533
C14   C     C_R   0.988110 0.169571 0.925960 -0.171192
C15   C     C_R   0.169010 0.925494 0.987804 -0.171257
C16   C     C_R   0.941308 0.182698 0.941135 0.143267
C17   C     C_R   0.940905 0.941200 0.182491 0.143288
C18   C     C_R   0.182275 0.940869 0.941114 0.143020
C19   C     C_R   0.001629 0.126528 0.001536 0.144195
C20   C     C_R   0.001244 0.001486 0.126355 0.144409
C21   C     C_R   0.126182 0.001177 0.001534 0.144077
H1    H     H_    0.890690 0.179568 0.001348 0.107784
H2    H     H_    0.001212 0.890581 0.179465 0.107885
H3    H     H_    0.179375 0.001344 0.890733 0.108488
H4    H     H_    0.889969 0.001174 0.178609 0.109017
H5    H     H_    0.001297 0.178939 0.890312 0.109118
H6    H     H_    0.178268 0.889743 0.000883 0.109084
H7    H     H_    0.942466 0.131314 0.053075 0.118637
H8    H     H_    0.052879 0.942322 0.131245 0.118688
H9    H     H_    0.131156 0.052998 0.942585 0.118778
H10   H     H_    0.941761 0.052829 0.130344 0.118728
H11   H     H_    0.052982 0.130651 0.942160 0.118863
H12   H     H_    0.130067 0.941508 0.052635 0.118771
C22   C     C_R   0.915949 0.744084 0.221104 -0.128946
C23   C     C_R   0.221616 0.916246 0.743399 -0.123751
C24   C     C_R   0.744119 0.221105 0.915967 -0.128986
C25   C     C_R   0.917158 0.223657 0.742230 -0.122539
C26   C     C_R   0.224628 0.741618 0.917504 -0.122562
C27   C     C_R   0.741494 0.917620 0.224801 -0.123678
H13   H     H_    0.950827 0.761694 0.220205 0.091737
H14   H     H_    0.220581 0.951194 0.760893 0.088678
H15   H     H_    0.761751 0.220218 0.950851 0.091515
H16   H     H_    0.952174 0.223547 0.759621 0.087465
H17   H     H_    0.224992 0.758788 0.952621 0.087263
H18   H     H_    0.758639 0.952754 0.225236 0.087461
N4    N     N_R   0.877910 0.758550 0.247710 -0.044395
N5    N     N_R   0.247710 0.877910 0.758550 -0.045262
N6    N     N_R   0.758550 0.247710 0.877910 -0.044345
N7    N     N_R   0.877910 0.247710 0.758550 -0.044783
N8    N     N_R   0.247710 0.758550 0.877910 -0.044239
N9    N     N_R   0.758550 0.877910 0.247710 -0.044632
C28   C     C_R   0.685975 0.861196 0.224713 -0.111685
C29   C     C_R   0.224547 0.686060 0.861078 -0.116434
C30   C     C_R   0.860837 0.223634 0.686477 -0.112325
C31   C     C_R   0.687239 0.221977 0.860587 -0.105596
C32   C     C_R   0.221129 0.859773 0.687612 -0.106792
C33   C     C_R   0.860598 0.687215 0.221975 -0.104806
H19   H     H_    0.650888 0.844033 0.226233 0.116744
H20   H     H_    0.225995 0.650953 0.843914 0.113365
H21   H     H_    0.843707 0.224583 0.651344 0.114571
H22   H     H_    0.652155 0.221304 0.843356 0.105883
H23   H     H_    0.220363 0.842454 0.652581 0.113028
H24   H     H_    0.843408 0.652121 0.221295 0.106341
N10   N     N_R   0.725540 0.845080 0.247770 -0.038160
N11   N     N_R   0.247770 0.725540 0.845080 -0.039487
N12   N     N_R   0.845080 0.247770 0.725540 -0.038144
N13   N     N_R   0.725540 0.247770 0.845080 -0.039577
N14   N     N_R   0.247770 0.845080 0.725540 -0.037750
N15   N     N_R   0.845080 0.725540 0.247770 -0.039455
C34   C     C_R   0.743210 0.687315 0.221800 -0.082435
C35   C     C_R   0.221921 0.743038 0.687275 -0.078066
C36   C     C_R   0.687284 0.221886 0.743106 -0.082595
C37   C     C_R   0.744021 0.221116 0.687628 -0.074794
C38   C     C_R   0.221134 0.687606 0.744091 -0.083615
C39   C     C_R   0.687700 0.744125 0.220954 -0.074305
H25   H     H_    0.760577 0.652245 0.221037 0.116839
H26   H     H_    0.221216 0.760239 0.652152 0.118396
H27   H     H_    0.652235 0.221134 0.760445 0.116216
H28   H     H_    0.761616 0.220237 0.652712 0.123285
H29   H     H_    0.220256 0.652702 0.761767 0.120652
H30   H     H_    0.652802 0.761815 0.219923 0.123283
N16   N     N_R   0.758420 0.725600 0.247730 -0.042931
N17   N     N_R   0.247730 0.758420 0.725600 -0.040624
N18   N     N_R   0.725600 0.247730 0.758420 -0.043017
N19   N     N_R   0.758420 0.247730 0.725600 -0.041190
N20   N     N_R   0.247730 0.725600 0.758420 -0.042987
N21   N     N_R   0.725600 0.758420 0.247730 -0.041091
C40   C     C_R   0.860985 0.917282 0.223837 -0.118305
C41   C     C_R   0.223793 0.861004 0.917220 -0.118470
C42   C     C_R   0.917327 0.223954 0.861142 -0.118175
C43   C     C_R   0.861399 0.224178 0.917352 -0.123968
C44   C     C_R   0.223968 0.917289 0.861267 -0.120715
C45   C     C_R   0.917307 0.861362 0.224145 -0.124295
H31   H     H_    0.843084 0.952064 0.224312 0.084890
H32   H     H_    0.224325 0.843142 0.951996 0.085061
H33   H     H_    0.952149 0.224588 0.843407 0.084617
H34   H     H_    0.844042 0.225234 0.952337 0.082657
H35   H     H_    0.224809 0.952258 0.843799 0.082887
H36   H     H_    0.952321 0.844001 0.225199 0.082656
N22   N     N_R   0.845030 0.878030 0.247760 -0.042530
N23   N     N_R   0.247760 0.845030 0.878030 -0.042588
N24   N     N_R   0.878030 0.247760 0.845030 -0.042555
N25   N     N_R   0.845030 0.247760 0.878030 -0.041959
N26   N     N_R   0.247760 0.878030 0.845030 -0.042596
N27   N     N_R   0.878030 0.845030 0.247760 -0.041879
C46   C     C_R   0.905468 0.698772 0.203027 0.018086
C47   C     C_R   0.202741 0.904943 0.698506 0.015154
C48   C     C_R   0.698811 0.203027 0.905491 0.018581
C49   C     C_R   0.906756 0.206617 0.696302 0.016158
C50   C     C_R   0.208289 0.695355 0.907287 0.018029
C51   C     C_R   0.695160 0.907495 0.208600 0.014575
C52   C     C_R   0.698383 0.698875 0.202795 -0.015821
C53   C     C_R   0.203013 0.698192 0.698829 -0.014376
C54   C     C_R   0.698778 0.202977 0.698229 -0.014994
C55   C     C_R   0.907286 0.907522 0.207158 0.034616
C56   C     C_R   0.206997 0.907283 0.907416 0.034570
C57   C     C_R   0.907587 0.207279 0.907436 0.034871
C58   C     C_R   0.917083 0.861234 0.379956 -0.142090
C59   C     C_R   0.380761 0.916731 0.860768 -0.141223
C60   C     C_R   0.860771 0.380786 0.916710 -0.140408
C61   C     C_R   0.916216 0.381914 0.859861 -0.139733
C62   C     C_R   0.381900 0.859870 0.916242 -0.139039
C63   C     C_R   0.860137 0.916610 0.381146 -0.138312
H37   H     H_    0.952386 0.844287 0.379790 0.096253
H38   H     H_    0.380997 0.951935 0.843639 0.095141
H39   H     H_    0.843676 0.381047 0.951904 0.095363
H40   H     H_    0.951149 0.382805 0.842267 0.101846
H41   H     H_    0.382780 0.842277 0.951190 0.101784
H42   H     H_    0.842545 0.951591 0.381658 0.102133
N28   N     N_R   0.877970 0.845080 0.355840 -0.044542
N29   N     N_R   0.355840 0.877970 0.845080 -0.044843
N30   N     N_R   0.845080 0.355840 0.877970 -0.044693
N31   N     N_R   0.877970 0.355840 0.845080 -0.045386
N32   N     N_R   0.355840 0.845080 0.877970 -0.045229
N33   N     N_R   0.845080 0.877970 0.355840 -0.045533
C64   C     C_R   0.685493 0.741868 0.378261 0.270396
C65   C     C_R   0.379314 0.685985 0.741748 0.296353
C66   C     C_R   0.742036 0.378925 0.685708 0.271255
C67   C     C_R   0.686182 0.379662 0.741577 0.297736
C68   C     C_R   0.378663 0.741712 0.685693 0.271450
C69   C     C_R   0.741406 0.685949 0.379022 0.296419
N34   N     N_R   0.725530 0.758500 0.355850 -0.105447
N35   N     N_R   0.355850 0.725530 0.758500 -0.107798
N36   N     N_R   0.758500 0.355850 0.725530 -0.105459
N37   N     N_R   0.725530 0.355850 0.758500 -0.107375
N38   N     N_R   0.355850 0.758500 0.725530 -0.105250
N39   N     N_R   0.758500 0.725530 0.355850 -0.107358
C70   C     C_R   0.860937 0.687243 0.381389 -0.118084
C71   C     C_R   0.381948 0.860471 0.687481 -0.120963
C72   C     C_R   0.687154 0.381195 0.861001 -0.118015
C73   C     C_R   0.860791 0.380959 0.686980 -0.120172
C74   C     C_R   0.380337 0.686728 0.861281 -0.113979
C75   C     C_R   0.687161 0.860651 0.381331 -0.119916
H43   H     H_    0.845054 0.651770 0.381623 0.176605
H44   H     H_    0.383118 0.843812 0.652332 0.165544
H45   H     H_    0.651642 0.381226 0.845196 0.177021
H46   H     H_    0.844188 0.381554 0.651785 0.166561
H47   H     H_    0.379889 0.651219 0.845489 0.177642
H48   H     H_    0.651996 0.844012 0.382134 0.166126
N40   N     N_R   0.845000 0.725590 0.355820 -0.045547
N41   N     N_R   0.355820 0.845000 0.725590 -0.042411
N42   N     N_R   0.725590 0.355820 0.845000 -0.045918
N43   N     N_R   0.845000 0.355820 0.725590 -0.043213
N44   N     N_R   0.355820 0.725590 0.845000 -0.046364
N45   N     N_R   0.725590 0.845000 0.355820 -0.042723
C76   C     C_R   0.742429 0.917231 0.379986 -0.127580
C77   C     C_R   0.379470 0.742222 0.917498 -0.125248
C78   C     C_R   0.917355 0.379639 0.742263 -0.126858
C79   C     C_R   0.742926 0.380475 0.917068 -0.119821
C80   C     C_R   0.380756 0.916900 0.742994 -0.123290
C81   C     C_R   0.917011 0.743012 0.380652 -0.120584
H49   H     H_    0.759370 0.952459 0.379397 0.094911
H50   H     H_    0.378769 0.759271 0.952668 0.094541
H51   H     H_    0.952585 0.378921 0.759219 0.094535
H52   H     H_    0.760374 0.380389 0.952055 0.093762
H53   H     H_    0.380707 0.951949 0.760320 0.093581
H54   H     H_    0.951961 0.760509 0.380702 0.094256
N46   N     N_R   0.758510 0.877990 0.355880 -0.047298
N47   N     N_R   0.355880 0.758510 0.877990 -0.047313
N48   N     N_R   0.877990 0.355880 0.758510 -0.047174
N49   N     N_R   0.758510 0.355880 0.877990 -0.047675
N50   N     N_R   0.355880 0.877990 0.758510 -0.047602
N51   N     N_R   0.877990 0.758510 0.355880 -0.047628
Ni1   Ni    Ni4+2 0.877260 0.801820 0.301780 0.203554
Ni2   Ni    Ni4+2 0.301780 0.877260 0.801820 0.203051
Ni3   Ni    Ni4+2 0.801820 0.301780 0.877260 0.203488
Ni4   Ni    Ni4+2 0.877260 0.301780 0.801820 0.205832
Ni5   Ni    Ni4+2 0.301780 0.801820 0.877260 0.204934
Ni6   Ni    Ni4+2 0.801820 0.877260 0.301780 0.205251
Ni7   Ni    Ni4+2 0.726220 0.801790 0.301810 0.287987
Ni8   Ni    Ni4+2 0.301810 0.726220 0.801790 0.281637
Ni9   Ni    Ni4+2 0.801790 0.301810 0.726220 0.287643
Ni10  Ni    Ni4+2 0.726220 0.301810 0.801790 0.280307
Ni11  Ni    Ni4+2 0.301810 0.801790 0.726220 0.287823
Ni12  Ni    Ni4+2 0.801790 0.726220 0.301810 0.281033
C82   C     C_R   0.905996 0.906523 0.397888 0.114669
C83   C     C_R   0.399254 0.905478 0.905803 0.116065
C84   C     C_R   0.905772 0.399277 0.905448 0.116063
C85   C     C_R   0.695569 0.696288 0.396551 -0.270740
C86   C     C_R   0.397111 0.696168 0.696060 -0.269685
C87   C     C_R   0.696678 0.397758 0.695947 -0.269650
C88   C     C_R   0.906501 0.697677 0.398706 0.042103
C89   C     C_R   0.399155 0.906128 0.697843 0.044373
C90   C     C_R   0.697538 0.398443 0.906591 0.042608
C91   C     C_R   0.906773 0.397360 0.696771 0.045189
C92   C     C_R   0.396846 0.696555 0.907185 0.042641
C93   C     C_R   0.697086 0.906543 0.397963 0.045477
C94   C     C_R   0.569224 0.030101 0.096815 0.052896
C95   C     C_R   0.096544 0.569473 0.029755 0.053330
C96   C     C_R   0.028632 0.093076 0.570885 0.056844
C97   C     C_R   0.578161 0.085962 0.028629 0.068859
C98   C     C_R   0.086070 0.025719 0.574691 0.068547
C99   C     C_R   0.028569 0.578147 0.085847 0.068920
C100  C     C_R   0.511797 0.028254 0.029905 0.218308
C101  C     C_R   0.029904 0.511808 0.028098 0.218654
C102  C     C_R   0.029809 0.032074 0.507330 0.217379
C103  C     C_R   0.593549 0.068531 0.073919 -0.221885
C104  C     C_R   0.073717 0.593685 0.068293 -0.221762
C105  C     C_R   0.066072 0.068024 0.594669 -0.229212
H55   H     H_    0.626909 0.082164 0.089077 0.114862
H56   H     H_    0.088774 0.627093 0.081917 0.114727
H57   H     H_    0.076141 0.078360 0.631077 0.119739
C106  C     C_R   0.537396 0.065234 0.006804 -0.199804
C107  C     C_R   0.006850 0.537294 0.065193 -0.200452
C108  C     C_R   0.068282 0.008631 0.530344 -0.207839
C109  C     C_R   0.525844 0.013256 0.076283 -0.151675
C110  C     C_R   0.013074 0.076378 0.525459 -0.144503
C111  C     C_R   0.076142 0.526033 0.012928 -0.152195
H58   H     H_    0.528517 0.074264 0.969721 0.114257
H59   H     H_    0.969840 0.528293 0.074337 0.114214
H60   H     H_    0.080789 0.974312 0.516207 0.119118
H61   H     H_    0.505978 0.984107 0.093407 0.128579
H62   H     H_    0.983333 0.094188 0.507055 0.124563
H63   H     H_    0.093208 0.506260 0.983677 0.127976
C112  C     C_R   0.630470 0.020458 0.164352 -0.171843
C113  C     C_R   0.163783 0.630919 0.020096 -0.170225
C114  C     C_R   0.019218 0.158350 0.634080 -0.169468
C115  C     C_R   0.659700 0.114491 0.001226 -0.178515
C116  C     C_R   0.153487 0.015759 0.634950 -0.173881
C117  C     C_R   0.000928 0.659677 0.114278 -0.178777
C118  C     C_R   0.662825 0.990619 0.189647 -0.167539
C119  C     C_R   0.189052 0.663244 0.990302 -0.170159
C120  C     C_R   0.989611 0.184490 0.665848 -0.167997
C121  C     C_R   0.688686 0.142662 0.971134 -0.169724
C122  C     C_R   0.181009 0.986643 0.665899 -0.170569
C123  C     C_R   0.970855 0.688660 0.142489 -0.169668
C124  C     C_R   0.659660 0.940055 0.185530 0.150179
C125  C     C_R   0.185034 0.659985 0.939762 0.149849
C126  C     C_R   0.939012 0.181829 0.661799 0.149728
C127  C     C_R   0.667634 0.175435 0.938562 0.141081
C128  C     C_R   0.174778 0.936230 0.665858 0.145825
C129  C     C_R   0.938506 0.667593 0.175391 0.141198
C130  C     C_R   0.622327 0.919873 0.157925 -0.168423
C131  C     C_R   0.157421 0.622675 0.919553 -0.169471
C132  C     C_R   0.918603 0.154108 0.624653 -0.168591
C133  C     C_R   0.617144 0.180881 0.937567 -0.171171
C134  C     C_R   0.140941 0.915290 0.634566 -0.161183
C135  C     C_R   0.937696 0.617096 0.180915 -0.171112
C136  C     C_R   0.590636 0.949391 0.132311 -0.193470
C137  C     C_R   0.131800 0.591018 0.949037 -0.194948
C138  C     C_R   0.947929 0.127680 0.593473 -0.193066
C139  C     C_R   0.588077 0.153388 0.968463 -0.178599
C140  C     C_R   0.112710 0.944315 0.604564 -0.181823
C141  C     C_R   0.968589 0.588031 0.153383 -0.178542
C142  C     C_R   0.595155 0.000187 0.133645 0.137376
C143  C     C_R   0.133175 0.595540 0.999815 0.136781
C144  C     C_R   0.998662 0.128501 0.598304 0.133542
C145  C     C_R   0.609014 0.119350 0.000135 0.140285
C146  C     C_R   0.118677 0.994926 0.604258 0.148063
C147  C     C_R   0.000056 0.608985 0.119238 0.140311
H64   H     H_    0.690605 0.007100 0.211773 0.108344
H65   H     H_    0.211135 0.691040 0.006805 0.109103
H66   H     H_    0.006308 0.206352 0.693699 0.108488
H67   H     H_    0.727577 0.137545 0.972094 0.116316
H68   H     H_    0.207383 0.003462 0.689463 0.109085
H69   H     H_    0.971650 0.727556 0.137311 0.116456
H70   H     H_    0.619073 0.880994 0.153932 0.115073
H71   H     H_    0.153477 0.619386 0.880685 0.115333
H72   H     H_    0.879694 0.151002 0.620952 0.115551
H73   H     H_    0.600159 0.206469 0.913139 0.122690
H74   H     H_    0.135187 0.876481 0.634472 0.115256
H75   H     H_    0.913424 0.600115 0.206600 0.122931
H76   H     H_    0.634338 0.059322 0.167515 0.113814
H77   H     H_    0.166945 0.634828 0.058942 0.114022
H78   H     H_    0.058117 0.160454 0.638400 0.113400
H79   H     H_    0.677093 0.087620 0.023907 0.118279
H80   H     H_    0.159142 0.054560 0.635295 0.114917
H81   H     H_    0.023423 0.677075 0.087307 0.118463
H82   H     H_    0.564985 0.931692 0.108747 0.164233
H83   H     H_    0.108252 0.565355 0.931338 0.164175
H84   H     H_    0.930251 0.104356 0.567558 0.164863
H85   H     H_    0.549176 0.158239 0.967107 0.122717
H86   H     H_    0.085116 0.927002 0.582860 0.106394
H87   H     H_    0.967397 0.549123 0.158289 0.122700
C148  C     C_R   0.492886 0.948108 0.993891 0.496423
C149  C     C_R   0.993529 0.493119 0.948094 0.495993
C150  C     C_R   0.950496 0.993089 0.491669 0.495898
C151  C     C_R   0.440125 0.016988 0.974882 0.551732
C152  C     C_R   0.016387 0.980142 0.433608 0.550701
C153  C     C_R   0.975162 0.439984 0.016788 0.551860
C154  C     C_R   0.465020 0.918307 0.964416 -0.327054
C155  C     C_R   0.964051 0.465251 0.918315 -0.326684
C156  C     C_R   0.920413 0.963237 0.464609 -0.326332
C157  C     C_R   0.413044 0.986098 0.944186 -0.377101
C158  C     C_R   0.985358 0.948629 0.407531 -0.380252
C159  C     C_R   0.944442 0.412904 0.985928 -0.377086
C160  C     C_R   0.425857 0.937245 0.938831 0.042781
C161  C     C_R   0.938780 0.425901 0.937184 0.042505
C162  C     C_R   0.937916 0.940140 0.423409 0.041584
C163  C     C_R   0.479641 0.997101 0.000636 -0.208295
C164  C     C_R   0.000612 0.479681 0.996968 -0.208780
C165  C     C_R   0.998006 0.003190 0.475427 -0.208539
H88   H     H_    0.475364 0.880683 0.959922 0.153022
H89   H     H_    0.959305 0.475730 0.880775 0.153093
H90   H     H_    0.883903 0.956260 0.477233 0.154094
H91   H     H_    0.381536 0.998870 0.924909 0.140109
H92   H     H_    0.996857 0.930938 0.374656 0.141849
H93   H     H_    0.925394 0.381258 0.998629 0.140318
C166  C     C_R   0.029118 0.572515 0.511384 0.133198
C167  C     C_R   0.511503 0.028859 0.572650 0.132312
C168  C     C_R   0.572531 0.511122 0.029225 0.133237
C169  C     C_R   0.030325 0.507126 0.570654 0.131895
C170  C     C_R   0.507044 0.570362 0.030580 0.132021
C171  C     C_R   0.570405 0.030302 0.506997 0.127497
C172  C     C_R   0.086219 0.574932 0.578595 0.022390
C173  C     C_R   0.578465 0.086240 0.574801 0.025000
C174  C     C_R   0.575141 0.578460 0.086150 0.021982
C175  C     C_R   0.066041 0.595974 0.536966 -0.155619
C176  C     C_R   0.537041 0.065878 0.596005 -0.156370
C177  C     C_R   0.596138 0.536810 0.065981 -0.155142
C178  C     C_R   0.068416 0.530180 0.594905 -0.171110
C179  C     C_R   0.530285 0.594710 0.068499 -0.170596
C180  C     C_R   0.594598 0.068516 0.529936 -0.173207
H94   H     H_    0.075566 0.632806 0.527469 0.151439
H95   H     H_    0.527684 0.075342 0.632875 0.151183
H96   H     H_    0.633022 0.527366 0.075394 0.151752
H97   H     H_    0.081171 0.515650 0.628960 0.156508
H98   H     H_    0.515794 0.628787 0.081245 0.157093
H99   H     H_    0.628513 0.081373 0.515214 0.155415
C181  C     C_R   0.013827 0.526593 0.526729 -0.273708
C182  C     C_R   0.526672 0.013622 0.526670 -0.270619
C183  C     C_R   0.526510 0.526411 0.014089 -0.273412
H100  H     H_    0.984653 0.508731 0.507587 0.132054
H101  H     H_    0.507631 0.984302 0.508935 0.132274
H102  H     H_    0.508515 0.507170 0.985062 0.132034
C184  C     C_R   0.019240 0.632234 0.442364 0.562470
C185  C     C_R   0.442651 0.018864 0.632434 0.563341
C186  C     C_R   0.632346 0.442128 0.019375 0.562812
C187  C     C_R   0.019319 0.436103 0.628317 0.531733
C188  C     C_R   0.435987 0.628157 0.019794 0.532241
C189  C     C_R   0.627898 0.018985 0.435912 0.557667
C190  C     C_R   0.989088 0.664696 0.417181 -0.330097
C191  C     C_R   0.417569 0.988687 0.664878 -0.330475
C192  C     C_R   0.664751 0.416944 0.989209 -0.329313
C193  C     C_R   0.989133 0.412100 0.661413 -0.296333
C194  C     C_R   0.411879 0.661291 0.989633 -0.295218
C195  C     C_R   0.661498 0.988829 0.412527 -0.308324
C196  C     C_R   0.938751 0.663722 0.424070 0.089540
C197  C     C_R   0.424615 0.938337 0.663965 0.093681
C198  C     C_R   0.663533 0.423690 0.938856 0.088404
C199  C     C_R   0.939143 0.421292 0.661978 0.079436
C200  C     C_R   0.420704 0.661663 0.939600 0.075475
C201  C     C_R   0.662383 0.938913 0.422042 0.081142
C202  C     C_R   0.918602 0.629977 0.456003 -0.148215
C203  C     C_R   0.456669 0.918207 0.630313 -0.151387
C204  C     C_R   0.629555 0.455455 0.918713 -0.146948
C205  C     C_R   0.919340 0.453946 0.628700 -0.152323
C206  C     C_R   0.453063 0.628144 0.919738 -0.147754
C207  C     C_R   0.629299 0.919175 0.454844 -0.153105
C208  C     C_R   0.948252 0.599236 0.482575 -0.227891
C209  C     C_R   0.483140 0.947897 0.599568 -0.227238
C210  C     C_R   0.598856 0.482030 0.948369 -0.226895
C211  C     C_R   0.949140 0.479375 0.597243 -0.213510
C212  C     C_R   0.478612 0.596674 0.949489 -0.213677
C213  C     C_R   0.597653 0.949024 0.480031 -0.212736
C214  C     C_R   0.998842 0.600545 0.476977 -0.039935
C215  C     C_R   0.477326 0.998495 0.600793 -0.039428
C216  C     C_R   0.600449 0.476618 0.998970 -0.040780
C217  C     C_R   0.999568 0.471942 0.597304 -0.052959
C218  C     C_R   0.471602 0.596945 0.999954 -0.054073
C219  C     C_R   0.597186 0.999387 0.472036 -0.057376
H103  H     H_    0.005116 0.690288 0.392149 0.135700
H104  H     H_    0.392459 0.004717 0.690397 0.134007
H105  H     H_    0.690514 0.392045 0.005249 0.135463
H106  H     H_    0.004793 0.386036 0.686242 0.141613
H107  H     H_    0.386047 0.686311 0.005345 0.141755
H108  H     H_    0.686201 0.004397 0.386340 0.140081
H109  H     H_    0.879859 0.628798 0.462075 0.144171
H110  H     H_    0.462871 0.879464 0.629176 0.133615
H111  H     H_    0.628174 0.461428 0.879961 0.146141
H112  H     H_    0.880849 0.461630 0.628593 0.134865
H113  H     H_    0.460472 0.627883 0.881209 0.145810
H114  H     H_    0.629471 0.880729 0.462785 0.133334
H115  H     H_    0.931461 0.575946 0.509282 0.144131
H116  H     H_    0.509902 0.931145 0.576300 0.142327
H117  H     H_    0.575393 0.508627 0.931562 0.145393
H118  H     H_    0.932650 0.507003 0.574784 0.141825
H119  H     H_    0.506041 0.574072 0.932901 0.143667
H120  H     H_    0.575398 0.932654 0.507841 0.141017
C220  C     C_R   0.153798 0.634799 0.588346 -0.171655
C221  C     C_R   0.588214 0.153675 0.634915 -0.171747
C222  C     C_R   0.635177 0.588285 0.153598 -0.171430
C223  C     C_R   0.113935 0.603379 0.659991 -0.161556
C224  C     C_R   0.603595 0.659928 0.113683 -0.159955
C225  C     C_R   0.659901 0.114235 0.602981 -0.158803
C226  C     C_R   0.181290 0.665700 0.617309 -0.157058
C227  C     C_R   0.617189 0.181102 0.665882 -0.156343
C228  C     C_R   0.666061 0.617295 0.181056 -0.156677
C229  C     C_R   0.142116 0.633401 0.688867 -0.160208
C230  C     C_R   0.633610 0.688852 0.141826 -0.158789
C231  C     C_R   0.688785 0.142347 0.633090 -0.158677
C232  C     C_R   0.175380 0.665278 0.667739 0.143554
C233  C     C_R   0.667653 0.175365 0.665269 0.146380
C234  C     C_R   0.665546 0.667748 0.175111 0.146647
C235  C     C_R   0.119309 0.603767 0.609343 0.134104
C236  C     C_R   0.609221 0.119405 0.603598 0.135137
C237  C     C_R   0.604057 0.609260 0.119118 0.134654
H121  H     H_    0.207285 0.689629 0.600330 0.134474
H122  H     H_    0.600183 0.206909 0.690020 0.130009
H123  H     H_    0.690033 0.600331 0.207071 0.130288
H124  H     H_    0.136662 0.632932 0.727714 0.113428
H125  H     H_    0.633067 0.727717 0.136350 0.112869
H126  H     H_    0.727658 0.137021 0.632436 0.112607
H127  H     H_    0.159067 0.635592 0.549496 0.133177
H128  H     H_    0.549339 0.158811 0.635896 0.131702
H129  H     H_    0.636028 0.549419 0.158909 0.131973
H130  H     H_    0.086709 0.581275 0.677452 0.117221
H131  H     H_    0.581409 0.677366 0.086460 0.117302
H132  H     H_    0.677394 0.087198 0.580638 0.116857
C238  C     C_R   0.570711 0.573347 0.508372 0.088203
C239  C     C_R   0.510216 0.572616 0.572340 0.087763
C240  C     C_R   0.574243 0.511941 0.571575 0.091522
C241  C     C_R   0.592518 0.532281 0.528639 -0.212062
C242  C     C_R   0.528271 0.591771 0.529015 -0.211777
C243  C     C_R   0.532263 0.531553 0.592711 -0.209256
H133  H     H_    0.626894 0.519695 0.514372 0.136957
H134  H     H_    0.512828 0.625019 0.514759 0.140094
H135  H     H_    0.520597 0.518872 0.628001 0.138072
C244  C     C_R   0.619955 0.587499 0.433041 -0.195398
C245  C     C_R   0.494015 0.650870 0.612674 -0.179550
C246  C     C_R   0.587984 0.436529 0.620923 -0.195420
C247  C     C_R   0.653068 0.494465 0.610860 -0.177164
C248  C     C_R   0.435223 0.586447 0.622322 -0.193294
C249  C     C_R   0.609679 0.652088 0.491596 -0.180380
C250  C     C_R   0.650569 0.617404 0.405774 -0.050568
C251  C     C_R   0.466744 0.680597 0.642718 -0.079274
C252  C     C_R   0.617721 0.408604 0.651207 -0.049654
C253  C     C_R   0.682225 0.467199 0.641616 -0.078289
C254  C     C_R   0.407326 0.616760 0.652031 -0.050317
C255  C     C_R   0.640722 0.681349 0.465031 -0.078371
C256  C     C_R   0.661632 0.664256 0.422201 0.223651
C257  C     C_R   0.423393 0.663848 0.662774 0.223904
C258  C     C_R   0.664816 0.424297 0.662257 0.222731
C259  C     C_R   0.599289 0.604821 0.476125 0.118785
C260  C     C_R   0.478659 0.603547 0.602314 0.119879
C261  C     C_R   0.605597 0.479645 0.600502 0.118082
H136  H     H_    0.665729 0.603925 0.372237 0.151008
H137  H     H_    0.479856 0.716633 0.650956 0.119932
H138  H     H_    0.603929 0.375051 0.666061 0.151094
H139  H     H_    0.718335 0.480001 0.649983 0.121556
H140  H     H_    0.373468 0.603473 0.666616 0.152443
H141  H     H_    0.649138 0.717271 0.478350 0.119769
H142  H     H_    0.612596 0.550995 0.420808 0.134328
H143  H     H_    0.527895 0.664489 0.598337 0.118651
H144  H     H_    0.551378 0.424670 0.613499 0.132440
H145  H     H_    0.667103 0.528124 0.596379 0.127682
H146  H     H_    0.422962 0.549993 0.614785 0.132827
H147  H     H_    0.595097 0.665828 0.525327 0.118331
O1    O     O_3   0.534049 0.929472 0.015553 -0.672074
C262  C     C_3   0.572558 0.931215 0.981858 0.185190
H148  H     H_    0.574269 0.966896 0.962802 0.090717
H149  H     H_    0.568103 0.901864 0.954620 0.109207
C263  C     C_3   0.620387 0.923857 0.008661 -0.259809
H150  H     H_    0.625592 0.953932 0.034817 0.208424
H151  H     H_    0.619320 0.889136 0.029065 0.204953
C264  C     C_3   0.663188 0.923079 0.973723 -1.016782
H152  H     H_    0.659322 0.892854 0.947507 0.269008
H153  H     H_    0.697290 0.917828 0.994370 0.274245
H154  H     H_    0.665451 0.957919 0.953673 0.269176
O2    O     O_3   0.014871 0.534452 0.929543 -0.671990
C265  C     C_3   0.981081 0.572901 0.931956 0.185269
H155  H     H_    0.962730 0.574535 0.967981 0.091360
H156  H     H_    0.953270 0.568416 0.903134 0.108675
C266  C     C_3   0.007574 0.620808 0.924147 -0.259561
H157  H     H_    0.034413 0.625993 0.953628 0.208690
H158  H     H_    0.027172 0.619854 0.888985 0.204720
C267  C     C_3   0.972493 0.663564 0.924289 -1.016691
H159  H     H_    0.945507 0.659669 0.894740 0.268922
H160  H     H_    0.992903 0.697716 0.918564 0.274231
H161  H     H_    0.953341 0.665774 0.959613 0.269270
O3    O     O_3   0.933711 0.011520 0.535111 -0.670970
C268  C     C_3   0.940751 0.976245 0.571599 0.185645
H162  H     H_    0.978352 0.961284 0.570847 0.090423
H163  H     H_    0.914450 0.946092 0.566790 0.105640
C269  C     C_3   0.932525 0.999500 0.621087 -0.255934
H164  H     H_    0.959014 0.029251 0.626347 0.210787
H165  H     H_    0.895380 0.015026 0.622732 0.203437
C270  C     C_3   0.938820 0.962708 0.661882 -1.014817
H166  H     H_    0.912421 0.932654 0.657851 0.267669
H167  H     H_    0.932473 0.980715 0.697262 0.274774
H168  H     H_    0.976204 0.947710 0.661554 0.269847
O4    O     O_3   0.428500 0.065522 0.983457 -0.659968
C271  C     C_3   0.408226 0.090242 0.943246 0.220566
H169  H     H_    0.399427 0.127500 0.955646 0.134225
H170  H     H_    0.372927 0.074824 0.932050 0.086193
C272  C     C_3   0.443990 0.094878 0.900759 -0.372991
H171  H     H_    0.476734 0.114691 0.912991 0.203239
H172  H     H_    0.455332 0.058556 0.887726 0.198432
C273  C     C_3   0.421273 0.122393 0.858535 -0.969929
H173  H     H_    0.388890 0.102813 0.845009 0.259846
H174  H     H_    0.447923 0.125433 0.828565 0.273955
H175  H     H_    0.410540 0.159438 0.870026 0.266007
O5    O     O_3   0.063531 0.991778 0.419333 -0.660114
C274  C     C_3   0.088394 0.954454 0.394329 0.224608
H176  H     H_    0.124211 0.969373 0.383752 0.135704
H177  H     H_    0.070767 0.945082 0.359522 0.085855
C275  C     C_3   0.097824 0.909820 0.426416 -0.374634
H178  H     H_    0.119347 0.920772 0.458544 0.209714
H179  H     H_    0.063182 0.894012 0.439273 0.196406
C276  C     C_3   0.125643 0.870888 0.398761 -0.967076
H180  H     H_    0.104415 0.858678 0.366889 0.259077
H181  H     H_    0.132144 0.839272 0.422808 0.273864
H182  H     H_    0.161158 0.885131 0.386389 0.267194
O6    O     O_3   0.984056 0.428192 0.065204 -0.659951
C277  C     C_3   0.944044 0.407736 0.090015 0.220726
H183  H     H_    0.956681 0.398817 0.127158 0.134364
H184  H     H_    0.932875 0.372466 0.074500 0.086399
C278  C     C_3   0.901460 0.443408 0.095008 -0.373958
H185  H     H_    0.913695 0.476113 0.114894 0.203393
H186  H     H_    0.888186 0.454862 0.058814 0.198551
C279  C     C_3   0.859459 0.420498 0.122614 -0.967560
H187  H     H_    0.845930 0.388150 0.102968 0.260083
H188  H     H_    0.829414 0.447084 0.125911 0.273904
H189  H     H_    0.871193 0.409647 0.159539 0.266007
O7    O     O_3   0.068893 0.634116 0.435879 -0.681664
C280  C     C_3   0.081647 0.611048 0.391942 0.174202
H190  H     H_    0.116708 0.626604 0.379850 0.141045
H191  H     H_    0.055306 0.618009 0.362082 0.086847
C281  C     C_3   0.088373 0.556437 0.399742 -0.308960
H192  H     H_    0.114438 0.550201 0.429783 0.217992
H193  H     H_    0.053188 0.539781 0.409833 0.194500
C282  C     C_3   0.107247 0.531808 0.354040 -0.983711
H194  H     H_    0.081351 0.537066 0.323709 0.267454
H195  H     H_    0.111472 0.492364 0.360783 0.272480
H196  H     H_    0.143040 0.546941 0.343702 0.266719
O8    O     O_3   0.436002 0.068526 0.634266 -0.681811
C283  C     C_3   0.391846 0.081148 0.611481 0.172245
H197  H     H_    0.379815 0.116292 0.626964 0.139386
H198  H     H_    0.362090 0.054822 0.618776 0.086223
C284  C     C_3   0.399184 0.087608 0.556810 -0.306791
H199  H     H_    0.429085 0.113714 0.550239 0.217004
H200  H     H_    0.409269 0.052347 0.540252 0.194784
C285  C     C_3   0.353208 0.106262 0.532446 -0.986008
H201  H     H_    0.323008 0.080320 0.538046 0.268070
H202  H     H_    0.359614 0.110297 0.492954 0.272874
H203  H     H_    0.342866 0.142121 0.547486 0.265651
O9    O     O_3   0.634499 0.435789 0.069037 -0.681827
C286  C     C_3   0.611626 0.391817 0.082032 0.173480
H204  H     H_    0.627394 0.379850 0.117069 0.140625
H205  H     H_    0.618527 0.361886 0.055772 0.086889
C287  C     C_3   0.557047 0.399525 0.088946 -0.308592
H206  H     H_    0.550869 0.429631 0.114933 0.217752
H207  H     H_    0.540185 0.409497 0.053798 0.194496
C288  C     C_3   0.532648 0.353797 0.108063 -0.984512
H208  H     H_    0.537848 0.323399 0.082249 0.267544
H209  H     H_    0.493222 0.360472 0.112420 0.272518
H210  H     H_    0.547993 0.343576 0.143823 0.266502
O10   O     O_3   0.068405 0.426420 0.629066 -0.677578
C289  C     C_3   0.079463 0.395097 0.590243 0.169467
H211  H     H_    0.069721 0.411998 0.554867 0.103899
H212  H     H_    0.059675 0.360148 0.594355 0.103390
C290  C     C_3   0.133823 0.384794 0.590345 -0.239386
H213  H     H_    0.153916 0.419452 0.586507 0.206849
H214  H     H_    0.144188 0.367819 0.625370 0.204177
C291  C     C_3   0.148074 0.350998 0.549023 -1.019127
H215  H     H_    0.128986 0.315785 0.552586 0.268961
H216  H     H_    0.187708 0.344242 0.550148 0.274690
H217  H     H_    0.138854 0.367674 0.513570 0.270823
O11   O     O_3   0.426635 0.629071 0.068920 -0.677090
C292  C     C_3   0.395365 0.590309 0.080290 0.167965
H218  H     H_    0.412201 0.554863 0.070663 0.104022
H219  H     H_    0.360325 0.594369 0.060619 0.103493
C293  C     C_3   0.385341 0.590653 0.134680 -0.237635
H220  H     H_    0.420088 0.586851 0.154658 0.207563
H221  H     H_    0.368450 0.625760 0.144931 0.204995
C294  C     C_3   0.351598 0.549417 0.149259 -1.017369
H222  H     H_    0.316301 0.552952 0.130289 0.268786
H223  H     H_    0.345048 0.550716 0.188906 0.275549
H224  H     H_    0.368194 0.513888 0.140151 0.270439
O12   O     O_3   0.627872 0.067955 0.425252 -0.678979
C295  C     C_3   0.588005 0.079065 0.394978 0.192764
H225  H     H_    0.579324 0.118030 0.400125 0.140617
H226  H     H_    0.554511 0.058679 0.404750 0.084511
C296  C     C_3   0.601022 0.070795 0.341594 -0.325120
H227  H     H_    0.634446 0.091288 0.332569 0.213914
H228  H     H_    0.608025 0.031682 0.335206 0.198404
C297  C     C_3   0.560205 0.087203 0.308138 -0.975955
H229  H     H_    0.526575 0.066669 0.316132 0.268582
H230  H     H_    0.570673 0.080451 0.269898 0.271718
H231  H     H_    0.553157 0.126553 0.312776 0.265277
N52   N     N_R   0.637724 0.757385 0.364914 0.229229
O13   O     O_R   0.630671 0.778335 0.323274 -0.438625
O14   O     O_R   0.600615 0.747708 0.392237 -0.407363
N53   N     N_R   0.370353 0.638047 0.759102 0.215459
O15   O     O_R   0.327586 0.626435 0.775087 -0.443953
O16   O     O_R   0.404897 0.605946 0.759507 -0.423914
N54   N     N_R   0.757332 0.365952 0.637810 0.229051
O17   O     O_R   0.777570 0.324028 0.630272 -0.437792
O18   O     O_R   0.747983 0.393879 0.601025 -0.407665
N55   N     N_R   0.638144 0.371091 0.758784 0.215146
O19   O     O_R   0.606231 0.405811 0.758730 -0.424966
O20   O     O_R   0.626279 0.328532 0.775192 -0.449120
N56   N     N_R   0.365909 0.757117 0.637752 0.228204
O21   O     O_R   0.393390 0.746729 0.600941 -0.409014
O22   O     O_R   0.324473 0.778328 0.630195 -0.441616
N57   N     N_R   0.758748 0.637976 0.370103 0.215466
O23   O     O_R   0.758164 0.605627 0.404386 -0.426039
O24   O     O_R   0.775823 0.626608 0.327688 -0.449208

loop_
_geom_bond_atom_site_label_1
_geom_bond_atom_site_label_2
_geom_bond_distance
_ccdc_geom_bond_type
C170  C218  1.486074 S    
C52   C234  1.466554 S    
C118  H64   1.082380 S    
C288  H208  1.110928 S    
C290  H214  1.111697 S    
C130  C136  1.388087 A    
C152  C165  1.412995 A    
C15   C18   1.405609 A    
C284  H199  1.111715 S    
C268  H162  1.116910 S    
C36   C54   1.382062 A    
C188  C218  1.416823 A    
C17   C55   1.480297 S    
C3    C21   1.476886 S    
C126  C132  1.400095 A    
C197  C203  1.398106 A    
C294  H222  1.110923 S    
C228  C234  1.402313 A    
C262  C263  1.527570 S    
C25   H16   1.079931 S    
C94   C103  1.406080 A    
C38   N20   1.341852 A    
C167  C182  1.401849 A    
C117  C123  1.391146 A    
C185  O8    1.383875 S    
C78   N48   1.347089 A    
C41   C56   1.384765 A    
C45   H36   1.078750 S    
C281  H192  1.111722 S    
C68   N56   1.434039 S    
C211  C217  1.407224 A    
C294  H224  1.110924 S    
C33   N15   1.345540 A    
C152  C158  1.419511 A    
C282  H196  1.110831 S    
C14   H5    1.080813 S    
C289  H212  1.115348 S    
C98   C108  1.402518 A    
N8    N11   1.286382 A    
C58   C82   1.379208 A    
C249  H147  1.083450 S    
N32   Ni5   1.913692 S    
C278  H185  1.110706 S    
N40   Ni12  1.910803 S    
C74   N44   1.344550 A    
C277  H183  1.110913 S    
C286  H205  1.116203 S    
C68   N38   1.349699 A    
C186  O9    1.383768 S    
C110  H62   1.083011 S    
O11   C292  1.411280 S    
C42   C57   1.384731 A    
N35   Ni8   1.911744 S    
C184  C190  1.405788 A    
C22   C46   1.378774 A    
C169  C181  1.402164 A    
C287  C288  1.525580 S    
C89   C197  1.469631 S    
C100  C106  1.396245 A    
C70   N40   1.345196 A    
C24   C48   1.378932 A    
C45   N27   1.343629 A    
N55   O20   1.301135 A    
C115  C121  1.391474 A    
C231  C233  1.400263 A    
N57   O24   1.301121 A    
C221  C227  1.396366 A    
N24   Ni4   1.908857 S    
C148  C163  1.412966 A    
C263  H151  1.111680 S    
C171  C180  1.401993 A    
C134  H74   1.083417 S    
C285  H202  1.110377 S    
C154  H88   1.083975 S    
C135  H75   1.082600 S    
N42   Ni10  1.911088 S    
C117  H81   1.082184 S    
C252  H138  1.082346 S    
C113  C143  1.409714 A    
C1    N3    1.356301 A    
N29   Ni2   1.912794 S    
C74   C92   1.375096 A    
C157  H91   1.078731 S    
C158  H92   1.078874 S    
C26   C50   1.384792 A    
C166  C181  1.401947 A    
C274  H177  1.108925 S    
C190  H103  1.082852 S    
C31   N13   1.345611 A    
C77   H50   1.080083 S    
N54   O17   1.301211 A    
C31   H22   1.079888 S    
C44   C56   1.385397 A    
C271  H169  1.110912 S    
C184  O7    1.383781 S    
C220  C235  1.406573 A    
C74   H47   1.073524 S    
C97   C103  1.405347 A    
C226  C232  1.402270 A    
C154  C160  1.392825 A    
C227  C233  1.402324 A    
C272  C273  1.525480 S    
C269  H164  1.110643 S    
C96   C105  1.405551 A    
C247  C253  1.390381 A    
C12   H3    1.080774 S    
C13   C17   1.405480 A    
C238  C241  1.399012 A    
C273  H173  1.110956 S    
N52   O14   1.300247 A    
C168  C183  1.402183 A    
C40   C55   1.384908 A    
C61   H40   1.080212 S    
C266  H158  1.111792 S    
C11   H2    1.080740 S    
C183  H102  1.083676 S    
C207  C213  1.387327 A    
C192  H105  1.082833 S    
O9    C286  1.415205 S    
C223  H130  1.082017 S    
C16   C57   1.480116 S    
C123  C129  1.400584 A    
N54   O18   1.300250 A    
C239  C260  1.473786 S    
C245  C251  1.388488 A    
C84   C161  1.464434 S    
C284  C285  1.525597 S    
C29   H20   1.080127 S    
C267  H159  1.110960 S    
C102  C110  1.399764 A    
C134  C140  1.390321 A    
C230  C234  1.399929 A    
N41   Ni11  1.911682 S    
C253  C258  1.399603 A    
C242  H134  1.084923 S    
C113  H77   1.082014 S    
C141  C147  1.406601 A    
C114  H78   1.082554 S    
C131  C137  1.388254 A    
C132  C138  1.388632 A    
C40   N22   1.343289 A    
O5    C274  1.417253 S    
C34   H25   1.079831 S    
C292  C293  1.527330 S    
N16   N21   1.280300 A    
C36   H27   1.079854 S    
C4    C19   1.404429 A    
C61   C84   1.377956 A    
C194  C200  1.403045 A    
C112  C142  1.409866 A    
C6    C12   1.394062 A    
C18   C56   1.480237 S    
C29   N11   1.339949 A    
C153  C164  1.412602 A    
C203  C209  1.388141 A    
C202  H109  1.083389 S    
C272  H171  1.110705 S    
N21   Ni7   1.915609 S    
C47   C128  1.466775 S    
C277  C278  1.538644 S    
C106  H58   1.081930 S    
C8    H11   1.082935 S    
C173  C180  1.404786 A    
C46   C129  1.467584 S    
C244  C250  1.401299 A    
C148  O1    1.382921 S    
C41   N23   1.342897 A    
C115  H79   1.082180 S    
C225  H132  1.082007 S    
N16   Ni12  1.915150 S    
C4    C10   1.393862 A    
C297  H229  1.110870 S    
C275  H179  1.110160 S    
N45   N46   1.288044 A    
C288  H210  1.110833 S    
C80   H53   1.079999 S    
C279  H187  1.110955 S    
C7    C13   1.394239 A    
C69   N57   1.429047 S    
C59   C83   1.379647 A    
N51   Ni1   1.912495 S    
N23   N26   1.287781 A    
C27   N9    1.349216 A    
C207  H114  1.083495 S    
C48   C127  1.468139 S    
C291  H216  1.110353 S    
C187  C193  1.403254 A    
C276  H181  1.110441 S    
C91   C199  1.469190 S    
N36   N37   1.287310 A    
C3    N3    1.356300 A    
N5    Ni2   1.913077 S    
C167  C215  1.482564 S    
C5    C20   1.404442 A    
C25   C49   1.383971 A    
C296  H227  1.111533 S    
C80   N50   1.345607 A    
N9    Ni6   1.913133 S    
C71   C89   1.378298 A    
C278  H186  1.110291 S    
C86   C257  1.472033 S    
C283  H197  1.110947 S    
C189  O12   1.383186 S    
C189  C195  1.403153 A    
C291  H217  1.110927 S    
C75   N45   1.344436 A    
C273  H175  1.110853 S    
N12   Ni9   1.910037 S    
C87   C258  1.474214 S    
O10   C289  1.411281 S    
C102  C165  1.479525 S    
C198  C204  1.398224 A    
C67   N55   1.428909 S    
C69   N39   1.351360 A    
C33   C46   1.382514 A    
C24   N6    1.342244 A    
C43   C57   1.384607 A    
C27   C51   1.384868 A    
C129  C135  1.402346 A    
C293  C294  1.526028 S    
C193  C199  1.403207 A    
C80   C89   1.378898 A    
C63   H42   1.080272 S    
C102  C108  1.395946 A    
C172  C235  1.481677 S    
C122  H68   1.082709 S    
N34   N39   1.286148 A    
C212  H119  1.082351 S    
C241  H133  1.084378 S    
C248  C254  1.402025 A    
C24   H15   1.079966 S    
C246  C252  1.401714 A    
C1    C19   1.476755 S    
C270  H166  1.111266 S    
C77   N47   1.347436 A    
C280  C281  1.533598 S    
C131  H71   1.083008 S    
C169  C178  1.401663 A    
C265  H155  1.117261 S    
C149  O2    1.382935 S    
C30   H21   1.080015 S    
C159  C161  1.401551 A    
C26   H17   1.080166 S    
C60   C84   1.379581 A    
O1    C262  1.413554 S    
C283  C284  1.533568 S    
C7    H10   1.082931 S    
C37   H28   1.079853 S    
C66   N36   1.348968 A    
C149  C155  1.391341 A    
C105  H57   1.082235 S    
C251  C257  1.398012 A    
N26   Ni2   1.909952 S    
C116  C122  1.396733 A    
C123  H69   1.083302 S    
C60   N30   1.345547 A    
C67   C87   1.385739 A    
C2    N1    1.356359 A    
C62   H41   1.080191 S    
O2    C265  1.413542 S    
C297  H231  1.110802 S    
C43   H34   1.078749 S    
C29   C50   1.376927 A    
C26   N8    1.348904 A    
C250  H136  1.082380 S    
C27   H18   1.080211 S    
C70   C88   1.377472 A    
C248  H146  1.082909 S    
C34   N16   1.345525 A    
C239  C243  1.402952 A    
C247  H145  1.083404 S    
C231  H126  1.083365 S    
C36   N18   1.345984 A    
C245  H143  1.083516 S    
C295  H225  1.110922 S    
N45   Ni7   1.911281 S    
C156  H90   1.084131 S    
C204  H111  1.083374 S    
C171  C219  1.485477 S    
C2    N2    1.356485 A    
C81   H54   1.080090 S    
C179  H98   1.080894 S    
C296  C297  1.525631 S    
C79   H52   1.079990 S    
C117  C147  1.406178 A    
C138  C144  1.407655 A    
C281  C282  1.525584 S    
C72   N42   1.345372 A    
C111  H63   1.082825 S    
C221  C236  1.406833 A    
C100  C163  1.478919 S    
C229  C232  1.399928 A    
C249  C255  1.387835 A    
C206  H113  1.083510 S    
C209  H116  1.082574 S    
C64   C85   1.383123 A    
C276  H180  1.110957 S    
C28   C51   1.376813 A    
C262  H149  1.113449 S    
C9    C21   1.404520 A    
C246  C261  1.404106 A    
C44   H35   1.078910 S    
C50   C125  1.472992 S    
C174  C179  1.404014 A    
C157  C160  1.401628 A    
C244  H142  1.082933 S    
C208  C214  1.405995 A    
C90   C198  1.469647 S    
C173  C236  1.482533 S    
C32   H23   1.079997 S    
C195  C201  1.402639 A    
C76   C93   1.379057 A    
C28   H19   1.080157 S    
C221  H128  1.082922 S    
C92   C200  1.469435 S    
C141  H87   1.082985 S    
C268  C269  1.527510 S    
C222  H129  1.082939 S    
C213  H120  1.082358 S    
C255  H141  1.083846 S    
N28   Ni1   1.913304 S    
C171  C182  1.402313 A    
C153  O6    1.397602 S    
C137  C143  1.408672 A    
C277  H184  1.108714 S    
C286  H204  1.110948 S    
C270  H168  1.111598 S    
C280  H190  1.110949 S    
C78   H51   1.080111 S    
N11   Ni8   1.911764 S    
C167  C176  1.401033 A    
C64   N52   1.434387 S    
C103  H55   1.080641 S    
C158  C162  1.401388 A    
C185  C215  1.412459 A    
C192  C198  1.403262 A    
C114  C120  1.399137 A    
N18   N19   1.281455 A    
C65   N53   1.428866 S    
N55   O19   1.300820 A    
C206  C212  1.387125 A    
C210  H117  1.082591 S    
C68   C86   1.385301 A    
C264  H152  1.110820 S    
C211  H118  1.082370 S    
C66   C87   1.384452 A    
N29   N32   1.283490 A    
N56   O22   1.301206 A    
C264  H154  1.111028 S    
N30   N31   1.284188 A    
C39   N21   1.342105 A    
C245  C260  1.404166 A    
C151  C163  1.412690 A    
O7    C280  1.415220 S    
N38   Ni11  1.910165 S    
C195  H108  1.083000 S    
N40   N51   1.288045 A    
C70   H43   1.073797 S    
C193  H106  1.082959 S    
C58   H37   1.080525 S    
C104  H56   1.080590 S    
C172  C175  1.402668 A    
C274  H176  1.110914 S    
C191  H104  1.082825 S    
C116  H80   1.082810 S    
N44   N47   1.287756 A    
C271  H170  1.108721 S    
C139  H85   1.082983 S    
C140  H86   1.082181 S    
C99   C104  1.405075 A    
N56   O21   1.300308 A    
C172  C178  1.404110 A    
N7    N12   1.286100 A    
C149  C164  1.412997 A    
C230  H125  1.083389 S    
C72   C90   1.377271 A    
C222  C228  1.396002 A    
C252  C258  1.405422 A    
N53   O15   1.301133 A    
C62   C83   1.378113 A    
C228  H123  1.082685 S    
C174  C177  1.402599 A    
C273  H174  1.110451 S    
C96   C144  1.487582 S    
C269  H165  1.111882 S    
C99   C147  1.481195 S    
C98   C146  1.481998 S    
C23   C47   1.381594 A    
C63   N33   1.342867 A    
C42   H33   1.079073 S    
N34   Ni7   1.910870 S    
N6    Ni3   1.913877 S    
C271  C272  1.538657 S    
C294  H223  1.110350 S    
C119  C125  1.403332 A    
C290  C291  1.526026 S    
C33   H24   1.079868 S    
N28   N33   1.283033 A    
C35   H26   1.079627 S    
C6    H9    1.082939 S    
C284  H200  1.110979 S    
N19   Ni9   1.915865 S    
C138  H84   1.080750 S    
C203  H110  1.083341 S    
C254  C257  1.406436 A    
C107  H59   1.081940 S    
C266  H157  1.110943 S    
C263  H150  1.110875 S    
N39   Ni12  1.911808 S    
C79   C90   1.377844 A    
C152  O5    1.397912 S    
C71   H44   1.075216 S    
C269  C270  1.525690 S    
C251  H137  1.083798 S    
C61   N31   1.343311 A    
C75   C93   1.376301 A    
C31   C48   1.382717 A    
C11   C17   1.405685 A    
C186  C216  1.412776 A    
C188  C194  1.403569 A    
N41   N50   1.287754 A    
C65   N35   1.350542 A    
C292  H219  1.115370 S    
C95   C111  1.405678 A    
C10   C16   1.405649 A    
C62   N32   1.343531 A    
C155  C161  1.392697 A    
N23   Ni5   1.908380 S    
C247  C261  1.403760 A    
C115  C145  1.406186 A    
C289  H211  1.115012 S    
C287  H207  1.110959 S    
C243  H135  1.084185 S    
C116  C146  1.406323 A    
C254  H140  1.082366 S    
N5    N14   1.286383 A    
C23   H14   1.079891 S    
O8    C283  1.415244 S    
N35   N38   1.286614 A    
C22   N4    1.342078 A    
C127  C133  1.402377 A    
N4    Ni1   1.913616 S    
C182  H101  1.083762 S    
C128  C134  1.399473 A    
C286  C287  1.533593 S    
C76   H49   1.080098 S    
C187  C217  1.416401 A    
C132  H72   1.082952 S    
N7    Ni4   1.913424 S    
C40   H31   1.079224 S    
N8    Ni5   1.914015 S    
C187  O10   1.381278 S    
C76   N46   1.346735 A    
C293  H221  1.111694 S    
C297  H230  1.110706 S    
C169  C217  1.485614 S    
C295  H226  1.116411 S    
C288  H209  1.110381 S    
C279  H188  1.110451 S    
N47   Ni5   1.911798 S    
C98   C105  1.404372 A    
C201  C207  1.397127 A    
C101  C107  1.396207 A    
C285  H201  1.110928 S    
C272  H172  1.110282 S    
C150  C156  1.390261 A    
C168  C177  1.401037 A    
C8    C14   1.394080 A    
C94   C109  1.405882 A    
C226  H121  1.082678 S    
C170  C179  1.401713 A    
N42   N49   1.287473 A    
C82   C162  1.463096 S    
C229  H124  1.083392 S    
N33   Ni6   1.912847 S    
N43   N48   1.287471 A    
C184  C214  1.412641 A    
C3    N2    1.356440 A    
N17   N20   1.280758 A    
C150  O3    1.383253 S    
C274  C275  1.538689 S    
N53   O16   1.300841 A    
C212  C218  1.407081 A    
C295  C296  1.534654 S    
N24   N25   1.288479 A    
C191  C197  1.403409 A    
C37   C54   1.378069 A    
C34   C52   1.381481 A    
C202  C208  1.387634 A    
C113  C119  1.400052 A    
C190  C196  1.403232 A    
C39   C52   1.378083 A    
C139  C145  1.406677 A    
C42   N24   1.343364 A    
C140  C146  1.407177 A    
C125  C131  1.399618 A    
C283  H198  1.116130 S    
C173  C176  1.402958 A    
C246  H144  1.082969 S    
C238  C242  1.398198 A    
N20   Ni8   1.915091 S    
C133  H73   1.082582 S    
N52   O13   1.301185 A    
C276  H182  1.110852 S    
C136  H82   1.080153 S    
C97   C145  1.481578 S    
C266  C267  1.525549 S    
C205  H112  1.083483 S    
C59   H38   1.080349 S    
C220  C226  1.396066 A    
C225  C236  1.406619 A    
C43   N25   1.343557 A    
N17   Ni11  1.915994 S    
N15   Ni12  1.911805 S    
C53   C232  1.466539 S    
C224  C237  1.406627 A    
C151  C157  1.417853 A    
C166  C214  1.482317 S    
C73   N43   1.344467 A    
C249  C259  1.403766 A    
C188  O11   1.381266 S    
C267  H161  1.111178 S    
C263  C264  1.525506 S    
C73   C91   1.376006 A    
C96   C110  1.405003 A    
C63   C82   1.376248 A    
C13   H4    1.080835 S    
C281  H193  1.110959 S    
C22   H13   1.079963 S    
C88   C196  1.469100 S    
C280  H191  1.116192 S    
N27   Ni1   1.909085 S    
C208  H115  1.082583 S    
C49   C126  1.472476 S    
C265  H156  1.113614 S    
O12   C295  1.415741 S    
C41   H32   1.079173 S    
C267  H160  1.110447 S    
C120  C126  1.403899 A    
O4    C271  1.417659 S    
C118  C124  1.403560 A    
C289  C290  1.527334 S    
C224  C230  1.390602 A    
C45   C55   1.384835 A    
C224  H131  1.082032 S    
N18   Ni10  1.915423 S    
C135  C141  1.395741 A    
C136  C142  1.408592 A    
C122  C128  1.402645 A    
C30   C49   1.378422 A    
C38   H29   1.079920 S    
C150  C165  1.414444 A    
C199  C205  1.397450 A    
O6    C277  1.417661 S    
C51   C124  1.473348 S    
C112  C118  1.400464 A    
C32   C47   1.379032 A    
N48   Ni4   1.912340 S    
C114  C144  1.407901 A    
N30   Ni3   1.913559 S    
C282  H195  1.110381 S    
C204  C210  1.387863 A    
N37   Ni10  1.910645 S    
C59   N29   1.345635 A    
C100  C109  1.400419 A    
C275  H178  1.110887 S    
C220  H127  1.082930 S    
N4    N15   1.286677 A    
C194  H107  1.082966 S    
C81   C88   1.377934 A    
C180  H99   1.081161 S    
N57   O23   1.300810 A    
N36   Ni9   1.910009 S    
N22   N27   1.287320 A    
C15   H6    1.080787 S    
N6    N13   1.286101 A    
C9    H12   1.082938 S    
C38   C53   1.377559 A    
C159  H93   1.078759 S    
C37   N19   1.342173 A    
C108  H60   1.081165 S    
C112  H76   1.082059 S    
C285  H203  1.110835 S    
C240  C243  1.405506 A    
C151  O4    1.397632 S    
C189  C219  1.416596 A    
C291  H215  1.110918 S    
C196  C202  1.398041 A    
C75   H48   1.075233 S    
C60   H39   1.080341 S    
N22   Ni6   1.910025 S    
C174  C237  1.481610 S    
C10   H1    1.080742 S    
C93   C201  1.468587 S    
C155  H89   1.083992 S    
N14   Ni11  1.910149 S    
C95   C104  1.405880 A    
C296  H228  1.110888 S    
C137  H83   1.080202 S    
C223  C235  1.406616 A    
C225  C231  1.390986 A    
C121  H67   1.083283 S    
C99   C107  1.400627 A    
C4    H7    1.082945 S    
C293  H220  1.111859 S    
C5    H8    1.082946 S    
C67   N37   1.352145 A    
C278  C279  1.525481 S    
N43   Ni9   1.911545 S    
C66   N54   1.434121 S    
C65   C86   1.382653 A    
C176  H95   1.082644 S    
C124  C130  1.399575 A    
C248  C260  1.402731 A    
N50   Ni2   1.913417 S    
C209  C215  1.406153 A    
N9    N10   1.286675 A    
C262  H148  1.117258 S    
C25   N7    1.347686 A    
C279  H189  1.110852 S    
C156  C162  1.391086 A    
C290  H213  1.111862 S    
C244  C259  1.403566 A    
N31   Ni4   1.913118 S    
C72   H45   1.073654 S    
C73   H46   1.075078 S    
C133  C139  1.395803 A    
C178  H97   1.080933 S    
C79   N49   1.345870 A    
C185  C191  1.405759 A    
C35   C53   1.381453 A    
C282  H194  1.110927 S    
C268  H163  1.113910 S    
C222  C237  1.406501 A    
C148  C154  1.391632 A    
C35   N17   1.346070 A    
C175  H94   1.082635 S    
C71   N41   1.345327 A    
C44   N26   1.343722 A    
C69   C85   1.384301 A    
C121  C127  1.400784 A    
N13   Ni10  1.910689 S    
C250  C256  1.405459 A    
C270  H167  1.110577 S    
N44   Ni8   1.910746 S    
C170  C183  1.402586 A    
C210  C216  1.405987 A    
C2    C20   1.476982 S    
C287  H206  1.111723 S    
C223  C229  1.390513 A    
C200  C206  1.397608 A    
O3    C268  1.413707 S    
C64   N34   1.347850 A    
C5    C11   1.393931 A    
C130  H70   1.083003 S    
C240  C261  1.476080 S    
C177  H96   1.082632 S    
C28   N10   1.339913 A    
C264  H153  1.110370 S    
C6    C21   1.404613 A    
C23   N5    1.345584 A    
C7    C20   1.404723 A    
C8    C19   1.404658 A    
C153  C159  1.417706 A    
C119  H65   1.082360 S    
C1    N1    1.356430 A    
C58   N28   1.346334 A    
C120  H66   1.082241 S    
C83   C160  1.465013 S    
C292  H218  1.114997 S    
C81   N51   1.345575 A    
C54   C233  1.467575 S    
C77   C92   1.378113 A    
C95   C143  1.491658 S    
C275  C276  1.525470 S    
C166  C175  1.401007 A    
C94   C142  1.491911 S    
C14   C16   1.405469 A    
C238  C259  1.473346 S    
N46   Ni6   1.913456 S    
C265  C266  1.527628 S    
C213  C219  1.407493 A    
C255  C256  1.398218 A    
C97   C106  1.400796 A    
C109  H61   1.082830 S    
C239  C242  1.399543 A    
C240  C241  1.405261 A    
C39   H30   1.079908 S    
C12   C18   1.405536 A    
C253  H139  1.083747 S    
C181  H100  1.083714 S    
C9    C15   1.394030 A    
N49   Ni3   1.911683 S    
C227  H122  1.082671 S    
C101  C111  1.400344 A    
C101  C164  1.478433 S    
N25   Ni3   1.908224 S    
C30   N12   1.340711 A    
C78   C91   1.378981 A    
N10   Ni7   1.910843 S    
C85   C256  1.470667 S    
C168  C216  1.482734 S    
C205  C211  1.387306 A    
C186  C192  1.405901 A    
C32   N14   1.342271 A    
