data_mof_unit_48110.cif
_audit_creation_date              2012-12-10T18:55:57-0500
_audit_creation_method            fapswitch 2.2
_symmetry_space_group_name_H-M    P1
_symmetry_Int_Tables_number       1
_space_group_crystal_system       triclinic
_cell_length_a                    10.65835
_cell_length_b                    9.974586
_cell_length_c                    15.085456
_cell_angle_alpha                 89.631115
_cell_angle_beta                  94.276
_cell_angle_gamma                 90.034513
_cell_volume                      1599.27714228

loop_
_atom_site_label
_atom_site_type_symbol
_atom_type_description
_atom_site_fract_x
_atom_site_fract_y
_atom_site_fract_z
_atom_type_partial_charge
C1    C     C_R   0.260354 0.499929 0.499296 0.852361
C2    C     C_R   0.930385 0.600394 0.453415 -0.161854
C3    C     C_R   0.940978 0.400361 0.547527 -0.167432
C4    C     C_R   0.059022 0.599639 0.452473 -0.167432
C5    C     C_R   0.468698 0.626778 0.089412 0.389566
C6    C     C_R   0.531302 0.373222 0.910588 0.389566
C7    C     C_R   0.568013 0.608578 0.911659 0.395789
C8    C     C_R   0.431986 0.391421 0.088341 0.395789
C9    C     C_R   0.486635 0.626884 0.181657 0.289288
C10   C     C_R   0.513365 0.373116 0.818343 0.289288
C11   C     C_R   0.550209 0.615335 0.819583 0.297718
C12   C     C_R   0.739646 0.500071 0.500704 0.852362
C13   C     C_R   0.449790 0.384665 0.180417 0.297718
C14   C     C_R   0.483354 0.502946 0.229097 -0.394073
C15   C     C_R   0.516646 0.497053 0.770903 -0.394073
C16   C     C_R   0.474345 0.504755 0.044475 -0.162747
C17   C     C_R   0.525655 0.495245 0.955525 -0.162747
C18   C     C_R   0.872234 0.500390 0.500722 -0.004489
C19   C     C_R   0.127765 0.499610 0.499278 -0.004489
C20   C     C_3   0.686937 0.141559 0.611465 -0.736443
C21   C     C_3   0.313062 0.858441 0.388535 -0.736443
C22   C     C_3   0.294303 0.146951 0.409423 -0.690574
C23   C     C_R   0.497635 0.500561 0.327083 0.976208
C24   C     C_3   0.705697 0.853048 0.590577 -0.690574
C25   C     C_R   0.502365 0.499439 0.672917 0.976207
C26   C     C_R   0.590463 0.071015 0.550270 0.230692
C27   C     C_R   0.409537 0.928985 0.449730 0.230692
C28   C     C_R   0.406879 0.072514 0.452283 0.219633
C29   C     C_R   0.593121 0.927486 0.547717 0.219633
C30   C     C_R   0.069615 0.399606 0.546585 -0.161855
Cl1   Cl    Cl    0.407193 0.772532 0.033941 -0.334509
Cl2   Cl    Cl    0.592806 0.227467 0.966059 -0.334509
Cl3   Cl    Cl    0.671851 0.724051 0.968135 -0.368346
Cl4   Cl    Cl    0.328149 0.275948 0.031865 -0.368346
Cl5   Cl    Cl    0.522636 0.784306 0.231134 -0.442037
Cl6   Cl    Cl    0.477364 0.215693 0.768866 -0.442038
Cl7   Cl    Cl    0.564037 0.776691 0.772325 -0.455456
Cl8   Cl    Cl    0.435963 0.223309 0.227675 -0.455456
H1    H     H_    0.123604 0.322986 0.583666 0.173286
H2    H     H_    0.315755 0.898447 0.319929 0.272657
H3    H     H_    0.322223 0.242383 0.380325 0.290763
H4    H     H_    0.243958 0.094718 0.353100 0.232388
H5    H     H_    0.225526 0.163929 0.459887 0.216309
H6    H     H_    0.677777 0.757617 0.619675 0.290763
H7    H     H_    0.774474 0.836071 0.540113 0.216309
H8    H     H_    0.756042 0.905282 0.646900 0.232388
H9    H     H_    0.876396 0.677014 0.416334 0.173286
H10   H     H_    0.895665 0.325051 0.585820 0.151110
H11   H     H_    0.104334 0.674949 0.414180 0.151110
H12   H     H_    0.670313 0.248268 0.618578 0.277615
H13   H     H_    0.684245 0.101553 0.680071 0.272657
H14   H     H_    0.782014 0.126427 0.587910 0.198404
H15   H     H_    0.329687 0.751732 0.381422 0.277615
H16   H     H_    0.217986 0.873573 0.412090 0.198404
N1    N     N_R   0.500000 0.857200 0.500000 -0.110773
N2    N     N_R   0.500000 0.142800 0.500000 -0.110773
O1    O     O_R   0.316770 0.614620 0.499990 -0.628462
O2    O     O_R   0.683230 0.385380 0.500010 -0.628462
O3    O     O_R   0.683230 0.614620 0.500010 -0.639291
O4    O     O_R   0.316770 0.385380 0.499990 -0.639291
O5    O     O_R   0.499990 0.614660 0.369060 -0.586529
O6    O     O_R   0.500010 0.385340 0.630940 -0.586529
O7    O     O_R   0.500010 0.614660 0.630940 -0.576362
O8    O     O_R   0.499990 0.385340 0.369060 -0.576362
Zn1   Zn    Zn3+2 0.500000 0.653120 0.500000 0.995590
Zn2   Zn    Zn3+2 0.500000 0.346880 0.500000 0.995590

loop_
_geom_bond_atom_site_label_1
_geom_bond_atom_site_label_2
_ccdc_geom_bond_type
C14   C23   S    
C6    C10   A    
C3    C30   A    
C2    C4    A    
C9    C14   A    
O7    Zn1   S    
C5    C9    A    
C8    C13   A    
C1    O1    A    
C2    H9    S    
C2    C18   A    
C6    Cl2   S    
C22   H5    S    
C4    C19   A    
C4    H11   S    
C10   C15   A    
C12   O2    A    
C21   C27   S    
C24   H8    S    
C8    C16   A    
C8    Cl4   S    
C13   C14   A    
O3    Zn1   S    
C7    C11   A    
C7    Cl3   S    
O8    Zn2   S    
C13   Cl8   S    
C22   H4    S    
C21   H2    S    
C20   C26   S    
C3    C18   A    
N2    Zn2   S    
C24   H7    S    
C21   H15   S    
C22   C28   S    
C23   O8    A    
N1    Zn1   S    
C10   Cl6   S    
C30   H1    S    
C20   H13   S    
C25   O6    A    
C12   O3    A    
C28   N2    A    
C21   H16   S    
C24   H6    S    
C27   N1    A    
C15   C25   S    
C22   H3    S    
C1    C19   S    
O6    Zn2   S    
O4    Zn2   S    
O5    Zn1   S    
C3    H10   S    
C23   O5    A    
C26   C29   A    
C20   H14   S    
C25   O7    A    
C1    O4    A    
C12   C18   S    
C27   C28   A    
C11   Cl7   S    
C6    C17   A    
C24   C29   S    
C9    Cl5   S    
C20   H12   S    
C29   N1    A    
C5    Cl1   S    
C19   C30   A    
C11   C15   A    
O2    Zn2   S    
O1    Zn1   S    
C16   C17   S    
C5    C16   A    
C7    C17   A    
C26   N2    A    
