data_mof_unit_16961.cif
_audit_creation_date              2012-12-11T16:35:16-0500
_audit_creation_method            fapswitch 2.2
_symmetry_space_group_name_H-M    P1
_symmetry_Int_Tables_number       1
_space_group_crystal_system       triclinic
_cell_length_a                    6.933101
_cell_length_b                    17.652028
_cell_length_c                    19.515772
_cell_angle_alpha                 109.012435
_cell_angle_beta                  90.714178
_cell_angle_gamma                 90.712328
_cell_volume                      2257.5929016

loop_
_atom_site_label
_atom_site_type_symbol
_atom_type_description
_atom_site_fract_x
_atom_site_fract_y
_atom_site_fract_z
_atom_type_partial_charge
O1    O     O_R   0.505700 0.440210 0.561730 -0.545602
O2    O     O_R   0.169350 0.406300 0.412660 -0.541022
O3    O     O_R   0.005650 0.559790 0.438270 -0.540167
C1    C     C_R   0.337038 0.382610 0.384976 0.697881
O4    O     O_R   0.175560 0.430650 0.559600 -0.542112
O5    O     O_R   0.011900 0.584320 0.586250 -0.535597
C2    C     C_R   0.344814 0.415266 0.580776 0.679561
O6    O     O_R   0.499450 0.415680 0.413750 -0.534543
O7    O     O_3   0.341370 0.550390 0.508570 -0.363178
V1    V     V_3+5 0.063940 0.490650 0.498410 1.413910
O8    O     O_R   0.682570 0.593700 0.587340 -0.538735
C3    C     C_R   0.853078 0.616611 0.614923 0.693391
O9    O     O_R   0.676370 0.569350 0.440400 -0.536790
C4    C     C_R   0.845097 0.585417 0.420019 0.694883
V2    V     V_3+5 0.564750 0.509350 0.501590 1.422847
O10   O     O_3   0.837190 0.449610 0.491430 -0.370890
C5    C     C_R   0.944585 0.651299 0.257827 -0.162826
H1    H     H_    0.998278 0.623879 0.203636 0.154461
C6    C     C_R   0.934425 0.604922 0.303654 -0.178922
H2    H     H_    0.985195 0.544242 0.284859 0.107563
C7    C     C_R   0.855573 0.635704 0.372559 -0.063348
C8    C     C_R   0.790744 0.714823 0.396014 -0.233565
H3    H     H_    0.732150 0.739472 0.449831 0.108353
C9    C     C_R   0.809881 0.763872 0.351880 0.310783
C10   C     C_R   0.886048 0.731676 0.281159 0.060616
C11   C     C_R   0.743638 0.824217 0.220142 -0.151048
H4    H     H_    0.611894 0.824924 0.249307 0.153747
C12   C     C_R   0.751146 0.867171 0.171329 -0.201612
C13   C     C_R   0.918744 0.868225 0.131974 -0.100051
C14   C     C_R   0.078793 0.824926 0.142632 -0.197215
H5    H     H_    0.209974 0.826764 0.113774 0.134391
C15   C     C_R   0.071431 0.779899 0.190671 0.294810
C16   C     C_R   0.901818 0.779821 0.230492 0.042433
H6    H     H_    0.621762 0.650259 0.929101 0.111618
C17   C     C_R   0.052605 0.897350 0.749456 -0.141853
C18   C     C_R   0.115378 0.906399 0.684981 -0.124185
C19   C     C_R   0.096746 0.843129 0.620308 -0.122488
C20   C     C_R   0.015658 0.770272 0.619656 -0.132621
C21   C     C_R   0.952285 0.758964 0.684404 0.069329
C22   C     C_R   0.970736 0.823895 0.750658 0.068877
C23   C     C_R   0.867794 0.685082 0.683646 -0.185081
C24   C     C_R   0.800411 0.676312 0.749047 0.068030
C25   C     C_R   0.818474 0.741298 0.815274 0.069760
C26   C     C_R   0.903866 0.815057 0.816108 -0.185822
C27   C     C_R   0.717886 0.602938 0.750198 -0.143351
C28   C     C_R   0.653237 0.594163 0.814541 -0.123604
C29   C     C_R   0.670976 0.657552 0.879151 -0.123777
C30   C     C_R   0.753411 0.730211 0.879903 -0.132006
H7    H     H_    0.177564 0.963046 0.685178 0.120073
H8    H     H_    0.144281 0.850651 0.570245 0.109308
H9    H     H_    0.001682 0.723401 0.567733 0.101733
H10   H     H_    0.703296 0.551346 0.701677 0.109475
H11   H     H_    0.590173 0.537649 0.814296 0.118847
H12   H     H_    0.766755 0.777137 0.931809 0.103971
C31   C     C_R   0.524250 0.235268 0.382558 -0.125742
C32   C     C_R   0.624564 0.167547 0.383078 -0.124522
C33   C     C_R   0.657971 0.106495 0.318560 -0.117994
C34   C     C_R   0.591973 0.112798 0.252956 -0.151538
C35   C     C_R   0.491973 0.181318 0.250405 0.051040
C36   C     C_R   0.456586 0.243895 0.316782 0.079495
C37   C     C_R   0.426232 0.187804 0.183382 -0.197854
C38   C     C_R   0.326519 0.257957 0.183254 0.043230
C39   C     C_R   0.273000 0.315837 0.250240 0.026932
C40   C     C_R   0.348454 0.311880 0.316927 -0.179072
C41   C     C_R   0.281195 0.273584 0.117658 0.300340
C42   C     C_R   0.151283 0.333826 0.118205 -0.176767
C43   C     C_R   0.081578 0.384149 0.183028 -0.180166
C44   C     C_R   0.148132 0.377902 0.248477 -0.154071
H13   H     H_    0.734641 0.053689 0.319328 0.124091
H14   H     H_    0.620819 0.063298 0.204522 0.104834
C45   C     C_R   0.537227 0.277910 0.679410 -0.146998
H15   H     H_    0.669416 0.246269 0.680305 0.102614
C46   C     C_R   0.526011 0.324889 0.633991 -0.175245
H16   H     H_    0.650401 0.328827 0.602195 0.121448
C47   C     C_R   0.355645 0.365125 0.628721 -0.051449
C48   C     C_R   0.196954 0.357612 0.670259 -0.160093
H17   H     H_    0.064149 0.388448 0.667933 0.118009
C49   C     C_R   0.209197 0.311788 0.716719 -0.146547
H18   H     H_    0.085644 0.309645 0.749417 0.099739
C50   C     C_R   0.379450 0.270973 0.721935 0.088130
C51   C     C_R   0.228529 0.182092 0.786098 -0.147151
H19   H     H_    0.090720 0.184576 0.760335 0.100726
C52   C     C_R   0.240044 0.137408 0.833468 -0.181368
H20   H     H_    0.110274 0.108114 0.843427 0.116910
C53   C     C_R   0.416563 0.129915 0.866809 -0.061765
C54   C     C_R   0.581541 0.168004 0.851167 -0.164872
H21   H     H_    0.720246 0.163239 0.875427 0.113622
C55   C     C_R   0.569341 0.214065 0.804933 -0.140887
H22   H     H_    0.698650 0.244542 0.796408 0.096119
C56   C     C_R   0.392619 0.221797 0.771517 0.091932
O11   O     O_R   0.273230 0.084330 0.086440 -0.532288
O12   O     O_R   0.596660 0.069390 0.940470 -0.540211
O13   O     O_R   0.760270 0.915710 0.913690 -0.536624
C57   C     C_R   0.427565 0.082480 0.917320 0.724788
O14   O     O_R   0.603330 0.093680 0.087390 -0.537083
O15   O     O_R   0.766990 0.940160 0.061660 -0.545483
C58   C     C_R   0.435819 0.117084 0.115323 0.780922
O16   O     O_R   0.266510 0.059870 0.938470 -0.541100
O17   O     O_3   0.431050 0.949630 0.991510 -0.371700
V3    V     V_3+5 0.708490 0.009340 0.001580 1.409102
O18   O     O_R   0.096270 0.930570 0.059390 -0.544688
C59   C     C_R   0.927920 0.915948 0.081503 0.696113
O19   O     O_R   0.089600 0.906290 0.912460 -0.539369
C60   C     C_R   0.918991 0.883464 0.884892 0.695825
V4    V     V_3+5 0.207670 0.990600 0.998190 1.417254
O20   O     O_3   0.935250 0.050360 0.008480 -0.368500
H23   H     H_    0.067768 0.948819 0.798034 0.102710
H24   H     H_    0.982442 0.430739 0.182389 0.123912
H25   H     H_    0.497045 0.279824 0.434477 0.100334
H26   H     H_    0.674773 0.162041 0.433970 0.111248
N1    N     N_2   0.383890 0.236797 0.052970 -0.532878
H27   H     H_    0.309617 0.235479 0.006464 0.246162
C61   C     C_3   0.578772 0.268136 0.054777 -0.540147
H28   H     H_    0.654181 0.234060 0.004749 0.194641
H29   H     H_    0.662164 0.262249 0.101707 0.207583
H30   H     H_    0.575984 0.332266 0.058383 0.186138
H31   H     H_    0.111199 0.344277 0.068254 0.112871
H32   H     H_    0.097861 0.421633 0.297331 0.127596
N2    N     N_2   0.755232 0.845575 0.379617 -0.538650
H33   H     H_    0.647349 0.856124 0.417366 0.252140
C62   C     C_3   0.915238 0.901778 0.403999 -0.555763
H34   H     H_    0.018878 0.895428 0.359624 0.206925
H35   H     H_    0.860440 0.963900 0.421274 0.195922
H36   H     H_    0.991006 0.891762 0.450771 0.188273
H37   H     H_    0.625476 0.900284 0.164996 0.130194
N3    N     N_2   0.236214 0.737957 0.202447 -0.536427
H38   H     H_    0.308660 0.764336 0.250990 0.254844
C63   C     C_3   0.353025 0.696522 0.141042 -0.577016
H39   H     H_    0.451986 0.655686 0.156620 0.207939
H40   H     H_    0.441329 0.739735 0.123862 0.196564
H41   H     H_    0.259824 0.660113 0.095092 0.204179

loop_
_geom_bond_atom_site_label_1
_geom_bond_atom_site_label_2
_ccdc_geom_bond_type
C31   C32   A    
N3    H38   S    
O15   C59   A    
C23   C24   A    
O11   V4    S    
C17   C18   A    
C1    O6    A    
C63   H39   S    
C51   H19   S    
C26   C60   S    
C21   C23   A    
C53   C54   A    
C30   H12   S    
C11   H4    S    
C19   C20   A    
O16   V4    S    
C52   H20   S    
C4    C7    S    
C12   C13   A    
C6    C7    A    
C48   C49   A    
O5    C3    A    
C20   C21   A    
C49   C50   A    
C43   H24   S    
C57   O16   A    
V2    O10   S    
C32   C33   A    
C46   H16   S    
C15   N3    S    
C41   N1    S    
C62   H36   S    
C44   H32   S    
C39   C44   A    
O8    V2    S    
O17   V3    S    
C42   H31   S    
O1    V2    S    
O9    C4    A    
C25   C30   A    
C38   C41   A    
C61   H30   S    
C42   C43   A    
C35   C36   A    
O1    C2    A    
C31   C36   A    
C31   H25   S    
C46   C47   A    
O13   C60   A    
C32   H26   S    
C45   C50   A    
C51   C52   A    
C48   H17   S    
N2    C62   S    
O18   V4    S    
O17   V4    S    
C35   C37   A    
C43   C44   A    
O18   C59   A    
C9    C10   A    
N1    C61   S    
C21   C22   A    
C45   C46   A    
C54   H21   S    
C34   H14   S    
C2    C47   S    
C20   H9    S    
C27   H10   S    
C34   C35   A    
C27   C28   A    
C24   C27   A    
O2    C1    A    
C47   C48   A    
C13   C14   A    
C53   C57   S    
C11   C16   A    
C29   C30   A    
N2    H33   S    
C38   C39   A    
O12   C57   A    
C5    H1    S    
O19   V4    S    
O11   C58   A    
O13   V3    S    
C62   H34   S    
O3    C4    A    
C51   C56   A    
C52   C53   A    
C55   C56   A    
O6    V2    S    
O9    V2    S    
C25   C26   A    
C8    C9    A    
C24   C25   A    
O2    V1    S    
C63   H41   S    
C12   H37   S    
O12   V3    S    
C3    C23   S    
O4    C2    A    
C61   H28   S    
O7    V1    S    
C28   C29   A    
C18   C19   A    
C9    N2    S    
N3    C63   S    
N1    H27   S    
O14   V3    S    
C11   C12   A    
C37   C58   S    
C63   H40   S    
O5    V1    S    
O8    C3    A    
O14   C58   A    
V4    O20   S    
C1    C40   S    
V3    O20   S    
C36   C40   A    
C5    C10   A    
C15   C16   A    
C6    H2    S    
C17   C22   A    
O7    V2    S    
O4    V1    S    
O3    V1    S    
V1    O10   S    
C14   C15   A    
C19   H8    S    
C49   H18   S    
C33   C34   A    
C14   H5    S    
O15   V3    S    
C28   H11   S    
C5    C6    A    
C13   C59   S    
C54   C55   A    
C50   C56   S    
C37   C38   A    
C62   H35   S    
C17   H23   S    
C39   C40   A    
C22   C26   A    
C45   H15   S    
C55   H22   S    
C41   C42   A    
O19   C60   A    
C8    H3    S    
H6    C29   S    
C33   H13   S    
C7    C8    A    
C18   H7    S    
C10   C16   S    
C61   H29   S    
