data_mof_unit_14586.cif
_audit_creation_date              2012-12-11T15:57:07-0500
_audit_creation_method            fapswitch 2.2
_symmetry_space_group_name_H-M    P1
_symmetry_Int_Tables_number       1
_space_group_crystal_system       triclinic
_cell_length_a                    17.511106
_cell_length_b                    24.536826
_cell_length_c                    15.012908
_cell_angle_alpha                 89.912476
_cell_angle_beta                  126.213916
_cell_angle_gamma                 90.314651
_cell_volume                      5204.32256592

loop_
_atom_site_label
_atom_site_type_symbol
_atom_type_description
_atom_site_fract_x
_atom_site_fract_y
_atom_site_fract_z
_atom_type_partial_charge
C1    C     C_R   0.309763 0.124859 0.905273 -0.136901
C2    C     C_R   0.554803 0.152483 0.908820 -0.213077
C3    C     C_R   0.815947 0.356517 0.996247 -0.003460
C4    C     C_R   0.565624 0.000536 0.367617 0.000839
C5    C     C_R   0.059975 0.500495 0.365065 -0.002364
C6    C     C_R   0.189213 0.999880 0.639766 0.026399
C7    C     C_R   0.673985 0.501266 0.710998 0.033383
C8    C     C_R   0.516938 0.046360 0.749215 -0.137656
C9    C     C_R   0.513540 0.954953 0.744529 -0.131671
C10   C     C_R   0.020237 0.545938 0.752842 -0.136436
C11   C     C_R   0.020187 0.454461 0.752820 -0.138637
C12   C     C_R   0.758592 0.954218 0.303811 -0.136955
C13   C     C_R   0.058574 0.348430 0.908979 -0.198731
C14   C     C_R   0.757439 0.044630 0.306581 -0.141252
C15   C     C_R   0.257617 0.453805 0.304077 -0.130025
C16   C     C_R   0.255965 0.544502 0.307879 -0.151367
C17   C     C_3   0.797420 0.172253 0.272041 -1.040351
C18   C     C_3   0.661465 0.818707 0.233524 -0.993029
C19   C     C_3   0.299964 0.670407 0.271880 -1.042519
C20   C     C_3   0.151272 0.316694 0.242990 -0.999629
C21   C     C_R   0.056886 0.652055 0.908652 -0.203916
C22   C     C_R   0.543840 0.000919 0.719366 -0.015565
C23   C     C_R   0.050091 0.500336 0.726497 -0.013482
C24   C     C_R   0.805776 0.999262 0.365660 0.003101
C25   C     C_R   0.303172 0.498834 0.366568 0.015563
C26   C     C_R   0.616171 0.184128 0.000154 -0.069237
C27   C     C_R   0.661937 0.837848 0.001264 -0.099604
C28   C     C_R   0.119914 0.683422 0.999967 -0.068712
C29   C     C_R   0.308251 0.876660 0.905369 -0.138579
C30   C     C_R   0.124195 0.318139 0.000856 -0.087165
C31   C     C_3   0.027202 0.954782 0.481601 -0.172911
C32   C     C_3   0.030123 0.999703 0.610089 -0.133362
C33   C     C_3   0.498594 0.470114 0.634045 -0.152707
C34   C     C_3   0.510405 0.552480 0.584478 -0.165836
C35   C     C_3   0.966958 0.954639 0.525984 -0.175709
C36   C     C_3   0.432988 0.520717 0.583077 -0.157642
C37   C     C_3   0.906287 0.999664 0.443997 0.201045
C38   C     C_3   0.395991 0.498980 0.468673 0.191488
C39   C     C_3   0.964877 0.999810 0.398140 -0.124388
C40   C     C_R   0.853075 0.651651 0.906545 -0.145402
C41   C     C_3   0.967549 0.044734 0.526405 -0.168975
C42   C     C_3   0.458973 0.448556 0.517462 -0.169830
C43   C     C_3   0.471519 0.530784 0.468826 -0.136585
C44   C     C_3   0.027843 0.044853 0.482072 -0.168603
C45   C     C_3   0.534743 0.480427 0.517628 -0.150741
C46   C     C_R   0.400233 0.876475 0.090634 -0.137872
C47   C     C_R   0.401944 0.125231 0.090999 -0.149339
C48   C     C_R   0.902877 0.372880 0.090843 -0.144292
C49   C     C_R   0.944687 0.652547 0.090615 -0.166716
C50   C     C_3   0.088487 0.999811 0.564001 0.196706
C51   C     C_R   0.814892 0.368561 0.905882 -0.132481
C52   C     C_3   0.573172 0.501955 0.632599 0.188732
C53   C     C_3   0.232872 0.827385 0.080499 -0.424530
C54   C     C_3   0.226445 0.172277 0.070007 -0.411832
C55   C     C_3   0.742878 0.322953 0.086306 -0.428397
C56   C     C_3   0.761637 0.699341 0.021736 -0.390010
C57   C     C_3   0.677116 0.278426 0.078286 -0.404783
C58   C     C_3   0.702158 0.742077 0.026919 -0.423343
C59   C     C_3   0.175945 0.778629 0.078187 -0.396185
C60   C     C_3   0.171080 0.221140 0.069320 -0.404418
C61   C     C_3   0.810102 0.260192 0.015369 -0.418464
C62   C     C_R   0.650598 0.151638 0.092407 0.200468
C63   C     C_3   0.890346 0.770202 0.083462 -0.418168
C64   C     C_3   0.312153 0.766183 0.022541 -0.404283
C65   C     C_3   0.322408 0.236017 0.037912 -0.389541
C66   C     C_3   0.155912 0.811362 0.878807 -0.400992
C67   C     C_3   0.167745 0.196419 0.876483 -0.413069
C68   C     C_3   0.656488 0.310695 0.881453 -0.399452
C69   C     C_3   0.764261 0.754497 0.880690 -0.424050
C70   C     C_3   0.252889 0.818579 0.994045 0.409768
C71   C     C_3   0.257776 0.184693 0.994911 0.407528
C72   C     C_3   0.756679 0.314007 0.994459 0.416076
C73   C     C_R   0.672477 0.858952 0.093874 0.206646
C74   C     C_3   0.826753 0.726425 0.995471 0.418783
C75   C     C_3   0.661549 0.233388 0.995803 0.440527
C76   C     C_3   0.721635 0.798364 0.997862 0.424274
C77   C     C_3   0.162916 0.734332 0.995713 0.430762
C78   C     C_3   0.168842 0.268152 0.997960 0.417112
C79   C     C_3   0.755562 0.213238 0.018626 -0.395611
C80   C     C_3   0.827864 0.815600 0.077508 -0.405693
C81   C     C_3   0.258130 0.716926 0.019296 -0.401024
C82   C     C_3   0.270224 0.284792 0.039209 -0.413374
C83   C     C_3   0.602836 0.260565 0.879861 -0.427728
C84   C     C_R   0.152550 0.651209 0.092325 0.208938
C85   C     C_3   0.697941 0.794686 0.880202 -0.398919
C86   C     C_3   0.103009 0.761343 0.879552 -0.417684
C87   C     C_3   0.115890 0.245803 0.878185 -0.396989
C88   C     C_3   0.608112 0.054068 0.633970 -0.405807
C89   C     C_3   0.617556 0.951984 0.641620 -0.403302
C90   C     C_3   0.114714 0.551910 0.639332 -0.403426
C91   C     C_3   0.115761 0.449708 0.640305 -0.404651
C92   C     C_R   0.549074 0.045695 0.304204 -0.149520
C93   C     C_R   0.549014 0.954907 0.304805 -0.149343
C94   C     C_R   0.044497 0.545855 0.302100 -0.146332
C95   C     C_R   0.153164 0.349749 0.092511 0.209820
C96   C     C_R   0.046182 0.454833 0.303462 -0.147281
C97   C     C_3   0.614517 0.053751 0.536221 -0.407598
C98   C     C_3   0.622591 0.951428 0.542748 -0.406163
C99   C     C_3   0.117366 0.551850 0.538676 -0.404901
C100  C     C_3   0.117164 0.449416 0.538796 -0.403640
C101  C     C_3   0.457319 0.997977 0.521552 -0.396873
C102  C     C_3   0.959357 0.499787 0.527709 -0.391475
C103  C     C_3   0.557695 0.001308 0.632093 0.406473
C104  C     C_3   0.061230 0.500442 0.636651 0.403232
C105  C     C_3   0.567945 0.000947 0.466703 0.404982
C106  C     C_R   0.580388 0.858964 0.908560 -0.182182
C107  C     C_3   0.065345 0.500505 0.466411 0.403184
C108  C     C_3   0.463361 0.998048 0.424703 -0.396643
C109  C     C_3   0.961891 0.500202 0.428226 -0.399743
C110  C     C_R   0.238964 0.954355 0.697665 -0.145805
C111  C     C_R   0.239226 0.045502 0.697912 -0.145446
C112  C     C_R   0.727563 0.455109 0.735655 -0.142422
C113  C     C_R   0.730233 0.546803 0.743995 -0.136760
C114  C     C_R   0.313989 0.140073 0.996621 -0.005599
C115  C     C_R   0.310645 0.863066 0.996348 -0.009715
C116  C     C_R   0.883129 0.682965 0.997354 0.000917
H1    H     H_    0.254013 0.131809 0.819484 0.090765
H2    H     H_    0.940273 0.080944 0.543424 0.104256
H3    H     H_    0.511193 0.913787 0.718764 0.082839
H4    H     H_    0.025820 0.588194 0.737518 0.090568
H5    H     H_    0.025512 0.412289 0.737230 0.090704
H6    H     H_    0.776567 0.912589 0.330852 0.135471
H7    H     H_    0.770150 0.084672 0.341049 0.123537
H8    H     H_    0.272025 0.412220 0.332244 0.128076
H9    H     H_    0.266928 0.584300 0.343155 0.125222
H10   H     H_    0.542483 0.845616 0.824166 0.100380
H11   H     H_    0.509240 0.165155 0.823546 0.107389
H12   H     H_    0.013646 0.335297 0.823821 0.104585
H13   H     H_    0.437030 0.405807 0.489269 0.103426
H14   H     H_    0.011253 0.664854 0.823489 0.104768
H15   H     H_    0.939188 0.918338 0.542747 0.105867
H16   H     H_    0.387799 0.536835 0.606230 0.102241
H17   H     H_    0.666763 0.153383 0.239453 0.157905
H18   H     H_    0.824522 0.174085 0.360126 0.249619
H19   H     H_    0.824995 0.209103 0.257257 0.260651
H20   H     H_    0.826688 0.135614 0.258813 0.263776
H21   H     H_    0.773872 0.808160 0.224327 0.150704
H22   H     H_    0.705855 0.801425 0.318151 0.244151
H23   H     H_    0.610088 0.787099 0.175757 0.256187
H24   H     H_    0.458891 0.555543 0.399310 0.112598
H25   H     H_    0.622845 0.854055 0.234617 0.263231
H26   H     H_    0.168541 0.654289 0.239140 0.157922
H27   H     H_    0.327114 0.672164 0.359984 0.251198
H28   H     H_    0.329115 0.706697 0.257715 0.259981
H29   H     H_    0.327404 0.633098 0.258015 0.262104
H30   H     H_    0.265328 0.309761 0.232983 0.142324
H31   H     H_    0.199266 0.303561 0.330481 0.245120
H32   H     H_    0.103135 0.282345 0.192480 0.253587
H33   H     H_    0.109237 0.351517 0.238704 0.264372
H34   H     H_    0.055451 0.081179 0.465162 0.107922
H35   H     H_    0.578079 0.464165 0.491916 0.109094
H36   H     H_    0.300127 0.831279 0.164841 0.149232
H37   H     H_    0.289151 0.164411 0.156094 0.147339
H38   H     H_    0.811810 0.320833 0.169361 0.153479
H39   H     H_    0.803950 0.677529 0.102257 0.154353
H40   H     H_    0.192482 0.865708 0.062534 0.155853
H41   H     H_    0.252303 0.869546 0.819687 0.090690
H42   H     H_    0.181143 0.135040 0.040398 0.154773
H43   H     H_    0.712076 0.363839 0.077933 0.156101
H44   H     H_    0.714208 0.668650 0.957087 0.159571
H45   H     H_    0.105233 0.792746 0.052212 0.145172
H46   H     H_    0.097473 0.208275 0.035066 0.153640
H47   H     H_    0.607690 0.296731 0.048080 0.150738
H48   H     H_    0.625839 0.731226 0.967389 0.156797
H49   H     H_    0.706284 0.264077 0.161882 0.186644
H50   H     H_    0.718125 0.741237 0.110024 0.162449
H51   H     H_    0.212149 0.763983 0.163198 0.186565
H52   H     H_    0.813006 0.664031 0.821164 0.084361
H53   H     H_    0.204718 0.233092 0.155724 0.166448
H54   H     H_    0.882184 0.261797 0.095111 0.157329
H55   H     H_    0.931890 0.752357 0.167750 0.150708
H56   H     H_    0.380317 0.769241 0.106496 0.156417
H57   H     H_    0.387400 0.229574 0.123203 0.148149
H58   H     H_    0.801279 0.192272 0.098918 0.173093
H59   H     H_    0.851782 0.825408 0.162089 0.137983
H60   H     H_    0.303260 0.694039 0.097383 0.171017
H61   H     H_    0.311511 0.301678 0.124196 0.140146
H62   H     H_    0.165908 0.804314 0.813279 0.145353
H63   H     H_    0.768534 0.352847 0.823402 0.079341
H64   H     H_    0.186778 0.206295 0.819524 0.147434
H65   H     H_    0.659982 0.306389 0.810497 0.142953
H66   H     H_    0.809569 0.775919 0.862145 0.153641
H67   H     H_    0.428350 0.868229 0.175496 0.090056
H68   H     H_    0.430289 0.133668 0.175926 0.088080
H69   H     H_    0.931052 0.365103 0.175850 0.091497
H70   H     H_    0.983874 0.665000 0.176064 0.084056
H71   H     H_    0.112150 0.848580 0.856870 0.152399
H72   H     H_    0.119964 0.160190 0.843188 0.152764
H73   H     H_    0.616024 0.348408 0.868304 0.154208
H74   H     H_    0.054330 0.918581 0.464364 0.104834
H75   H     H_    0.719016 0.724625 0.813478 0.147391
H76   H     H_    0.032534 0.773599 0.857064 0.150493
H77   H     H_    0.041948 0.234116 0.844803 0.148839
H78   H     H_    0.531771 0.272700 0.855671 0.150570
H79   H     H_    0.624162 0.779785 0.819322 0.147717
H80   H     H_    0.592195 0.231893 0.815991 0.151690
H81   H     H_    0.704665 0.835356 0.852302 0.151913
H82   H     H_    0.090971 0.732569 0.815147 0.147749
H83   H     H_    0.112844 0.277355 0.822775 0.147898
H84   H     H_    0.819099 0.252881 0.948821 0.157351
H85   H     H_    0.060539 0.999648 0.699269 0.110769
H86   H     H_    0.941357 0.787361 0.069341 0.149566
H87   H     H_    0.329758 0.760127 0.963024 0.157329
H88   H     H_    0.345646 0.245060 0.984505 0.154486
H89   H     H_    0.740218 0.182644 0.955078 0.152168
H90   H     H_    0.839573 0.853473 0.046032 0.157281
H91   H     H_    0.244516 0.688693 0.953182 0.153435
H92   H     H_    0.267196 0.317336 0.985355 0.157211
H93   H     H_    0.568370 0.090999 0.626554 0.144016
H94   H     H_    0.586282 0.912646 0.642225 0.143733
H95   H     H_    0.079122 0.589857 0.636496 0.143790
H96   H     H_    0.513284 0.445547 0.704714 0.104430
H97   H     H_    0.081718 0.411238 0.639489 0.144024
H98   H     H_    0.680228 0.057133 0.713102 0.152398
H99   H     H_    0.690183 0.954582 0.720094 0.151995
H100  H     H_    0.188031 0.552816 0.716904 0.152449
H101  H     H_    0.189413 0.450143 0.717314 0.153085
H102  H     H_    0.689842 0.056427 0.566811 0.151970
H103  H     H_    0.697743 0.952785 0.572398 0.152771
H104  H     H_    0.192020 0.552558 0.566461 0.149640
H105  H     H_    0.191512 0.448723 0.565576 0.153295
H106  H     H_    0.577838 0.090681 0.486038 0.144463
H107  H     H_    0.533246 0.595030 0.613699 0.102541
H108  H     H_    0.591363 0.912396 0.497583 0.146376
H109  H     H_    0.082960 0.589792 0.491255 0.144354
H110  H     H_    0.081803 0.411342 0.491713 0.146380
H111  H     H_    0.413798 0.033184 0.513652 0.154548
H112  H     H_    0.420174 0.960160 0.518122 0.153347
H113  H     H_    0.919121 0.535921 0.523518 0.153786
H114  H     H_    0.920221 0.462817 0.523705 0.153859
H115  H     H_    0.562185 0.087915 0.329438 0.079490
H116  H     H_    0.561349 0.912865 0.330949 0.083945
H117  H     H_    0.054528 0.588230 0.326126 0.082283
H118  H     H_    0.934772 0.999878 0.309044 0.111181
H119  H     H_    0.059036 0.412862 0.329927 0.084139
H120  H     H_    0.423378 0.033534 0.370508 0.154748
H121  H     H_    0.428702 0.960445 0.374612 0.153515
H122  H     H_    0.923943 0.536840 0.377022 0.155224
H123  H     H_    0.923511 0.463662 0.376121 0.154021
H124  H     H_    0.220887 0.912529 0.670012 0.087396
H125  H     H_    0.221518 0.087309 0.670668 0.087886
H126  H     H_    0.700521 0.414701 0.704818 0.091617
H127  H     H_    0.708859 0.588989 0.729611 0.091579
H128  H     H_    0.522809 0.088764 0.735038 0.090853
N1    N     N_R   0.392450 0.103580 0.942190 -0.034065
N2    N     N_R   0.525490 0.971610 0.207550 -0.030665
N3    N     N_R   0.025490 0.528390 0.207550 -0.033428
N4    N     N_R   0.025490 0.471610 0.207550 -0.032010
N5    N     N_R   0.317450 0.971190 0.792000 -0.035459
N6    N     N_R   0.317450 0.028810 0.792000 -0.034730
N7    N     N_R   0.817450 0.471190 0.792000 -0.038853
N8    N     N_R   0.817450 0.528810 0.792000 -0.039905
N9    N     N_R   0.473900 0.028390 0.792280 -0.033921
N10   N     N_R   0.473900 0.971610 0.792280 -0.034430
N11   N     N_R   0.973900 0.528390 0.792280 -0.036900
N12   N     N_R   0.392450 0.896420 0.942190 -0.036006
N13   N     N_R   0.973900 0.471610 0.792280 -0.037778
N14   N     N_R   0.682310 0.971180 0.208170 -0.037568
N15   N     N_R   0.682310 0.028820 0.208170 -0.040183
N16   N     N_R   0.182310 0.471180 0.208170 -0.036316
N17   N     N_R   0.182310 0.528820 0.208170 -0.039511
N18   N     N_R   0.606470 0.103570 0.057210 -0.069469
N19   N     N_R   0.606470 0.896430 0.057210 -0.048590
N20   N     N_R   0.106470 0.603570 0.057210 -0.067183
N21   N     N_R   0.106470 0.396430 0.057210 -0.052297
N22   N     N_R   0.549740 0.896000 0.943240 -0.044601
N23   N     N_R   0.892450 0.603580 0.942190 -0.030566
N24   N     N_R   0.549740 0.104000 0.943240 -0.043459
N25   N     N_R   0.049740 0.396000 0.943240 -0.045130
N26   N     N_R   0.049740 0.604000 0.943240 -0.041583
N27   N     N_2   0.694527 0.170983 0.201860 -0.119242
N28   N     N_2   0.721178 0.835527 0.201167 -0.127696
N29   N     N_2   0.197142 0.670837 0.201665 -0.119317
N30   N     N_2   0.206561 0.333091 0.204503 -0.125551
N31   N     N_R   0.892450 0.396420 0.942190 -0.031649
N32   N     N_R   0.450490 0.896000 0.057360 -0.037164
N33   N     N_R   0.450490 0.104000 0.057360 -0.042312
N34   N     N_R   0.950490 0.396000 0.057360 -0.034394
N35   N     N_R   0.950490 0.604000 0.057360 -0.036141
N36   N     N_R   0.525490 0.028390 0.207550 -0.030770
Ni1   Ni    Ni4+2 0.433780 0.065390 0.868430 0.201193
Ni2   Ni    Ni4+2 0.433780 0.934610 0.868430 0.204111
Ni3   Ni    Ni4+2 0.933780 0.565390 0.868430 0.200699
Ni4   Ni    Ni4+2 0.933780 0.434610 0.868430 0.202416
Ni5   Ni    Ni4+2 0.565800 0.934190 0.131570 0.208553
Ni6   Ni    Ni4+2 0.565800 0.065810 0.131570 0.195141
Ni7   Ni    Ni4+2 0.065800 0.434190 0.131570 0.212510
Ni8   Ni    Ni4+2 0.065800 0.565810 0.131570 0.197173

loop_
_geom_bond_atom_site_label_1
_geom_bond_atom_site_label_2
_ccdc_geom_bond_type
C55   H38   S    
N11   N13   A    
C63   H86   S    
C58   H48   S    
C69   H75   S    
C90   H100  S    
C113  N8    A    
C14   N15   A    
H17   N27   S    
C8    H128  S    
C3    C48   A    
C33   C36   S    
C20   H33   S    
C32   H85   S    
C49   H70   S    
C113  H127  S    
N13   Ni4   S    
C41   H2    S    
C94   N3    A    
C88   C97   S    
C81   H91   S    
C97   C105  S    
C112  H126  S    
C101  C103  S    
N9    Ni1   S    
C21   N26   A    
N32   Ni5   S    
C109  H123  S    
C110  N5    A    
N5    Ni2   S    
C10   N11   A    
C81   H60   S    
C13   C30   A    
C85   H79   S    
C68   H73   S    
C44   H34   S    
C45   H35   S    
C42   C45   S    
C91   H101  S    
C78   C82   S    
C68   C72   S    
C2    N24   A    
C69   C74   S    
C2    C26   A    
C90   C104  S    
C86   H82   S    
C21   C28   A    
C55   C57   S    
C31   C50   S    
C59   H51   S    
C5    C107  S    
C44   C50   S    
C16   C25   A    
C68   C83   S    
H30   N30   S    
C63   C74   S    
C70   C115  S    
C86   H76   S    
C45   C52   S    
N24   Ni1   S    
C101  H111  S    
C3    C72   S    
C38   C43   S    
C91   H97   S    
C1    N1    A    
C65   C82   S    
C66   C70   S    
C100  H105  S    
C11   C23   A    
C40   N23   A    
C99   H104  S    
N11   Ni3   S    
C102  H114  S    
C97   H102  S    
N12   N32   A    
C102  C109  S    
C27   C73   A    
C75   C79   S    
C76   C85   S    
C47   N33   A    
C78   C87   S    
C47   C114  A    
C80   H90   S    
N19   Ni5   S    
C6    C111  A    
C17   N27   S    
C84   N29   S    
C18   N28   S    
C58   C76   S    
C33   C52   S    
C31   H74   S    
C60   C78   S    
N5    N6    A    
C95   N30   S    
C46   C115  A    
C60   H53   S    
C11   N13   A    
C7    C52   S    
C67   H64   S    
C36   H16   S    
C90   H95   S    
C110  H124  S    
C15   C25   A    
C7    C112  A    
C14   C24   A    
C98   H108  S    
C17   H19   S    
C60   H46   S    
C32   C41   S    
C20   H32   S    
C16   H9    S    
C2    H11   S    
N22   Ni2   S    
C29   C115  A    
C111  H125  S    
C89   C103  S    
C51   H63   S    
C26   C75   S    
C63   C80   S    
C15   H8    S    
N20   Ni8   S    
N31   N34   A    
C87   H77   S    
N8    Ni3   S    
C27   C106  A    
C79   H89   S    
C22   C103  S    
C92   N36   A    
N15   Ni6   S    
C13   N25   A    
C25   C38   S    
C53   H36   S    
C57   H47   S    
C24   C37   S    
C43   H24   S    
C1    H1    S    
C6    C50   S    
C100  H110  S    
C28   C77   S    
C43   C45   S    
H26   N29   S    
C16   N17   A    
N10   Ni2   S    
N18   Ni6   S    
N1    Ni1   S    
C91   C100  S    
N6    Ni1   S    
C90   C99   S    
C69   C85   S    
C34   H107  S    
C112  N7    A    
N20   N26   A    
C18   H25   S    
C84   N20   A    
C34   C43   S    
C76   C80   S    
C80   H59   S    
N3    Ni8   S    
C66   C86   S    
N4    Ni7   S    
C39   C44   S    
C12   C24   A    
C51   N31   A    
C89   C98   S    
C57   C75   S    
N14   N15   A    
C48   H69   S    
C61   C79   S    
C96   H119  S    
C56   C58   S    
C42   H13   S    
C34   C36   S    
C37   C41   S    
C58   H50   S    
N36   Ni6   S    
C64   C81   S    
N21   Ni7   S    
C4    C93   A    
N1    N33   A    
C66   H71   S    
C15   N16   A    
C73   N19   A    
C108  H120  S    
C19   H28   S    
C28   C84   A    
C87   H83   S    
C5    C94   A    
N7    N8    A    
C109  H122  S    
C111  N6    A    
N14   Ni5   S    
C33   H96   S    
C95   N21   A    
C57   H49   S    
C49   N35   A    
C8    N9    A    
C97   H106  S    
C18   H22   S    
N21   N25   A    
C54   C71   S    
C62   N27   S    
C108  H121  S    
C101  C108  S    
C55   H43   S    
C98   H103  S    
C107  C109  S    
C79   H58   S    
C59   C77   S    
C53   C70   S    
C82   H92   S    
C68   H65   S    
C106  N22   A    
C56   C74   S    
N34   Ni7   S    
C3    C51   A    
N16   N17   A    
C29   H41   S    
C92   H115  S    
C71   C114  S    
C64   H56   S    
C30   C95   A    
C59   H45   S    
C63   H55   S    
C23   C104  S    
C77   C81   S    
N2    N36   A    
C99   H109  S    
C61   C72   S    
C85   H81   S    
C64   H87   S    
C88   H93   S    
C41   C44   S    
C31   C35   S    
C1    C114  A    
C33   C42   S    
C27   C76   S    
C35   H15   S    
C5    C96   A    
C67   H72   S    
N33   Ni6   S    
C47   H68   S    
C73   N28   S    
C39   H118  S    
C94   H117  S    
C99   C107  S    
C106  H10   S    
C34   C52   S    
N12   Ni2   S    
C36   C38   S    
C37   C39   S    
C75   C83   S    
N9    N10   A    
C65   H88   S    
C82   H61   S    
N23   N35   A    
C67   C71   S    
C10   H4    S    
C93   N2    A    
C49   C116  A    
C12   H6    S    
C17   H18   S    
C61   H54   S    
C96   N4    A    
C4    C92   A    
N19   N22   A    
C54   C60   S    
C9    N10   A    
C91   C104  S    
C62   N18   A    
C54   H37   S    
C53   C59   S    
C40   C116  A    
C66   H62   S    
C19   H29   S    
C98   C105  S    
C88   H98   S    
C101  H112  S    
C35   C37   S    
C38   C42   S    
N18   N24   A    
C9    C22   A    
C29   N12   A    
C83   H80   S    
C13   H12   S    
C102  H113  S    
N25   Ni4   S    
N23   Ni3   S    
N26   Ni3   S    
C55   C72   S    
C69   H66   S    
C89   H99   S    
N17   Ni8   S    
C6    C110  A    
C11   H5    S    
C12   N14   A    
C56   H39   S    
C61   H84   S    
H21   N28   S    
C105  C108  S    
C32   C35   S    
C65   C71   S    
C46   N32   A    
C46   H67   S    
C54   H42   S    
C8    C22   A    
C74   C116  S    
C17   H20   S    
C20   H31   S    
C102  C104  S    
N31   Ni4   S    
C32   C50   S    
C77   C86   S    
C64   C70   S    
C9    H3    S    
C88   C103  S    
C93   H116  S    
C100  C107  S    
C19   H27   S    
C14   H7    S    
C65   H57   S    
N3    N4    A    
C89   H94   S    
C48   N34   A    
C10   C23   A    
C4    C105  S    
C67   C87   S    
N35   Ni8   S    
C7    C113  A    
C83   H78   S    
C26   C62   A    
C56   H44   S    
C19   N29   S    
C31   C39   S    
N7    Ni4   S    
C18   H23   S    
C20   N30   S    
C21   H14   S    
C40   H52   S    
N16   Ni7   S    
C30   C78   S    
C53   H40   S    
N2    Ni5   S    
