data_mof_unit_15608.cif
_audit_creation_date              2012-12-10T16:59:17-0500
_audit_creation_method            fapswitch 2.2
_symmetry_space_group_name_H-M    P1
_symmetry_Int_Tables_number       1
_space_group_crystal_system       triclinic
_cell_length_a                    7.728934
_cell_length_b                    8.557572
_cell_length_c                    27.653203
_cell_angle_alpha                 90.740965
_cell_angle_beta                  86.066849
_cell_angle_gamma                 93.925092
_cell_volume                      1820.35787486

loop_
_atom_site_label
_atom_site_type_symbol
_atom_type_description
_atom_site_fract_x
_atom_site_fract_y
_atom_site_fract_z
_atom_type_partial_charge
C1    C     C_R   0.546125 0.794945 0.498717 0.970578
C2    C     C_R   0.453875 0.205055 0.501283 0.970586
C3    C     C_R   0.555831 0.489896 0.897993 -0.092111
C4    C     C_R   0.443772 0.510304 0.102019 -0.092101
C5    C     C_R   0.614828 0.626682 0.871882 -0.097524
C6    C     C_R   0.384783 0.373510 0.128127 -0.097522
C7    C     C_R   0.670403 0.762103 0.897671 0.325215
C8    C     C_R   0.329139 0.238113 0.102337 0.325236
C9    C     C_R   0.520311 0.348490 0.872752 -0.014371
C10   C     C_R   0.479370 0.651688 0.127264 -0.014373
C11   C     C_R   0.510151 0.492481 0.647006 -0.177826
C12   C     C_R   0.489822 0.507503 0.352993 -0.177839
C13   C     C_R   0.532173 0.643699 0.025312 0.075109
C14   C     C_R   0.467357 0.356527 0.974699 0.075121
C15   C     C_R   0.431802 0.363689 0.025609 0.002718
C16   C     C_R   0.567704 0.636544 0.974400 0.002735
C17   C     C_R   0.468909 0.505907 0.050779 0.085383
C18   C     C_R   0.530630 0.494316 0.949231 0.085381
C19   C     C_R   0.554341 0.785387 0.051751 -0.207697
C20   C     C_R   0.445234 0.214826 0.948265 -0.207724
C21   C     C_R   0.530431 0.788530 0.101783 -0.057325
C22   C     C_R   0.469221 0.211659 0.898234 -0.057343
C23   C     C_R   0.501975 0.496774 0.594124 0.930641
C24   C     C_R   0.498021 0.503215 0.405875 0.930640
C25   C     C_R   0.646140 0.765730 0.947899 -0.268638
C26   C     C_R   0.353340 0.234511 0.052107 -0.268635
C27   C     C_2   0.570401 0.958547 0.497970 -0.346957
C28   C     C_2   0.429599 0.041453 0.502030 -0.346946
C29   C     C_R   0.611424 0.622314 0.821040 0.592875
C30   C     C_R   0.388270 0.377845 0.178967 0.592915
C31   C     C_R   0.532693 0.347838 0.822220 0.616500
C32   C     C_R   0.467100 0.652304 0.177795 0.616494
C33   C     C_R   0.379392 0.461629 0.729269 0.293824
C34   C     C_R   0.620506 0.538335 0.270720 0.293858
C35   C     C_R   0.361405 0.458976 0.679082 0.224701
C36   C     C_R   0.638555 0.540929 0.320905 0.224733
C37   C     C_R   0.673727 0.521537 0.665741 -0.211556
C38   C     C_R   0.326211 0.478551 0.334270 -0.211559
C39   C     C_R   0.691544 0.516314 0.715101 -0.058098
C40   C     C_R   0.308340 0.483826 0.284914 -0.058108
C41   C     C_R   0.545686 0.486806 0.746906 0.154461
C42   C     C_R   0.454175 0.513278 0.253098 0.154456
H1    H     H_    0.789171 0.548526 0.642102 0.212520
H2    H     H_    0.210776 0.451610 0.357917 0.212585
H3    H     H_    0.014217 0.383556 0.463395 0.200373
H4    H     H_    0.985783 0.616444 0.536605 0.200366
H5    H     H_    0.818995 0.537226 0.728861 0.219189
H6    H     H_    0.180862 0.462997 0.271166 0.219255
H7    H     H_    0.554932 0.899040 0.120491 0.214690
H8    H     H_    0.444761 0.101138 0.879530 0.214694
H9    H     H_    0.588758 0.897092 0.034968 0.145660
H10   H     H_    0.410817 0.103127 0.965051 0.145658
H11   H     H_    0.695109 0.871359 0.965288 0.171621
H12   H     H_    0.304319 0.128906 0.034715 0.171642
H13   H     H_    0.703150 0.010180 0.494093 0.185984
H14   H     H_    0.296850 0.989820 0.505907 0.185983
N1    N     N_R   0.566742 0.485092 0.797803 -0.350571
N2    N     N_R   0.433051 0.515038 0.202206 -0.350567
N3    N     N_2   0.950320 0.457960 0.486880 -0.155113
N4    N     N_2   0.049680 0.542040 0.513120 -0.155115
O1    O     O_R   0.389250 0.738570 0.503220 -0.614814
O2    O     O_R   0.610750 0.261430 0.496780 -0.614812
O3    O     O_R   0.678390 0.711630 0.494810 -0.623502
O4    O     O_R   0.321610 0.288370 0.505190 -0.623489
O5    O     O_R   0.355440 0.513440 0.575450 -0.572913
O6    O     O_R   0.644560 0.486560 0.424550 -0.572887
O7    O     O_R   0.644590 0.486500 0.567040 -0.633326
O8    O     O_R   0.355410 0.513500 0.432960 -0.633352
O9    O     O_2   0.644170 0.754119 0.794895 -0.456262
O10   O     O_2   0.355506 0.246032 0.205107 -0.456269
O11   O     O_2   0.494843 0.787771 0.202543 -0.468773
O12   O     O_2   0.505054 0.212346 0.797477 -0.468720
Zn1   Zn    Zn3+2 0.306940 0.517990 0.505620 0.997698
Zn2   Zn    Zn3+2 0.693060 0.482010 0.494380 0.997708
Br1   Br    Br    0.795603 0.943473 0.868431 -0.378341
Br2   Br    Br    0.203972 0.056728 0.131577 -0.378332
Br3   Br    Br    0.864574 0.601118 0.343685 -0.441163
Br4   Br    Br    0.135453 0.398613 0.656285 -0.440976
Br5   Br    Br    0.822745 0.562857 0.225726 -0.393122
Br6   Br    Br    0.177104 0.437042 0.774245 -0.393112

loop_
_geom_bond_atom_site_label_1
_geom_bond_atom_site_label_2
_ccdc_geom_bond_type
C8    C26   A    
C14   C18   A    
C34   C42   A    
C32   N2    A    
C42   N2    S    
C21   H7    S    
C28   H14   S    
C39   C41   A    
C19   C21   A    
C25   H11   S    
C36   Br3   S    
C27   H13   S    
C9    C22   A    
O6    Zn2   S    
C26   H12   S    
N4    Zn1   S    
C8    Br2   S    
O5    Zn1   S    
C3    C18   A    
C40   H6    S    
C23   O7    A    
C11   C37   A    
O4    Zn1   S    
C12   C36   A    
C5    C29   A    
C24   O6    A    
C22   H8    S    
C40   C42   A    
N3    N4    D    
C1    O3    A    
C30   O10   S    
C2    O4    A    
C32   O11   S    
C29   O9    S    
C10   C21   A    
C13   C19   A    
C14   C20   A    
C4    C6    A    
C5    C7    A    
C9    C31   A    
C15   C26   A    
C7    Br1   S    
O1    Zn1   S    
O8    Zn1   S    
C37   H1    S    
C38   H2    S    
C3    C9    A    
C10   C32   A    
C34   Br5   S    
O7    Zn2   S    
N3    Zn2   S    
C4    C17   A    
C16   C18   A    
C31   O12   S    
C6    C30   A    
C20   C22   A    
C4    C10   A    
C39   H5    S    
C16   C25   A    
C15   C17   A    
H3    N3    S    
H4    N4    S    
C29   N1    A    
C3    C5    A    
C1    O1    A    
C6    C8    A    
C33   Br6   S    
O3    Zn2   S    
C12   C24   S    
C35   Br4   S    
C7    C25   A    
C13   C17   A    
C33   C41   A    
C31   N1    A    
C11   C35   A    
C41   N1    S    
C20   H10   S    
C38   C40   A    
C23   O5    A    
C30   N2    A    
C11   C23   S    
C33   C35   A    
C34   C36   A    
C12   C38   A    
C24   O8    A    
C19   H9    S    
C37   C39   A    
C13   C16   A    
C27   C28   D    
C1    C27   S    
C14   C15   A    
O2    Zn2   S    
C2    C28   S    
C2    O2    A    
