data_mof_unit_25663.cif
_audit_creation_date              2012-12-10T18:06:41-0500
_audit_creation_method            fapswitch 2.2
_symmetry_space_group_name_H-M    P1
_symmetry_Int_Tables_number       1
_space_group_crystal_system       triclinic
_cell_length_a                    12.606753
_cell_length_b                    13.114235
_cell_length_c                    15.258348
_cell_angle_alpha                 83.241125
_cell_angle_beta                  98.927842
_cell_angle_gamma                 97.922244
_cell_volume                      2456.29992064

loop_
_atom_site_label
_atom_site_type_symbol
_atom_type_description
_atom_site_fract_x
_atom_site_fract_y
_atom_site_fract_z
_atom_type_partial_charge
C1    C     C_R   0.442488 0.307937 0.509134 0.874970
C2    C     C_R   0.478928 0.575449 0.099167 -0.030965
C3    C     C_R   0.399650 0.642333 0.066528 0.012187
C4    C     C_R   0.559847 0.566864 0.047073 0.033283
C5    C     C_R   0.543068 0.600537 0.955411 -0.110958
C6    C     C_R   0.468749 0.673851 0.924454 0.360658
C7    C     C_R   0.397683 0.693352 0.980724 -0.213028
C8    C     C_R   0.658488 0.528587 0.083646 -0.114248
C9    C     C_R   0.728239 0.505830 0.028418 -0.238792
C10   C     C_R   0.696099 0.512656 0.936501 0.157297
C11   C     C_R   0.600278 0.556488 0.899854 0.105665
C12   C     C_R   0.436142 0.514432 0.335340 0.878438
C13   C     C_R   0.754397 0.470994 0.881246 -0.154337
C14   C     C_R   0.712841 0.464103 0.791747 -0.138453
C15   C     C_R   0.555871 0.541335 0.812117 -0.122755
C16   C     C_R   0.615478 0.940098 0.351279 -0.187029
C17   C     C_R   0.582003 0.801836 0.466410 -0.075187
C18   C     C_R   0.352139 0.156245 0.591380 -0.198673
C19   C     C_R   0.335014 0.050440 0.614842 0.394028
C20   C     C_R   0.385390 0.984445 0.573885 -0.253915
C21   C     C_R   0.448498 0.024270 0.505401 0.021508
C22   C     C_R   0.448569 0.129265 0.471955 0.092437
C23   C     C_R   0.556451 0.691804 0.488715 0.860815
C24   C     C_R   0.511492 0.963498 0.468723 0.113283
C25   C     C_R   0.555869 0.001644 0.389517 0.180635
C26   C     C_R   0.538605 0.099932 0.349009 -0.272912
C27   C     C_R   0.488849 0.164570 0.391153 -0.175080
C28   C     C_R   0.532317 0.865996 0.509123 -0.216706
C29   C     C_R   0.627125 0.839468 0.388990 -0.171600
C30   C     C_R   0.408914 0.196583 0.520728 -0.150284
C31   C     C_R   0.143278 0.678851 0.586832 -0.172496
C32   C     C_R   0.759449 0.380822 0.394570 -0.117533
C33   C     C_R   0.857719 0.359709 0.371073 0.498049
C34   C     C_R   0.565538 0.489304 0.664267 0.879617
C35   C     C_R   0.953426 0.408555 0.413876 -0.145408
C36   C     C_R   0.952446 0.476458 0.478396 -0.037066
C37   C     C_R   0.853061 0.499748 0.495261 0.166973
C38   C     C_R   0.048140 0.526415 0.522312 -0.135113
C39   C     C_R   0.045418 0.617116 0.563256 -0.017666
C40   C     C_R   0.945370 0.640542 0.580611 0.352997
C41   C     C_R   0.851283 0.577205 0.550944 -0.275715
C42   C     C_R   0.146742 0.486375 0.530431 0.487507
C43   C     C_R   0.239051 0.647146 0.571741 -0.039083
C44   C     C_R   0.407407 0.543170 0.239815 -0.161669
C45   C     C_R   0.611366 0.496160 0.757731 -0.082951
C46   C     C_R   0.325708 0.659745 0.121420 -0.150098
C47   C     C_R   0.332298 0.613382 0.208895 -0.264631
C48   C     C_R   0.471504 0.515638 0.181303 0.480507
H1    H     H_    0.340995 0.749137 0.957582 0.211508
H2    H     H_    0.829686 0.440364 0.907875 0.155062
H3    H     H_    0.664395 0.789202 0.354620 0.158678
H4    H     H_    0.565975 0.127576 0.285773 0.130893
H5    H     H_    0.648911 0.968228 0.290402 0.140032
H6    H     H_    0.505062 0.835156 0.571734 0.184883
H7    H     H_    0.324219 0.206815 0.630778 0.235752
H8    H     H_    0.372018 0.902803 0.594738 0.184269
H9    H     H_    0.480330 0.241798 0.359309 0.163339
H10   H     H_    0.313759 0.697453 0.584799 0.193227
H11   H     H_    0.475743 0.561056 0.786835 0.207063
H12   H     H_    0.146581 0.752205 0.613244 0.250692
H13   H     H_    0.682185 0.346861 0.362842 0.168798
H14   H     H_    0.028829 0.395856 0.393789 0.186567
H15   H     H_    0.777596 0.591637 0.570098 0.234644
H16   H     H_    0.758318 0.430656 0.750093 0.177994
H17   H     H_    0.802587 0.475027 0.057883 0.165571
H18   H     H_    0.266457 0.712965 0.098153 0.168442
H19   H     H_    0.281469 0.635064 0.252977 0.184638
H20   H     H_    0.683707 0.518147 0.154812 0.197619
N1    N     N_R   0.239390 0.551900 0.544730 -0.142382
N2    N     N_R   0.759950 0.448600 0.455730 -0.135796
O1    O     O_R   0.374950 0.371210 0.521360 -0.514738
O2    O     O_R   0.542050 0.338030 0.492790 -0.614994
O3    O     O_R   0.368720 0.526070 0.390200 -0.623692
O4    O     O_R   0.535820 0.492890 0.361630 -0.572278
O5    O     O_R   0.457950 0.661970 0.507210 -0.621859
O6    O     O_R   0.625050 0.628790 0.478640 -0.640085
O7    O     O_R   0.464180 0.507110 0.638370 -0.567052
O8    O     O_R   0.631280 0.473930 0.609800 -0.627557
Zn1   Zn    Zn3+2 0.388420 0.522150 0.519080 1.028143
Zn2   Zn    Zn3+2 0.611580 0.477850 0.480920 0.956535
S1    S     S_3+6 0.254509 0.003432 0.699049 0.107981
O9    O     O_2   0.141262 0.028513 0.667472 -0.164829
O10   O     O_2   0.252310 0.888504 0.720366 -0.217670
O11   O     O_3   0.302968 0.062719 0.791493 -0.514787
H21   H     H_    0.381699 0.057831 0.801016 0.363947
S2    S     S_3+6 0.934890 0.743430 0.643302 0.062492
O12   O     O_2   0.009199 0.734030 0.730198 -0.205581
O13   O     O_2   0.968072 0.844845 0.591981 -0.259364
O14   O     O_3   0.807645 0.741134 0.665032 -0.516682
H22   H     H_    0.768593 0.775286 0.610524 0.359102
S3    S     S_3+6 0.148950 0.354673 0.570427 0.050592
O15   O     O_2   0.042335 0.309456 0.599882 -0.285635
O16   O     O_2   0.171051 0.293407 0.499458 -0.292097
O17   O     O_3   0.246344 0.349961 0.659216 -0.561341
H23   H     H_    0.213054 0.304486 0.706739 0.389909
O18   O     O_3   0.866742 0.299939 0.303519 -0.592255
C49   C     C_3   0.778048 0.223349 0.288303 -0.291868
H24   H     H_    0.707748 0.258232 0.249257 0.162055
H25   H     H_    0.757748 0.179585 0.351792 0.179706
H26   H     H_    0.800188 0.167049 0.247476 0.203159
O19   O     O_3   0.526183 0.429702 0.205255 -0.633547
C50   C     C_3   0.461774 0.344221 0.168477 -0.333898
H27   H     H_    0.444983 0.357179 0.094453 0.187102
H28   H     H_    0.384736 0.325822 0.197377 0.171086
H29   H     H_    0.506582 0.275929 0.185078 0.182223
S4    S     S_3+6 0.477303 0.759821 0.826015 0.018037
O20   O     O_2   0.389234 0.723965 0.754218 -0.290890
O21   O     O_2   0.461234 0.866455 0.844085 -0.277106
O22   O     O_3   0.597932 0.765906 0.790269 -0.523049
H30   H     H_    0.651615 0.791499 0.839839 0.372792

loop_
_geom_bond_atom_site_label_1
_geom_bond_atom_site_label_2
_ccdc_geom_bond_type
O19   C50   S    
C12   O4    A    
C17   C29   A    
C35   C36   A    
C23   O6    A    
C4    C8    A    
S1    O11   S    
O1    Zn1   S    
C49   H24   S    
C26   C27   A    
C17   C23   S    
C31   C43   A    
C36   C37   A    
C32   H13   S    
C5    C11   A    
C3    C7    A    
C34   O7    A    
C5    C6    A    
S2    O13   D    
S4    O20   D    
C50   H29   S    
C42   S3    S    
C40   S2    S    
C16   H5    S    
C43   H10   S    
C49   H25   S    
C11   C15   A    
C19   C20   A    
C8    C9    A    
C12   O3    A    
C18   C30   A    
C9    C10   A    
C44   C47   A    
C20   H8    S    
C43   N1    A    
O4    Zn2   S    
C13   C14   A    
O17   H23   S    
C47   H19   S    
S1    O10   D    
S1    O9    D    
C14   C45   A    
O7    Zn1   S    
O3    Zn1   S    
C1    O2    A    
N2    Zn2   S    
C24   C28   A    
C24   C25   A    
C7    H1    S    
C27   H9    S    
C39   C40   A    
C28   H6    S    
S2    O12   D    
C18   C19   A    
C32   N2    A    
C2    C48   A    
C16   C29   A    
C10   C13   A    
C42   N1    A    
C31   H12   S    
C2    C4    A    
C26   H4    S    
S3    O16   D    
C14   H16   S    
O18   C49   S    
C6    S4    S    
C34   C45   S    
C1    O1    A    
O11   H21   S    
C50   H28   S    
C18   H7    S    
C40   C41   A    
C8    H20   S    
C22   C27   A    
N1    Zn1   S    
C15   C45   A    
C33   O18   S    
S3    O15   D    
C49   H26   S    
C29   H3    S    
C16   C25   A    
C46   C47   A    
C22   C30   A    
C17   C28   A    
C15   H11   S    
O6    Zn2   S    
C23   O5    A    
C4    C5    A    
S2    O14   S    
C46   H18   S    
C6    C7    A    
C3    C46   A    
C37   N2    A    
C32   C33   A    
C36   C38   A    
C2    C3    A    
C25   C26   A    
O2    Zn2   S    
C19   S1    S    
O22   H30   S    
C34   O8    A    
S3    O17   S    
C38   C39   A    
S4    O21   D    
C48   O19   S    
C1    C30   S    
C33   C35   A    
C31   C39   A    
C35   H14   S    
O8    Zn2   S    
C37   C41   A    
C50   H27   S    
C9    H17   S    
C10   C11   A    
C13   H2    S    
C38   C42   A    
C20   C21   A    
C12   C44   S    
C21   C24   A    
C41   H15   S    
O14   H22   S    
C21   C22   A    
O5    Zn1   S    
C44   C48   A    
S4    O22   S    
