data_mof_unit_62644.cif
_audit_creation_date              2012-12-11T19:09:21-0500
_audit_creation_method            fapswitch 2.2
_symmetry_space_group_name_H-M    P1
_symmetry_Int_Tables_number       1
_space_group_crystal_system       triclinic
_cell_length_a                    8.504781
_cell_length_b                    15.260416
_cell_length_c                    27.067238
_cell_angle_alpha                 99.482332
_cell_angle_beta                  92.155403
_cell_angle_gamma                 80.838299
_cell_volume                      3420.52604375

loop_
_atom_site_label
_atom_site_type_symbol
_atom_type_description
_atom_site_fract_x
_atom_site_fract_y
_atom_site_fract_z
_atom_type_partial_charge
Ba1   Ba    Ba6+2 0.860050 0.456430 0.522540 1.747563
Ba2   Ba    Ba6+2 0.329780 0.543490 0.477450 1.724078
C1    C     C_3   0.700239 0.224380 0.738028 0.128776
C2    C     C_3   0.687650 0.242507 0.682717 0.538410
C3    C     C_3   0.613992 0.703294 0.635301 0.425081
C4    C     C_3   0.642190 0.754254 0.688612 0.114146
C5    C     C_3   0.946509 0.788659 0.341787 0.251972
C6    C     C_3   0.982220 0.825104 0.294332 0.254665
C7    C     C_3   0.540689 0.788025 0.351735 0.254735
C8    C     C_3   0.459145 0.886173 0.349564 0.369992
C9    C     C_R   0.082779 0.447008 0.183554 0.634295
C10   C     C_R   0.873225 0.568688 0.177486 0.652549
C11   C     C_2   0.751504 0.535658 0.272601 0.200138
C12   C     C_3   0.180779 0.187153 0.650620 0.502161
C13   C     C_3   0.723680 0.578429 0.327131 -0.093273
C14   C     C_1   0.983066 0.490647 0.346219 0.047861
C15   C     C_2   0.028571 0.493070 0.299527 -0.127182
C16   C     C_2   0.907035 0.510289 0.258126 0.174278
C17   C     C_R   0.027757 0.502505 0.103530 -0.086461
C18   C     C_R   0.126348 0.448051 0.133237 -0.026417
C19   C     C_R   0.263560 0.394555 0.111541 -0.017476
C20   C     C_R   0.896094 0.559740 0.125700 -0.055167
C21   C     C_2   0.841503 0.533960 0.362895 -0.257225
C22   C     C_2   0.339173 0.474141 0.638010 -0.215613
C23   C     C_3   0.135580 0.121040 0.683354 0.210993
C24   C     C_R   0.247604 0.455866 0.981586 0.038195
C25   C     C_R   0.986475 0.547872 0.970152 0.028340
C26   C     C_R   0.135301 0.501352 0.950646 0.062399
C27   C     C_R   0.400802 0.420393 0.961829 -0.055259
C28   C     C_R   0.441967 0.430866 0.913857 -0.013302
C29   C     C_R   0.329190 0.471685 0.882207 -0.020088
C30   C     C_R   0.174876 0.503685 0.899977 -0.075967
C31   C     C_R   0.061363 0.541341 0.867516 -0.038891
C32   C     C_R   0.094806 0.532141 0.815998 0.650981
C33   C     C_R   0.368934 0.484384 0.833763 0.605943
C34   C     C_3   0.242998 0.245038 0.381166 0.547994
C35   C     C_2   0.419766 0.440273 0.724531 -0.045539
C36   C     C_3   0.446210 0.416449 0.668805 -0.072069
C37   C     C_1   0.208209 0.523980 0.657521 0.000971
C38   C     C_2   0.176642 0.538538 0.706209 -0.051932
C39   C     C_2   0.288621 0.496658 0.744223 0.248340
C40   C     C_R   0.206155 0.451012 0.031618 0.037823
C41   C     C_R   0.060918 0.500772 0.051913 0.044420
C42   C     C_R   0.947388 0.547754 0.021215 0.005613
C43   C     C_R   0.304359 0.397263 0.062278 -0.073774
C44   C     C_R   0.783519 0.603684 0.095587 -0.005755
C45   C     C_3   0.333042 0.207808 0.332712 -0.263699
C46   C     C_R   0.889015 0.599132 0.938496 -0.059128
C47   C     C_R   0.918381 0.589959 0.887508 -0.010930
C48   C     C_R   0.799179 0.590767 0.043761 0.126082
C49   C     C_R   0.358594 0.174674 0.531718 0.008408
C50   C     C_R   0.586871 0.209430 0.491652 0.116816
C51   C     C_R   0.755930 0.769795 0.482218 -0.211947
C52   C     C_R   0.842882 0.826529 0.462443 0.001709
C53   C     C_R   0.787704 0.919692 0.469607 -0.088629
C54   C     C_R   0.640736 0.956938 0.494064 0.059413
C55   C     C_R   0.555030 0.896782 0.513586 -0.019826
C56   C     C_3   0.126487 0.745829 0.626544 0.367364
C57   C     C_R   0.575669 0.051724 0.500365 0.056081
C58   C     C_R   0.423875 0.081958 0.523508 0.036717
C59   C     C_R   0.340962 0.019426 0.538897 -0.058942
C60   C     C_R   0.407866 0.930320 0.536157 -0.070069
C61   C     C_R   0.652326 0.117401 0.483193 -0.066706
C62   C     C_R   0.447416 0.237313 0.519229 -0.232630
C63   C     C_R   0.615887 0.803678 0.509212 0.022176
C64   C     C_3   0.143640 0.809668 0.677006 0.110612
C65   C     C_3   0.750082 0.293719 0.363548 0.354701
C66   C     C_3   0.849563 0.224866 0.323814 -0.036850
H1    H     H_    0.353133 0.262920 0.313098 0.130321
H2    H     H_    0.447061 0.166796 0.340742 0.151982
H3    H     H_    0.261416 0.164709 0.306966 0.145417
H4    H     H_    0.242093 0.706536 0.613388 0.052956
H5    H     H_    0.038993 0.864029 0.681964 0.158611
H6    H     H_    0.826332 0.337072 0.386864 0.045812
H7    H     H_    0.937574 0.181469 0.342860 0.177476
H8    H     H_    0.914968 0.260740 0.300718 0.110744
H9    H     H_    0.560884 0.263360 0.676903 -0.159337
H10   H     H_    0.578245 0.242949 0.753908 0.090303
H11   H     H_    0.729158 0.682042 0.616411 0.101017
H12   H     H_    0.528004 0.771139 0.708934 0.161964
H13   H     H_    0.911655 0.721009 0.330820 -0.019314
H14   H     H_    0.848643 0.834587 0.362033 0.009113
H15   H     H_    0.089451 0.783293 0.276003 0.083816
H16   H     H_    0.630092 0.767595 0.321723 0.016009
H17   H     H_    0.600412 0.785042 0.388743 -0.070865
H18   H     H_    0.154255 0.484559 0.291477 0.178105
H19   H     H_    0.341945 0.351226 0.132938 0.142121
H20   H     H_    0.496166 0.398076 0.746637 0.119426
H21   H     H_    0.562593 0.405464 0.901302 0.121170
H22   H     H_    0.495058 0.388745 0.983693 0.085258
H23   H     H_    0.411668 0.353821 0.048599 0.080286
H24   H     H_    0.673562 0.641050 0.112016 0.169796
H25   H     H_    0.793977 0.650891 0.952443 0.136654
H26   H     H_    0.833994 0.626848 0.864452 0.145045
H27   H     H_    0.068019 0.582057 0.717399 0.151849
H28   H     H_    0.822571 0.553634 0.402860 0.077659
H29   H     H_    0.359342 0.461701 0.597955 0.058412
H30   H     H_    0.399144 0.308141 0.526547 0.038830
H31   H     H_    0.223650 0.038778 0.554557 0.109311
H32   H     H_    0.760595 0.098819 0.461962 0.117457
H33   H     H_    0.802452 0.698856 0.478880 0.057853
H34   H     H_    0.861623 0.961194 0.455676 0.106747
H35   H     H_    0.339402 0.887688 0.551174 0.131335
H36   H     H_    0.009887 0.142266 0.693952 0.141362
N1    N     N_R   0.954718 0.507276 0.205719 -0.422453
N2    N     N_R   0.250334 0.505599 0.798364 -0.417896
O1    O     O_2   0.906490 0.548660 0.619040 -0.426197
O2    O     O_3   0.662802 0.249870 0.392057 -0.628719
O3    O     O_3   0.081393 0.181704 0.607380 -0.556386
O4    O     O_2   0.283210 0.451320 0.380930 -0.460660
O5    O     O_3   0.051220 0.451340 0.441130 -0.478359
O6    O     O_3   0.503420 0.617610 0.414270 -0.448598
O7    O     O_3   0.110193 0.307294 0.370962 -0.669266
O8    O     O_3   0.617160 0.609950 0.527080 -0.490747
O9    O     O_3   0.088220 0.664410 0.439630 -0.444588
O10   O     O_2   0.175837 0.820351 0.464410 -0.450518
O11   O     O_3   0.084829 0.780972 0.371571 -0.581512
O12   O     O_3   0.138490 0.548590 0.558860 -0.479724
O13   O     O_3   0.572560 0.389970 0.472910 -0.495785
O14   O     O_2   0.345680 0.723560 0.528460 -0.433639
O15   O     O_3   0.514758 0.761125 0.607984 -0.675873
O16   O     O_2   0.387134 0.562607 0.327239 -0.404467
O17   O     O_3   0.425649 0.729909 0.343704 -0.563143
O18   O     O_2   0.158129 0.392063 0.206997 -0.572408
O19   O     O_2   0.509495 0.479182 0.824117 -0.573973
O20   O     O_2   0.779170 0.631986 0.197475 -0.549032
O21   O     O_2   0.983219 0.545964 0.787320 -0.556861
O22   O     O_3   0.686290 0.382320 0.585720 -0.465317
O23   O     O_2   0.738050 0.481618 0.673517 -0.390470
O24   O     O_3   0.007866 0.692497 0.627975 -0.659011
O25   O     O_3   0.778226 0.309092 0.674817 -0.536304
O26   O     O_2   0.844020 0.276410 0.471510 -0.429382
O27   O     O_3   0.101490 0.335510 0.560360 -0.455544
O28   O     O_2   0.039132 0.180112 0.514237 -0.418181
P1    P     P_3+3 0.071960 0.575810 0.612130 0.997512
P2    P     P_3+3 0.664360 0.290070 0.457280 1.024312
P3    P     P_3+3 0.151682 0.218488 0.555093 1.037260
P4    P     P_3+3 0.117760 0.424110 0.387870 0.992178
P5    P     P_3+3 0.041751 0.777330 0.434085 1.013487
P6    P     P_3+3 0.660478 0.398772 0.650832 1.076263
P7    P     P_3+3 0.528432 0.724808 0.542982 0.935667
P8    P     P_3+3 0.512630 0.620441 0.350847 1.072655
I1    I     I_    0.739906 0.128547 0.623895 -0.447750
I2    I     I_    0.031318 0.833774 0.575537 -0.497591
N3    N     N_3   0.287325 0.849998 0.676981 -0.499622
H37   H     H_    0.281110 0.905035 0.705873 0.259661
H38   H     H_    0.296457 0.872451 0.643125 0.212055
I3    I     I_    0.153582 0.755953 0.745059 -0.443012
I4    I     I_    0.590516 0.375571 0.323577 -0.462219
I5    I     I_    0.761816 0.086464 0.750303 -0.334631
N4    N     N_3   0.757350 0.165935 0.290480 -0.431344
H39   H     H_    0.693760 0.132856 0.311697 0.260869
H40   H     H_    0.678317 0.202396 0.268116 0.221626
N5    N     N_3   0.540558 0.624657 0.639909 -0.453483
H41   H     H_    0.439241 0.644860 0.662083 0.131471
H42   H     H_    0.503378 0.594953 0.604911 0.164065
N6    N     N_3   0.704438 0.838049 0.687193 -0.447595
H43   H     H_    0.787634 0.827568 0.658700 0.206995
H44   H     H_    0.611236 0.886079 0.677765 0.230640
N7    N     N_3   0.748875 0.696730 0.717615 -0.430625
H45   H     H_    0.758581 0.731609 0.753977 0.237943
H46   H     H_    0.861503 0.685458 0.702123 0.226953
N8    N     N_3   0.801902 0.281156 0.768762 -0.430436
H47   H     H_    0.920240 0.250916 0.763536 0.237723
H48   H     H_    0.777249 0.282102 0.806428 0.209528
N9    N     N_3   0.152856 0.029999 0.655742 -0.482268
H49   H     H_    0.071276 0.027088 0.625994 0.240794
H50   H     H_    0.266894 0.014332 0.640608 0.184629
I6    I     I_    0.796463 0.824947 0.239852 -0.327280
I7    I     I_    0.011863 0.963116 0.308996 -0.330726
I8    I     I_    0.614183 0.983951 0.361477 -0.499679
N10   N     N_3   0.342943 0.917532 0.389361 -0.401889
H51   H     H_    0.390774 0.899682 0.423057 0.183686
H52   H     H_    0.242504 0.887800 0.380959 0.269500
I9    I     I_    0.128060 0.318057 0.692633 -0.416718
N11   N     N_3   0.382728 0.892747 0.300620 -0.406794
H53   H     H_    0.324010 0.837800 0.288917 0.214357
H54   H     H_    0.469672 0.889213 0.273928 0.233626
I10   I     I_    0.554231 0.514111 0.221578 -0.345920
N12   N     N_3   0.349252 0.164578 0.638175 -0.520370
H55   H     H_    0.416018 0.152691 0.670117 0.210904
H56   H     H_    0.383430 0.220996 0.627183 0.135218
I11   I     I_    0.570906 0.617829 0.008385 -0.459933
I12   I     I_    0.262479 0.117801 0.753810 -0.379744
N13   N     N_3   0.342007 0.281569 0.420833 -0.496293
H57   H     H_    0.399940 0.327034 0.407444 0.215297
H58   H     H_    0.270195 0.314924 0.450771 0.161602
I13   I     I_    0.173495 0.132864 0.407436 -0.384282

loop_
_geom_bond_atom_site_label_1
_geom_bond_atom_site_label_2
_ccdc_geom_bond_type
C25   C46   A    
C12   O3    S    
C53   C54   A    
C19   H19   S    
O27   P3    S    
N6    H43   S    
C10   C20   A    
C65   I4    S    
C6    H15   S    
C5    O11   S    
C35   H20   S    
C48   I11   S    
Ba1   O22   S    
C6    I6    S    
Ba1   O26   S    
C24   C26   A    
O28   P3    D    
N3    H37   S    
Ba2   O12   S    
C55   C60   A    
C59   H31   S    
C51   C52   A    
C54   C55   A    
C66   H7    S    
C53   H34   S    
Ba2   O6    S    
C61   H32   S    
C11   C16   D    
C3    C4    S    
N8    H48   S    
C35   C36   S    
C34   N13   S    
C28   C29   A    
C65   O2    S    
N13   H58   S    
C44   H24   S    
C8    N10   S    
C3    N5    S    
C3    O15   S    
C22   C37   D    
C21   H28   S    
C34   C45   S    
O3    P3    S    
Ba1   Ba2   S    
Ba1   O13   S    
O6    P8    S    
C33   O19   D    
C45   H1    S    
C64   N3    S    
O1    P1    D    
O25   P6    S    
C7    H17   S    
C25   C42   A    
C56   C64   S    
C17   C18   A    
N12   H56   S    
C32   O21   D    
N10   H52   S    
C9    N1    Am   
C22   C36   S    
N4    H39   S    
C47   H26   S    
C3    H11   S    
Ba1   P2    S    
C51   C63   A    
C7    C8    S    
C64   I3    S    
C23   I12   S    
C1    N8    S    
O10   P5    D    
C13   C21   S    
C57   C58   A    
N6    H44   S    
N9    H50   S    
O11   P5    S    
C2    I1    S    
C28   H21   S    
Ba1   O27   S    
C34   O7    S    
C27   H22   S    
N3    H38   S    
C17   C41   A    
C31   C32   A    
C2    O25   S    
C19   C43   A    
C8    N11   S    
Ba2   O5    S    
C9    C18   A    
C39   N2    S    
C49   C62   A    
C65   C66   S    
Ba2   P4    S    
O8    P7    S    
O15   P7    S    
O4    P4    D    
C17   C20   A    
C50   C62   A    
C51   H33   S    
C37   C38   D    
Ba2   O14   S    
C14   C15   D    
C37   P1    S    
C8    I8    S    
C11   I10   S    
C64   H5    S    
C22   H29   S    
C30   C31   A    
C58   C59   A    
C34   I13   S    
C40   C43   A    
C32   N2    Am   
C41   C42   A    
C45   H2    S    
C12   I9    S    
C13   P8    S    
C63   P7    S    
Ba2   O9    S    
C4    H12   S    
C52   P5    S    
C26   C30   A    
O26   P2    D    
C15   C16   S    
C65   H6    S    
C6    I7    S    
C45   H3    S    
N5    H41   S    
Ba1   O1    S    
C49   P3    S    
N11   H53   S    
C5    H13   S    
O24   P1    S    
O9    P5    S    
C14   C21   D    
C15   H18   S    
C11   C13   S    
N9    H49   S    
C50   P2    S    
C29   C33   A    
C40   C41   A    
O16   P8    D    
C38   H27   S    
N10   H51   S    
C4    N6    S    
N12   H55   S    
C24   C40   A    
C60   H35   S    
C42   C48   A    
C52   C53   A    
Ba2   O4    S    
C1    I5    S    
C20   C44   A    
N5    H42   S    
C29   C30   A    
C14   P4    S    
O14   P7    D    
C55   C63   A    
C50   C61   A    
C4    N7    S    
Ba2   O13   S    
C23   H36   S    
O2    P2    S    
C23   N9    S    
C66   H8    S    
C44   C48   A    
C57   C61   A    
O13   P2    S    
C54   C57   A    
N7    H45   S    
O22   P6    S    
C16   N1    S    
C2    H9    S    
C66   N4    S    
Ba1   O5    S    
Ba2   O8    S    
C56   H4    S    
N13   H57   S    
C10   N1    Am   
O23   P6    D    
C56   O24   S    
C46   C47   A    
O17   P8    S    
C62   H30   S    
C7    O17   S    
Ba1   O12   S    
N4    H40   S    
C12   C23   S    
C35   C39   D    
C59   C60   A    
C43   H23   S    
C46   H25   S    
N8    H47   S    
C5    C6    S    
C7    H16   S    
C27   C28   A    
C56   I2    S    
C5    H14   S    
C10   O20   D    
C18   C19   A    
C24   C27   A    
Ba1   O8    S    
C25   C26   A    
C33   N2    Am   
C36   P6    S    
O7    P4    S    
C38   C39   S    
C49   C58   A    
C9    O18   D    
Ba1   P1    S    
C1    H10   S    
C31   C47   A    
C12   N12   S    
O12   P1    S    
C1    C2    S    
O5    P4    S    
N7    H46   S    
N11   H54   S    
