data_mof_unit_41142.cif
_audit_creation_date              2012-12-10T19:09:36-0500
_audit_creation_method            fapswitch 2.2
_symmetry_space_group_name_H-M    P1
_symmetry_Int_Tables_number       1
_space_group_crystal_system       triclinic
_cell_length_a                    9.619522
_cell_length_b                    10.888136
_cell_length_c                    16.973826
_cell_angle_alpha                 87.579277
_cell_angle_beta                  93.668797
_cell_angle_gamma                 90.552036
_cell_volume                      1772.54634558

loop_
_atom_site_label
_atom_site_type_symbol
_atom_type_description
_atom_site_fract_x
_atom_site_fract_y
_atom_site_fract_z
_atom_type_partial_charge
C1    C     C_R   0.499385 0.262595 0.500450 0.967842
C2    C     C_R   0.638051 0.537018 0.787621 -0.297978
C3    C     C_R   0.370650 0.448917 0.135271 -0.090952
C4    C     C_R   0.383708 0.430418 0.218311 -0.108367
C5    C     C_R   0.439834 0.549527 0.098485 0.256945
C6    C     C_R   0.469362 0.511382 0.263096 -0.100834
C7    C     C_R   0.530785 0.613435 0.226534 -0.221243
C8    C     C_R   0.516767 0.634707 0.144644 -0.049137
C9    C     C_R   0.622713 0.064417 0.501859 -0.120101
C10   C     C_R   0.498762 0.129088 0.505771 -0.288059
C11   C     C_R   0.376885 0.062054 0.522043 0.535204
C12   C     C_R   0.516238 0.513065 0.650336 0.815440
C13   C     C_R   0.377474 0.933613 0.524056 0.644989
C14   C     C_R   0.500755 0.870091 0.511113 -0.378442
C15   C     C_R   0.624192 0.937745 0.507499 -0.030118
C16   C     C_3   0.738188 0.930031 0.452790 0.556137
C17   C     C_3   0.736735 0.070981 0.444750 -0.295818
C18   C     C_R   0.066207 0.518015 0.431761 0.046967
C19   C     C_R   0.083447 0.459958 0.564314 -0.010681
C20   C     C_R   0.935289 0.454338 0.564462 0.071169
C21   C     C_R   0.919959 0.512877 0.430537 0.089494
C22   C     C_3   0.909885 0.610613 0.365221 0.299988
C23   C     C_R   0.500426 0.737360 0.502417 0.860818
C24   C     C_3   0.068515 0.622150 0.372643 1.000812
C25   C     C_R   0.482282 0.501792 0.349350 0.860406
C26   C     C_R   0.516293 0.538103 0.736482 -0.273398
C27   C     C_R   0.386728 0.557390 0.769748 -0.111291
C28   C     C_R   0.373578 0.529336 0.850686 -0.212628
C29   C     C_R   0.494220 0.503194 0.900018 0.196830
C30   C     C_R   0.625178 0.511672 0.868882 0.643934
Cu1   Cu    Cu3+1 0.640670 0.499980 0.500000 1.086187
Cu2   Cu    Cu3+1 0.359330 0.500020 0.500000 1.112666
H1    H     H_    0.702530 0.881261 0.399097 0.158271
H2    H     H_    0.147314 0.425436 0.614998 0.183251
H3    H     H_    0.588236 0.678403 0.263055 0.204413
N1    N     N_2   0.489613 0.480769 0.982677 -0.174135
N2    N     N_2   0.433515 0.566201 0.015236 -0.150248
N3    N     N_R   0.147870 0.500930 0.499500 -0.181799
N4    N     N_R   0.851960 0.500890 0.499500 -0.162616
O1    O     O_R   0.618810 0.319640 0.500000 -0.529650
O2    O     O_R   0.381230 0.319680 0.499990 -0.527444
O3    O     O_R   0.631790 0.498830 0.613930 -0.577849
O4    O     O_R   0.394210 0.498870 0.613920 -0.592344
O5    O     O_R   0.618770 0.680320 0.500010 -0.537588
O6    O     O_R   0.381190 0.680360 0.500000 -0.475126
O7    O     O_R   0.605790 0.501130 0.386080 -0.556071
O8    O     O_R   0.368210 0.501170 0.386070 -0.546051
C31   C     C_2   0.302585 0.330991 0.258067 0.948744
O9    O     O_2   0.358106 0.265495 0.311042 -0.589573
O10   O     O_R   0.161614 0.313758 0.235430 -0.684683
H4    H     H_    0.117305 0.244730 0.267294 0.374901
F1    F     F_    0.255842 0.872985 0.535238 -0.501180
F2    F     F_    0.857603 0.881665 0.491929 -0.496004
C32   C     C_2   0.868398 0.131656 0.479159 1.067482
O11   O     O_2   0.933464 0.205156 0.438944 -0.565672
O12   O     O_R   0.916263 0.102605 0.557235 -0.637591
H5    H     H_    0.003554 0.150083 0.573971 0.371149
C33   C     C_2   0.689997 0.120407 0.362059 0.854355
O13   O     O_2   0.683799 0.053198 0.305933 -0.524903
O14   O     O_R   0.658864 0.244736 0.349457 -0.687329
H6    H     H_    0.630804 0.266578 0.292043 0.359399
C34   C     C_2   0.882640 0.381379 0.632708 0.850264
O15   O     O_2   0.947367 0.383012 0.697004 -0.533455
O16   O     O_R   0.772476 0.298483 0.622988 -0.720989
H7    H     H_    0.751424 0.251810 0.673867 0.344251
C35   C     C_2   0.857521 0.566272 0.285709 0.856824
O17   O     O_2   0.855198 0.637761 0.228144 -0.490856
O18   O     O_R   0.818156 0.443572 0.276819 -0.731660
H8    H     H_    0.787135 0.425801 0.220197 0.354854
F3    F     F_    0.842283 0.713391 0.385960 -0.608991
F4    F     F_    0.135162 0.593772 0.305788 -0.655531
C36   C     C_2   0.284696 0.363356 0.086863 0.943717
O19   O     O_2   0.187794 0.402772 0.043409 -0.523211
O20   O     O_R   0.312340 0.237394 0.092797 -0.721778
H9    H     H_    0.245725 0.188329 0.057424 0.365450
F5    F     F_    0.116025 0.730550 0.405055 -0.523411
F6    F     F_    0.740170 0.502813 0.919647 -0.583451
C37   C     C_2   0.774379 0.582460 0.760927 1.001543
O21   O     O_2   0.881719 0.550034 0.797682 -0.422807
O22   O     O_R   0.783391 0.670359 0.698792 -0.705400
H10   H     H_    0.690812 0.708470 0.680194 0.309325
C38   C     C_2   0.234392 0.523197 0.882523 1.044528
O23   O     O_2   0.189240 0.611485 0.914744 -0.489486
O24   O     O_R   0.153215 0.417165 0.872754 -0.663754
H11   H     H_    0.059449 0.423157 0.896303 0.409440
C39   C     C_2   0.585388 0.745806 0.109073 0.975136
O25   O     O_2   0.634952 0.825040 0.151782 -0.507386
O26   O     O_R   0.594578 0.760827 0.027319 -0.701340
H12   H     H_    0.643850 0.839889 0.011348 0.360525
C40   C     C_2   0.273881 0.626015 0.722834 0.926380
O27   O     O_2   0.304443 0.712273 0.678567 -0.528307
O28   O     O_R   0.134226 0.594161 0.729283 -0.692670
H13   H     H_    0.069445 0.648272 0.693772 0.385693
F7    F     F_    0.255450 0.119636 0.532704 -0.604334

loop_
_geom_bond_atom_site_label_1
_geom_bond_atom_site_label_2
_ccdc_geom_bond_type
C35   O18   S    
C23   O6    A    
Cu1   O3    S    
C5    N2    S    
C18   C21   A    
Cu2   O6    S    
C19   C20   A    
C7    C8    A    
O12   H5    S    
C29   N1    S    
C26   C27   A    
C34   O15   D    
C18   C24   S    
N1    N2    D    
C12   O4    A    
O22   H10   S    
C37   O22   S    
C6    C25   S    
C33   O14   S    
C15   C16   S    
Cu1   O1    S    
C27   C40   S    
C16   F2    S    
C22   C35   S    
C34   O16   S    
C1    O1    A    
C30   F6    S    
C16   C17   S    
Cu1   O7    S    
C12   O3    A    
Cu2   O2    S    
Cu2   N3    S    
C9    C10   A    
C25   O8    A    
C8    C39   S    
C17   C33   S    
C31   O10   S    
C35   O17   D    
C13   C14   A    
C20   C34   S    
C32   O12   S    
Cu1   O5    S    
C28   C38   S    
O24   H11   S    
C36   O20   S    
O20   H9    S    
C20   N4    A    
C37   O21   D    
O18   H8    S    
C33   O13   D    
C23   O5    A    
C12   C26   S    
O14   H6    S    
C14   C23   S    
C29   C30   A    
C2    C37   S    
C19   N3    A    
C16   H1    S    
C13   F1    S    
C40   O28   S    
Cu1   Cu2   S    
C21   N4    A    
O10   H4    S    
C2    C26   A    
C11   F7    S    
C9    C17   S    
C31   O9    D    
C38   O24   S    
Cu2   O8    S    
C22   C24   S    
C4    C6    A    
C3    C4    A    
C4    C31   S    
C1    O2    A    
C32   O11   D    
C28   C29   A    
C39   O25   D    
C7    H3    S    
C24   F5    S    
C1    C10   S    
C36   O19   D    
C3    C5    A    
C19   H2    S    
C5    C8    A    
C6    C7    A    
C2    C30   A    
O16   H7    S    
C3    C36   S    
C9    C15   A    
C11   C13   A    
C40   O27   D    
C25   O7    A    
O28   H13   S    
Cu2   O4    S    
Cu1   N4    S    
C39   O26   S    
C18   N3    A    
C10   C11   A    
O26   H12   S    
C38   O23   D    
C27   C28   A    
C14   C15   A    
C21   C22   S    
C17   C32   S    
C22   F3    S    
C24   F4    S    
