data_mof_unit_38897.cif
_audit_creation_date              2012-12-10T17:22:11-0500
_audit_creation_method            fapswitch 2.2
_symmetry_space_group_name_H-M    P1
_symmetry_Int_Tables_number       1
_space_group_crystal_system       triclinic
_cell_length_a                    10.283535
_cell_length_b                    10.52305
_cell_length_c                    15.768416
_cell_angle_alpha                 90.645427
_cell_angle_beta                  80.154944
_cell_angle_gamma                 94.148585
_cell_volume                      1676.83116035

loop_
_atom_site_label
_atom_site_type_symbol
_atom_type_description
_atom_site_fract_x
_atom_site_fract_y
_atom_site_fract_z
_atom_type_partial_charge
Br1   Br    Br    0.209477 0.520982 0.122107 -0.610818
Br2   Br    Br    0.615582 0.140374 0.337368 -0.560038
Br3   Br    Br    0.745493 0.394155 0.898784 -0.541563
Br4   Br    Br    0.713956 0.723104 0.068276 -0.558497
Br5   Br    Br    0.477466 0.212577 0.903469 -0.484568
C1    C     C_R   0.554255 0.734048 0.490176 0.904019
C2    C     C_2   0.486941 0.926262 0.436947 -0.167949
C3    C     C_2   0.413745 0.130034 0.490718 -0.149036
C4    C     C_R   0.498119 0.498306 0.661719 0.895577
C5    C     C_2   0.493642 0.063582 0.432164 0.250059
C6    C     C_2   0.933333 0.527155 0.489900 -0.077261
C7    C     C_2   0.079182 0.499748 0.484398 -0.086469
C8    C     C_R   0.445316 0.265930 0.500733 0.939503
C9    C     C_R   0.501122 0.499765 0.338482 0.917798
C10   C     C_3   0.393614 0.603672 0.963593 -0.230695
C11   C     C_3   0.637169 0.539984 0.932626 0.247909
C12   C     C_3   0.382401 0.600014 0.065052 0.328761
C13   C     C_3   0.636104 0.560188 0.031936 -0.015834
C14   C     C_1   0.504121 0.504283 0.249660 -0.144280
C15   C     C_3   0.488878 0.502009 0.918513 0.109933
C16   C     C_3   0.385688 0.741936 0.098320 -0.372590
C17   C     C_3   0.380122 0.764997 0.195565 -0.297914
C18   C     C_3   0.342984 0.900309 0.219883 -0.813027
C19   C     C_3   0.262551 0.621854 0.928454 -0.371195
C20   C     C_3   0.176544 0.502189 0.910446 -0.300233
C21   C     C_3   0.049149 0.538296 0.883733 -0.829469
C22   C     C_3   0.284666 0.071269 0.541411 -0.449135
C23   C     C_3   0.496826 0.515742 0.084288 0.079829
C24   C     C_3   0.175058 0.070400 0.486038 -0.318226
C25   C     C_3   0.037473 0.041859 0.538948 -0.886602
C26   C     C_3   0.105578 0.653983 0.591387 -0.244472
C27   C     C_3   0.186340 0.690203 0.662161 -0.293805
C28   C     C_3   0.127100 0.798752 0.717571 -1.005620
C29   C     C_3   0.880529 0.327590 0.427137 -0.233624
C30   C     C_3   0.930573 0.342808 0.330078 -0.319633
C31   C     C_3   0.992735 0.223119 0.291629 -0.808261
C32   C     C_3   0.718116 0.648099 0.872345 -0.363672
C33   C     C_3   0.658194 0.775626 0.861347 -0.385244
C34   C     C_3   0.467499 0.374649 0.056209 -0.479218
C35   C     C_3   0.758347 0.869120 0.807079 -0.801135
C36   C     C_3   0.436135 0.371910 0.964294 0.157811
C37   C     C_1   0.502852 0.510610 0.174816 0.047473
C38   C     C_1   0.488008 0.495474 0.826892 0.033613
C39   C     C_1   0.492746 0.495280 0.751112 -0.169863
C40   C     C_2   0.580541 0.868074 0.467980 -0.334084
H1    H     H_    0.554029 0.318075 0.058923 0.245083
H2    H     H_    0.416507 0.971238 0.183716 0.292924
H3    H     H_    0.243110 0.915489 0.205657 0.263718
H4    H     H_    0.341208 0.915695 0.289672 0.240286
H5    H     H_    0.306580 0.697040 0.234321 0.256035
H6    H     H_    0.478811 0.754367 0.212916 0.253368
H7    H     H_    0.471838 0.800169 0.063639 0.219947
H8    H     H_    0.298658 0.784546 0.079960 0.219450
H9    H     H_    0.974841 0.553933 0.942127 0.301784
H10   H     H_    0.064370 0.626439 0.845157 0.256978
H11   H     H_    0.012241 0.460519 0.844168 0.290568
H12   H     H_    0.395551 0.874663 0.426695 0.161873
H13   H     H_    0.230405 0.445479 0.857889 0.222486
H14   H     H_    0.146506 0.441267 0.968055 0.272795
H15   H     H_    0.200671 0.685010 0.972776 0.246041
H16   H     H_    0.289478 0.675123 0.866543 0.186176
H17   H     H_    0.028200 0.945399 0.567536 0.257668
H18   H     H_    0.017274 0.113482 0.590941 0.274625
H19   H     H_    0.961987 0.045770 0.496568 0.248865
H20   H     H_    0.176851 0.165069 0.455081 0.231202
H21   H     H_    0.192663 0.998034 0.434255 0.214964
H22   H     H_    0.295876 0.973314 0.563172 0.213203
H23   H     H_    0.672386 0.919170 0.477986 0.164840
H24   H     H_    0.256103 0.128381 0.600595 0.224387
H25   H     H_    0.133673 0.887111 0.679192 0.281510
H26   H     H_    0.021839 0.773185 0.744725 0.273292
H27   H     H_    0.182857 0.818306 0.771250 0.270172
H28   H     H_    0.186390 0.606234 0.704064 0.243338
H29   H     H_    0.288640 0.723851 0.635057 0.263229
H30   H     H_    0.100892 0.739539 0.551674 0.168311
H31   H     H_    0.004977 0.623950 0.626612 0.168055
H32   H     H_    0.081926 0.206638 0.319830 0.238698
H33   H     H_    0.920994 0.138667 0.304239 0.289274
H34   H     H_    0.121497 0.431944 0.437287 0.158850
H35   H     H_    0.022879 0.235191 0.220969 0.285351
H36   H     H_    0.846610 0.362472 0.297371 0.271760
H37   H     H_    0.005669 0.424724 0.317428 0.236614
H38   H     H_    0.953655 0.284412 0.460294 0.153311
H39   H     H_    0.793742 0.258207 0.437426 0.238778
H40   H     H_    0.845729 0.890620 0.838961 0.279694
H41   H     H_    0.790728 0.829010 0.742045 0.238049
H42   H     H_    0.711956 0.959528 0.799674 0.285943
H43   H     H_    0.572703 0.759844 0.826991 0.213280
H44   H     H_    0.627009 0.821384 0.924418 0.272713
H45   H     H_    0.900105 0.616256 0.517562 0.136976
H46   H     H_    0.814455 0.669569 0.893878 0.247567
H47   H     H_    0.743351 0.608790 0.806214 0.221795
H48   H     H_    0.446115 0.695275 0.945097 0.138158
H49   H     H_    0.707197 0.496507 0.051982 0.202094
H50   H     H_    0.328081 0.361268 0.971902 0.161478
H51   H     H_    0.383637 0.325519 0.100694 0.222717
N1    N     N_2   0.842720 0.448890 0.465540 -0.082224
N2    N     N_2   0.157250 0.551040 0.534500 -0.077700
O1    O     O_R   0.431050 0.692470 0.506940 -0.627800
O2    O     O_R   0.651130 0.659650 0.484820 -0.606899
O3    O     O_R   0.389910 0.516410 0.633920 -0.635939
O4    O     O_R   0.609990 0.483590 0.611800 -0.593548
O5    O     O_R   0.348870 0.340350 0.515180 -0.610594
O6    O     O_R   0.568950 0.307530 0.493060 -0.596042
O7    O     O_R   0.390010 0.516410 0.388200 -0.622808
O8    O     O_R   0.610090 0.483590 0.366080 -0.581854
Zn1   Zn    Zn3+2 0.353060 0.521920 0.514770 0.931532
Zn2   Zn    Zn3+2 0.646940 0.478080 0.485230 0.975350

loop_
_geom_bond_atom_site_label_1
_geom_bond_atom_site_label_2
_ccdc_geom_bond_type
O3    Zn1   S    
C2    C5    S    
C33   C35   S    
C19   H16   S    
C1    C40   S    
C25   H19   S    
C22   C24   S    
C30   C31   S    
C21   H10   S    
C15   C36   S    
C30   H36   S    
C34   C36   S    
O7    Zn1   S    
C33   H44   S    
C32   C33   S    
C2    C40   D    
C35   H42   S    
C31   H32   S    
C27   H29   S    
C18   H4    S    
C7    H34   S    
C29   N1    S    
C29   C30   S    
C26   N2    S    
C35   H41   S    
C28   H27   S    
N1    Zn2   S    
C9    O7    A    
C4    O4    A    
O4    Zn2   S    
C8    O5    A    
C7    N2    D    
C22   H24   S    
C14   C37   T    
C11   C15   S    
C11   C32   S    
C17   H5    S    
Br4   C13   S    
C25   H18   S    
C29   H39   S    
C21   H9    S    
C30   H37   S    
C10   C15   S    
O2    Zn2   S    
C18   H2    S    
C32   H46   S    
C13   C23   S    
C19   C20   S    
C31   H35   S    
C27   H28   S    
C23   C34   S    
C20   C21   S    
C12   C16   S    
N2    Zn1   S    
C33   H43   S    
C1    O2    A    
C35   H40   S    
C38   C39   T    
C24   C25   S    
C26   H30   S    
C26   C27   S    
C19   H15   S    
C40   H23   S    
C11   C13   S    
C8    O6    A    
C28   H25   S    
C34   H1    S    
C24   H20   S    
C4    O3    A    
C10   C19   S    
C25   H17   S    
C13   H49   S    
C29   H38   S    
Br2   C5    S    
O6    Zn2   S    
C15   C38   S    
C10   C12   S    
Br5   C36   S    
C4    C39   S    
C18   H3    S    
C32   H47   S    
C12   C23   S    
C9    C14   S    
C21   H11   S    
C10   H48   S    
C6    C7    S    
O1    Zn1   S    
Br1   C12   S    
C6    N1    D    
C1    O1    A    
C31   H33   S    
C27   C28   S    
C16   H8    S    
C6    H45   S    
C26   H31   S    
C36   H50   S    
O8    Zn2   S    
C23   C37   S    
C34   H51   S    
C22   H22   S    
C28   H26   S    
C24   H21   S    
C3    C8    S    
C9    O8    A    
C3    C5    D    
C20   H13   S    
C3    C22   S    
C17   C18   S    
O5    Zn1   S    
C20   H14   S    
C16   C17   S    
C2    H12   S    
C16   H7    S    
Br3   C11   S    
C17   H6    S    
