data_mof_unit_55386.cif
_audit_creation_date              2012-12-10T20:25:38-0500
_audit_creation_method            fapswitch 2.2
_symmetry_space_group_name_H-M    P1
_symmetry_Int_Tables_number       1
_space_group_crystal_system       triclinic
_cell_length_a                    8.579544
_cell_length_b                    10.793389
_cell_length_c                    9.894498
_cell_angle_alpha                 89.558146
_cell_angle_beta                  97.891326
_cell_angle_gamma                 90.525799
_cell_volume                      907.519669552

loop_
_atom_site_label
_atom_site_type_symbol
_atom_type_description
_atom_site_fract_x
_atom_site_fract_y
_atom_site_fract_z
_atom_type_partial_charge
C1    C     C_R   0.498549 0.260385 0.500190 0.922998
C2    C     C_R   0.482650 0.938254 0.369909 0.523442
C3    C     C_R   0.499305 0.872423 0.495337 -0.109747
C4    C     C_R   0.529377 0.935714 0.618597 -0.181676
C5    C     C_3   0.450442 0.924996 0.744479 0.283416
C6    C     C_3   0.456284 0.067213 0.749291 0.946004
C7    C     C_R   0.390944 0.432018 0.059200 0.178885
C8    C     C_R   0.616095 0.558551 0.084799 0.163458
C9    C     C_R   0.615800 0.557958 0.940773 -0.231660
C10   C     C_R   0.389784 0.433280 0.916717 0.293663
C11   C     C_3   0.215820 0.452384 0.894165 -0.545658
C12   C     C_R   0.201520 0.498848 0.464615 0.976883
C13   C     C_3   0.217468 0.447125 0.047161 -0.529786
C14   C     C_R   0.496268 0.739928 0.498545 0.933129
C15   C     C_R   0.798338 0.500552 0.535176 0.953567
C16   C     C_2   0.036765 0.493954 0.445354 -0.361518
C17   C     C_2   0.962807 0.504272 0.553602 -0.373006
C18   C     C_R   0.533545 0.062413 0.620827 -0.102462
C19   C     C_R   0.503470 0.128837 0.499434 -0.114805
C20   C     C_R   0.483275 0.067250 0.374210 -0.314441
H1    H     H_    0.976811 0.480322 0.342475 0.173144
H2    H     H_    0.707229 0.606963 0.896415 0.153346
H3    H     H_    0.182801 0.544937 0.851983 0.192276
H4    H     H_    0.149895 0.374796 0.839628 0.212793
H5    H     H_    0.182785 0.535973 0.090307 0.226917
H6    H     H_    0.158187 0.363165 0.082259 0.198855
H7    H     H_    0.022418 0.517617 0.655986 0.167893
H8    H     H_    0.458120 0.119233 0.279956 0.177737
H9    H     H_    0.527684 0.877920 0.828990 0.030550
N1    N     N_R   0.498950 0.499140 0.142680 -0.103392
N2    N     N_R   0.498950 0.499180 0.857030 -0.124569
O1    O     O_R   0.500020 0.316790 0.614690 -0.578775
O2    O     O_R   0.500000 0.316760 0.385350 -0.641552
O3    O     O_R   0.271760 0.500010 0.587850 -0.613192
O4    O     O_R   0.271740 0.499970 0.358500 -0.634577
O5    O     O_R   0.500000 0.683240 0.614650 -0.630183
O6    O     O_R   0.499980 0.683210 0.385310 -0.559498
O7    O     O_R   0.728260 0.500030 0.641500 -0.638513
O8    O     O_R   0.728240 0.499990 0.412150 -0.596641
Zn1   Zn    Zn3+2 0.500010 0.500020 0.653130 0.960850
Zn2   Zn    Zn3+2 0.499990 0.499980 0.346870 0.979675
O9    O     O_3   0.441587 0.875820 0.247378 -0.593548
C21   C     C_3   0.524531 0.922161 0.143814 -0.319626
H10   H     H_    0.525797 0.849115 0.066118 0.175238
H11   H     H_    0.649305 0.946066 0.182268 0.159979
H12   H     H_    0.462586 0.002828 0.091918 0.191218
O10   O     O_3   0.295060 0.878223 0.711242 -0.567391
C22   C     C_3   0.262272 0.789621 0.808824 -0.309283
H13   H     H_    0.341348 0.709184 0.809159 0.202121
H14   H     H_    0.139223 0.756727 0.781527 0.180868
H15   H     H_    0.273516 0.829159 0.912992 0.146568
O11   O     O_3   0.305843 0.123191 0.721951 -0.586961
C23   C     C_3   0.230019 0.124837 0.840060 -0.219756
H16   H     H_    0.289971 0.189296 0.917385 0.173949
H17   H     H_    0.223093 0.032256 0.887271 0.159593
H18   H     H_    0.107481 0.156826 0.810819 0.155582
O12   O     O_3   0.549047 0.117450 0.868253 -0.666727
C24   C     C_3   0.713557 0.107790 0.869740 -0.440747
H19   H     H_    0.754889 0.171770 0.793336 0.203809
H20   H     H_    0.749851 0.011171 0.853222 0.152579
H21   H     H_    0.772474 0.136437 0.971668 0.206707
N3    N     N_3   0.738262 0.623089 0.169390 -0.383719
H22   H     H_    0.845517 0.586033 0.151270 0.154531
H23   H     H_    0.737666 0.715513 0.137535 0.161186

loop_
_geom_bond_atom_site_label_1
_geom_bond_atom_site_label_2
_ccdc_geom_bond_type
C7    C10   A    
C21   H10   S    
N1    Zn2   S    
O4    Zn2   S    
N3    H22   S    
C11   C13   S    
C23   H17   S    
C19   C20   A    
O5    Zn1   S    
C8    N1    A    
C24   H21   S    
C22   H14   S    
C2    C3    A    
C1    O2    A    
O8    Zn2   S    
C7    N1    A    
C23   H16   S    
N2    Zn1   S    
C12   O4    A    
O7    Zn1   S    
C21   H11   S    
C6    O12   S    
C15   O8    A    
O12   C24   S    
C16   H1    S    
C3    C14   S    
C2    O9    S    
C15   O7    A    
O3    Zn1   S    
C4    C5    S    
C10   N2    A    
C11   H3    S    
C22   H13   S    
C5    O10   S    
O2    Zn2   S    
C5    H9    S    
O1    Zn1   S    
O6    Zn2   S    
C5    C6    S    
C6    C18   S    
C21   H12   S    
C9    H2    S    
C1    C19   S    
C10   C11   S    
C13   H6    S    
C24   H20   S    
C3    C4    A    
C17   H7    S    
C12   C16   S    
C11   H4    S    
C7    C13   S    
O11   C23   S    
C14   O6    A    
C18   C19   A    
O9    C21   S    
C23   H18   S    
C15   C17   S    
C2    C20   A    
C9    N2    A    
C16   C17   D    
C14   O5    A    
N3    H23   S    
C20   H8    S    
C6    O11   S    
C24   H19   S    
C12   O3    A    
C4    C18   A    
C22   H15   S    
C1    O1    A    
O10   C22   S    
C8    N3    S    
C8    C9    A    
C13   H5    S    
