data_mof_unit_47049.cif
_audit_creation_date              2012-12-10T19:00:11-0500
_audit_creation_method            fapswitch 2.2
_symmetry_space_group_name_H-M    P1
_symmetry_Int_Tables_number       1
_space_group_crystal_system       triclinic
_cell_length_a                    9.59574
_cell_length_b                    10.754348
_cell_length_c                    13.490002
_cell_angle_alpha                 91.147856
_cell_angle_beta                  73.2504
_cell_angle_gamma                 89.628705
_cell_volume                      1332.6739224

loop_
_atom_site_label
_atom_site_type_symbol
_atom_type_description
_atom_site_fract_x
_atom_site_fract_y
_atom_site_fract_z
_atom_type_partial_charge
C1    C     C_R   0.499889 0.737219 0.499895 0.788913
C2    C     C_R   0.431014 0.532145 0.980586 0.094294
C3    C     C_R   0.467171 0.554548 0.873204 -0.042674
C4    C     C_R   0.536097 0.555984 0.034218 -0.012982
C5    C     C_R   0.679399 0.587965 0.978293 0.048456
C6    C     C_R   0.705221 0.631888 0.877729 0.412942
C7    C     C_R   0.596195 0.619457 0.827548 -0.251974
C8    C     C_R   0.502150 0.555180 0.142418 0.397799
C9    C     C_R   0.759648 0.549533 0.130307 -0.288564
C10   C     C_R   0.372568 0.513336 0.815182 -0.098429
C11   C     C_R   0.419437 0.937932 0.586806 0.100163
C12   C     C_R   0.421634 0.506517 0.700104 0.844858
C13   C     C_R   0.501860 0.870354 0.500662 -0.126556
C14   C     C_R   0.603728 0.932689 0.421978 -0.191173
C15   C     C_R   0.604023 0.062685 0.422789 -0.105083
C16   C     C_R   0.503296 0.129461 0.502739 -0.109744
C17   C     C_R   0.420884 0.065690 0.588472 0.021331
C18   C     C_3   0.265177 0.075559 0.651712 0.189756
C19   C     C_3   0.262928 0.933013 0.647345 0.119572
C20   C     C_R   0.958908 0.441967 0.421612 0.010741
C21   C     C_R   0.895179 0.567212 0.570717 -0.026856
C22   C     C_R   0.042050 0.567804 0.572003 0.480646
C23   C     C_R   0.500017 0.262745 0.501397 0.865648
C24   C     C_R   0.105820 0.441615 0.421651 0.149653
C25   C     C_3   0.126429 0.307649 0.386935 0.589156
C26   C     C_3   0.967844 0.308257 0.385547 0.125139
C27   C     C_R   0.576486 0.510003 0.301043 0.815760
C28   C     C_R   0.790954 0.583465 0.026878 -0.135680
C29   C     C_R   0.614534 0.536697 0.189703 -0.136351
C30   C     C_R   0.232914 0.468115 0.868242 0.484684
C31   C     C_R   0.196382 0.451984 0.975152 -0.269792
C32   C     C_R   0.295502 0.478393 0.029321 -0.102665
Cu1   Cu    Cu3+1 0.359330 0.500020 0.500010 1.040200
Cu2   Cu    Cu3+1 0.640670 0.499980 0.499990 0.976353
H1    H     H_    0.847724 0.540540 0.165094 0.182761
H2    H     H_    0.677632 0.110670 0.359203 0.173333
H3    H     H_    0.193423 0.119746 0.611086 0.143327
H4    H     H_    0.192673 0.892936 0.602186 0.089218
H5    H     H_    0.815321 0.621542 0.627349 0.139465
H6    H     H_    0.952910 0.296914 0.307186 0.146204
H7    H     H_    0.902545 0.603242 0.984538 0.205010
H8    H     H_    0.264519 0.452201 0.109073 0.247006
H9    H     H_    0.092402 0.413204 0.016413 0.152815
H10   H     H_    0.612169 0.661668 0.753373 0.152794
H11   H     H_    0.677636 0.881304 0.358116 0.156978
N1    N     N_R   0.852320 0.499070 0.499340 -0.210670
N2    N     N_R   0.148230 0.499110 0.499340 -0.228940
O1    O     O_R   0.381190 0.680360 0.500000 -0.634864
O2    O     O_R   0.618780 0.680320 0.499990 -0.582694
O3    O     O_R   0.323230 0.500000 0.650990 -0.515103
O4    O     O_R   0.560820 0.499960 0.650980 -0.602146
O5    O     O_R   0.381220 0.319680 0.500010 -0.513935
O6    O     O_R   0.618810 0.319640 0.500000 -0.535831
O7    O     O_R   0.439180 0.500040 0.349020 -0.533245
O8    O     O_R   0.676770 0.500000 0.349010 -0.588394
Cl1   Cl    Cl    0.249692 0.143112 0.776675 -0.514372
O9    O     O_3   0.246326 0.877717 0.743185 -0.643300
H12   H     H_    0.139846 0.872988 0.776155 0.374185
O10   O     O_3   0.070691 0.636237 0.650736 -0.702303
H13   H     H_    0.173210 0.659173 0.629594 0.374048
Cl2   Cl    Cl    0.256164 0.284935 0.262931 -0.645018
O11   O     O_3   0.151958 0.230137 0.462079 -0.715669
H14   H     H_    0.155553 0.143899 0.433783 0.342911
O12   O     O_3   0.833727 0.692130 0.832487 -0.690759
H15   H     H_    0.824091 0.736361 0.771045 0.336048
O13   O     O_3   0.880495 0.226797 0.457425 -0.683844
H16   H     H_    0.880644 0.253223 0.528398 0.367318
O14   O     O_3   0.363754 0.591934 0.199537 -0.725317
H17   H     H_    0.374030 0.657409 0.249743 0.331325
O15   O     O_3   0.135556 0.435532 0.814216 -0.643841
H18   H     H_    0.044169 0.405907 0.863026 0.337954

loop_
_geom_bond_atom_site_label_1
_geom_bond_atom_site_label_2
_ccdc_geom_bond_type
C23   O5    A    
C2    C4    A    
C1    O1    A    
C8    O14   S    
C6    C7    A    
Cu2   N1    S    
C19   H4    S    
C18   Cl1   S    
C27   C29   S    
C5    C28   A    
C10   C30   A    
C12   O3    A    
C31   C32   A    
C21   H5    S    
C9    C29   A    
C30   C31   A    
C4    C8    A    
C26   H6    S    
O12   H15   S    
C17   C18   S    
O9    H12   S    
C27   O7    A    
Cu2   O8    S    
C22   O10   S    
C3    C10   A    
C25   Cl2   S    
C7    H10   S    
C19   O9    S    
Cu1   O5    S    
C11   C13   A    
C11   C19   S    
Cu2   O4    S    
O11   H14   S    
C20   C26   S    
C8    C29   A    
C10   C12   S    
C30   O15   S    
C18   H3    S    
Cu1   Cu2   S    
C23   O6    A    
C16   C23   S    
C2    C3    A    
C25   O11   S    
C5    C6    A    
Cu1   N2    S    
C13   C14   A    
C27   O8    A    
O15   H18   S    
C1    C13   S    
C15   C16   A    
C26   O13   S    
C16   C17   A    
C15   H2    S    
O10   H13   S    
C12   O4    A    
O13   H16   S    
C24   C25   S    
Cu2   O6    S    
C2    C32   A    
C21   N1    A    
C6    O12   S    
Cu1   O7    S    
C9    H1    S    
Cu1   O1    S    
C32   H8    S    
C14   C15   A    
C18   C19   S    
Cu2   O2    S    
Cu1   O3    S    
C3    C7    A    
C14   H11   S    
C25   C26   S    
C21   C22   A    
C24   N2    A    
C1    O2    A    
C31   H9    S    
O14   H17   S    
C22   N2    A    
C20   N1    A    
C28   H7    S    
C20   C24   A    
C9    C28   A    
C4    C5    A    
C11   C17   A    
