data_mof_unit_51033.cif
_audit_creation_date              2012-12-11T14:38:20-0500
_audit_creation_method            fapswitch 2.2
_symmetry_space_group_name_H-M    P1
_symmetry_Int_Tables_number       1
_space_group_crystal_system       triclinic
_cell_length_a                    19.492741
_cell_length_b                    11.204256
_cell_length_c                    19.610838
_cell_angle_alpha                 90.423311
_cell_angle_beta                  96.78341
_cell_angle_gamma                 90.482465
_cell_volume                      4252.7548961

loop_
_atom_site_label
_atom_site_type_symbol
_atom_type_description
_atom_site_fract_x
_atom_site_fract_y
_atom_site_fract_z
_atom_type_partial_charge
C1    C     C_R   0.725433 0.952763 0.359801 0.597028
C2    C     C_3   0.163123 0.468528 0.474198 0.183057
C3    C     C_3   0.311947 0.263429 0.338566 -0.397373
C4    C     C_3   0.147534 0.803712 0.585461 -0.269654
C5    C     C_3   0.161165 0.767329 0.661144 -0.428972
C6    C     C_3   0.840440 0.777098 0.392092 -0.282488
C7    C     C_3   0.820271 0.737969 0.317323 -0.422407
C8    C     C_3   0.332396 0.895521 0.540339 0.207821
C9    C     C_3   0.672777 0.899479 0.461150 0.200768
C10   C     C_3   0.744707 0.289789 0.551672 -0.172549
C11   C     C_3   0.255198 0.328360 0.446472 -0.151256
C12   C     C_3   0.213124 0.812122 0.548239 -0.144758
C13   C     C_3   0.777935 0.789173 0.434028 -0.166843
C14   C     C_3   0.757562 0.423291 0.567090 0.026323
C15   C     C_3   0.231259 0.459171 0.439008 0.017098
C16   C     C_3   0.260740 0.921396 0.566129 0.043315
C17   C     C_R   0.274377 0.951704 0.639860 0.570360
C18   C     C_3   0.743014 0.911453 0.430144 0.040388
C19   C     C_3   0.744402 0.397022 0.433968 -0.063937
C20   C     C_3   0.251106 0.412179 0.569963 -0.064285
C21   C     C_3   0.246670 0.891476 0.433619 -0.056297
C22   C     C_3   0.764810 0.851176 0.559048 -0.063231
C23   C     C_3   0.812996 0.462328 0.456500 0.223966
C24   C     C_3   0.178481 0.465693 0.552020 0.247679
C25   C     C_3   0.324782 0.879685 0.464024 0.258656
C26   C     C_3   0.685338 0.867938 0.535547 0.249963
C27   C     C_3   0.742588 0.278148 0.472677 -0.273112
C28   C     C_R   0.211349 0.491100 0.366967 0.616011
C29   C     C_3   0.260269 0.303463 0.523898 -0.285137
C30   C     C_3   0.194977 0.811682 0.468800 -0.220347
C31   C     C_3   0.797192 0.761971 0.511453 -0.247253
C32   C     C_3   0.423183 0.274340 0.974485 -0.239965
C33   C     C_3   0.445675 0.271075 0.052190 -0.232121
C34   C     C_3   0.923163 0.774321 0.974493 -0.239777
C35   C     C_3   0.945649 0.771050 0.052201 -0.232362
C36   C     C_3   0.441640 0.052995 0.968573 -0.230606
C37   C     C_3   0.562674 0.196251 0.027720 -0.230403
C38   C     C_3   0.941647 0.552986 0.968574 -0.230781
C39   C     C_R   0.773798 0.452200 0.640172 0.593001
C40   C     C_3   0.062660 0.696284 0.027726 -0.230204
C41   C     C_3   0.539359 0.194143 0.950616 -0.220994
C42   C     C_3   0.467496 0.050459 0.046359 -0.237803
C43   C     C_3   0.039349 0.694172 0.950623 -0.221079
C44   C     C_3   0.967501 0.550450 0.046361 -0.237515
C45   C     C_R   0.536010 0.180497 0.338343 0.551953
C46   C     C_R   0.463814 0.180493 0.661518 0.561066
C47   C     C_R   0.034654 0.680538 0.337452 0.560743
C48   C     C_R   0.963630 0.680508 0.661321 0.570426
C49   C     C_3   0.460167 0.175274 0.937406 0.045965
C50   C     C_3   0.683094 0.471573 0.454090 -0.241195
C51   C     C_3   0.500796 0.172713 0.069078 0.056885
C52   C     C_3   0.960161 0.675275 0.937409 0.046135
C53   C     C_3   0.000785 0.672713 0.069085 0.056966
C54   C     C_1   0.756745 0.413078 0.900216 -0.013641
C55   C     C_1   0.219024 0.474387 0.085354 -0.021268
C56   C     C_1   0.256733 0.913054 0.900207 -0.013640
C57   C     C_1   0.719047 0.974330 0.085362 -0.020244
C58   C     C_1   0.735217 0.362531 0.026278 -0.051037
C59   C     C_1   0.241345 0.436724 0.958096 -0.047422
C60   C     C_1   0.235200 0.862486 0.026268 -0.051203
C61   C     C_3   0.306688 0.503017 0.553872 -0.244320
C62   C     C_1   0.741363 0.936680 0.958104 -0.047939
C63   C     C_1   0.744828 0.387464 0.957384 -0.046740
C64   C     C_1   0.229622 0.458512 0.026684 -0.050095
C65   C     C_1   0.244811 0.887426 0.957372 -0.046752
C66   C     C_1   0.729647 0.958451 0.026694 -0.050028
C67   C     C_1   0.729083 0.341508 0.085587 -0.020921
C68   C     C_1   0.251214 0.409536 0.900536 -0.013989
C69   C     C_1   0.229071 0.841470 0.085580 -0.020989
C70   C     C_1   0.751222 0.909516 0.900538 -0.016312
C71   C     C_R   0.739124 0.363330 0.361052 0.587798
C72   C     C_3   0.225159 0.017751 0.447842 -0.268427
C73   C     C_R   0.259886 0.366722 0.640612 0.578571
C74   C     C_R   0.239576 0.862054 0.360956 0.543036
C75   C     C_R   0.774734 0.813191 0.631936 0.581970
C76   C     C_R   0.705232 0.996344 0.154527 0.525866
C77   C     C_R   0.277070 0.952831 0.835937 0.514962
C78   C     C_R   0.205221 0.496371 0.154528 0.529004
C79   C     C_R   0.777072 0.452835 0.835938 0.518852
C80   C     C_R   0.529435 0.178617 0.142179 0.517414
C81   C     C_R   0.438338 0.182232 0.862781 0.541143
C82   C     C_R   0.029427 0.678617 0.142185 0.517162
C83   C     C_3   0.803332 0.968312 0.549626 -0.242847
C84   C     C_R   0.938337 0.682233 0.862781 0.541171
C85   C     C_R   0.722716 0.312251 0.155889 0.528779
C86   C     C_R   0.263080 0.361454 0.835090 0.532664
C87   C     C_R   0.222712 0.812235 0.155889 0.528886
C88   C     C_R   0.763078 0.861462 0.835084 0.537963
C89   C     C_1   0.484970 0.173389 0.594204 0.075809
C90   C     C_1   0.513862 0.173661 0.405209 0.051837
C91   C     C_1   0.982910 0.673413 0.593124 0.073330
C92   C     C_1   0.009911 0.674361 0.403315 0.085623
C93   C     C_1   0.503274 0.170706 0.464405 0.021046
C94   C     C_3   0.826102 0.455018 0.534321 0.202839
C95   C     C_1   0.494772 0.170562 0.534755 0.036207
C96   C     C_1   0.998724 0.671256 0.462483 0.056747
C97   C     C_1   0.990698 0.670417 0.533055 0.041843
C98   C     C_3   0.692551 0.492593 0.532334 0.225669
C99   C     C_3   0.290254 0.540645 0.478178 0.249980
C100  C     C_3   0.230746 0.031395 0.526360 0.229654
C101  C     C_3   0.787950 0.003587 0.474851 0.220627
C102  C     C_3   0.680402 0.229119 0.576961 -0.235840
C103  C     C_3   0.678897 0.234390 0.654641 -0.401192
C104  C     C_3   0.322774 0.290857 0.415746 -0.246737
Cr1   Cr    Cr6+3 0.765780 0.160710 0.267420 1.094851
Cr2   Cr    Cr6+3 0.383970 0.323720 0.751490 1.025840
Cr3   Cr    Cr6+3 0.116030 0.823720 0.248510 1.018285
Cr4   Cr    Cr6+3 0.883970 0.823720 0.751490 1.020239
Cr5   Cr    Cr6+3 0.234220 0.160710 0.732580 1.096395
Cr6   Cr    Cr6+3 0.265780 0.660710 0.267420 1.099461
Cr7   Cr    Cr6+3 0.734220 0.660710 0.732580 1.097757
Cr8   Cr    Cr6+3 0.612200 0.009560 0.248850 1.045106
Cr9   Cr    Cr6+3 0.387800 0.009560 0.751150 1.057717
Cr10  Cr    Cr6+3 0.112200 0.509560 0.248850 1.042174
Cr11  Cr    Cr6+3 0.887800 0.509560 0.751150 1.058916
Cr12  Cr    Cr6+3 0.616030 0.323720 0.248510 1.022826
F1    F     F_    0.868517 0.412865 0.428397 -0.595762
F2    F     F_    0.634960 0.004150 0.454024 -0.687677
F3    F     F_    0.860063 0.554774 0.562214 -0.695566
F4    F     F_    0.125998 0.568070 0.455888 -0.720422
F5    F     F_    0.126647 0.400738 0.578064 -0.585170
F6    F     F_    0.355897 0.772998 0.450329 -0.565348
F7    F     F_    0.645793 0.767237 0.544812 -0.614519
F8    F     F_    0.632629 0.462641 0.559925 -0.619013
F9    F     F_    0.350190 0.543520 0.446903 -0.563748
F10   F     F_    0.167212 0.064223 0.545629 -0.629415
F11   F     F_    0.847542 0.039669 0.448274 -0.627603
F12   F     F_    0.379361 0.987793 0.557507 -0.667690
H1    H     H_    0.696888 0.587080 0.543483 0.230777
H2    H     H_    0.128400 0.391756 0.457125 0.223762
H3    H     H_    0.354830 0.812992 0.565073 0.207463
H4    H     H_    0.640127 0.827774 0.433650 0.219189
H5    H     H_    0.366212 0.261390 0.964514 0.111746
H6    H     H_    0.466360 0.360827 0.068878 0.153610
H7    H     H_    0.866194 0.761352 0.964517 0.111429
H8    H     H_    0.966319 0.860808 0.068896 0.153485
H9    H     H_    0.435484 0.363974 0.954758 0.149154
H10   H     H_    0.400080 0.253192 0.079935 0.124186
H11   H     H_    0.935456 0.863963 0.954769 0.149025
H12   H     H_    0.274472 0.631616 0.478544 0.175706
H13   H     H_    0.900056 0.753139 0.079944 0.123254
H14   H     H_    0.384751 0.038402 0.960732 0.123189
H15   H     H_    0.586469 0.284973 0.041945 0.135776
H16   H     H_    0.884760 0.538372 0.960730 0.122827
H17   H     H_    0.086442 0.785016 0.041952 0.135971
H18   H     H_    0.423581 0.030684 0.076074 0.127863
H19   H     H_    0.555102 0.279719 0.928229 0.148946
H20   H     H_    0.923586 0.530657 0.076075 0.128623
H21   H     H_    0.055085 0.779754 0.928236 0.148262
H22   H     H_    0.566094 0.120991 0.925869 0.134381
H23   H     H_    0.270795 0.095880 0.542030 0.144776
H24   H     H_    0.505875 0.977843 0.056492 0.144504
H25   H     H_    0.066095 0.621031 0.925876 0.134707
H26   H     H_    0.005888 0.477847 0.056494 0.144697
H27   H     H_    0.603292 0.127965 0.039939 0.104711
H28   H     H_    0.465744 0.978225 0.942653 0.151058
H29   H     H_    0.103289 0.628017 0.039946 0.104486
H30   H     H_    0.965763 0.478228 0.942654 0.151116
H31   H     H_    0.633493 0.422756 0.439349 0.213087
H32   H     H_    0.358837 0.461888 0.561483 0.212210
H33   H     H_    0.171558 0.036269 0.424193 0.195299
H34   H     H_    0.752723 0.073728 0.476589 0.137966
H35   H     H_    0.860133 0.958074 0.563043 0.200161
H36   H     H_    0.679328 0.557558 0.426504 0.091781
H37   H     H_    0.308844 0.580470 0.589581 0.079754
H38   H     H_    0.259363 0.080296 0.425070 0.062948
H39   H     H_    0.786817 0.038250 0.584426 0.092172
H40   H     H_    0.355022 0.950333 0.440735 0.176997
H41   H     H_    0.665567 0.939652 0.567137 0.185065
H42   H     H_    0.808581 0.554598 0.438870 0.132985
H43   H     H_    0.178084 0.556713 0.574039 0.141773
H44   H     H_    0.790171 0.239922 0.576137 0.128154
H45   H     H_    0.791998 0.235752 0.463644 0.228357
H46   H     H_    0.213063 0.270086 0.420873 0.146433
H47   H     H_    0.243095 0.732085 0.563102 0.085433
H48   H     H_    0.738720 0.722337 0.412716 0.110054
H49   H     H_    0.696024 0.226581 0.449962 0.162671
H50   H     H_    0.311207 0.263517 0.542433 0.133247
H51   H     H_    0.141489 0.845969 0.455957 0.175613
H52   H     H_    0.854146 0.761371 0.525026 0.182105
H53   H     H_    0.729808 0.209224 0.682019 0.146422
H54   H     H_    0.664640 0.324819 0.671098 0.207881
H55   H     H_    0.639254 0.170698 0.669177 0.135780
H56   H     H_    0.214493 0.248753 0.530286 0.234587
H57   H     H_    0.631323 0.261820 0.549846 0.237152
H58   H     H_    0.681143 0.134018 0.562496 0.144497
H59   H     H_    0.265418 0.206488 0.324812 0.155047
H60   H     H_    0.307202 0.346104 0.308070 0.214251
H61   H     H_    0.357467 0.214712 0.323906 0.125893
H62   H     H_    0.366415 0.353418 0.427061 0.247221
H63   H     H_    0.343113 0.207930 0.440920 0.125077
H64   H     H_    0.203469 0.701378 0.669493 0.138607
H65   H     H_    0.173919 0.846072 0.694852 0.174925
H66   H     H_    0.113835 0.726061 0.677361 0.145817
H67   H     H_    0.190754 0.723984 0.444936 0.174899
H68   H     H_    0.116574 0.886276 0.580740 0.239254
H69   H     H_    0.115530 0.732186 0.558967 0.175590
H70   H     H_    0.788695 0.654695 0.314805 0.158805
H71   H     H_    0.791303 0.808192 0.287071 0.183069
H72   H     H_    0.867827 0.719830 0.293030 0.148399
H73   H     H_    0.872104 0.859698 0.393576 0.239257
H74   H     H_    0.874131 0.706526 0.415339 0.160176
H75   H     H_    0.778253 0.675020 0.520146 0.151731
H76   H     H_    0.864135 0.382219 0.546629 0.226025
O1    O     O_R   0.783100 0.287550 0.345460 -0.414630
O2    O     O_R   0.454350 0.284910 0.836260 -0.520842
O3    O     O_R   0.045650 0.784910 0.163740 -0.528705
O4    O     O_R   0.954350 0.784910 0.836260 -0.522416
O5    O     O_R   0.677950 0.374280 0.185410 -0.488355
O6    O     O_R   0.322050 0.374280 0.814590 -0.516224
O7    O     O_R   0.177950 0.874280 0.185410 -0.486955
O8    O     O_R   0.822050 0.874280 0.814590 -0.511209
O9    O     O_3   0.664670 0.164660 0.254930 -0.312386
O10   O     O_3   0.335330 0.164660 0.745070 -0.295032
O11   O     O_3   0.164670 0.664660 0.254930 -0.324805
O12   O     O_R   0.216900 0.287550 0.654540 -0.404748
O13   O     O_3   0.835330 0.664660 0.745070 -0.301856
O14   O     O_R   0.760020 0.037400 0.337700 -0.445404
O15   O     O_R   0.239980 0.037400 0.662300 -0.450455
O16   O     O_R   0.260020 0.537400 0.337700 -0.441900
O17   O     O_R   0.739980 0.537400 0.662300 -0.473253
O18   O     O_R   0.666600 0.921990 0.332020 -0.504395
O19   O     O_R   0.333400 0.921990 0.667980 -0.490302
O20   O     O_R   0.166600 0.421990 0.332020 -0.519378
O21   O     O_R   0.833400 0.421990 0.667980 -0.494314
O22   O     O_R   0.557260 0.082670 0.312540 -0.448959
O23   O     O_R   0.283100 0.787550 0.345460 -0.414849
O24   O     O_R   0.442740 0.082670 0.687460 -0.435182
O25   O     O_R   0.057260 0.582670 0.312540 -0.454659
O26   O     O_R   0.942740 0.582670 0.687460 -0.425565
O27   O     O_R   0.548410 0.285740 0.316480 -0.513880
O28   O     O_R   0.451590 0.285740 0.683520 -0.507905
O29   O     O_R   0.048410 0.785740 0.316480 -0.520377
O30   O     O_R   0.951590 0.785740 0.683520 -0.529978
O31   O     O_R   0.680500 0.375040 0.327000 -0.518034
O32   O     O_R   0.319500 0.375040 0.673000 -0.522783
O33   O     O_R   0.180500 0.875040 0.327000 -0.509234
O34   O     O_R   0.716900 0.787550 0.654540 -0.436707
O35   O     O_R   0.819500 0.875040 0.673000 -0.516303
O36   O     O_R   0.780350 0.286720 0.192720 -0.500907
O37   O     O_R   0.219650 0.286720 0.807280 -0.502777
O38   O     O_R   0.280350 0.786720 0.192720 -0.506433
O39   O     O_R   0.719650 0.786720 0.807280 -0.502525
O40   O     O_R   0.757470 0.036630 0.196110 -0.514782
O41   O     O_R   0.242530 0.036630 0.803890 -0.508898
O42   O     O_R   0.257470 0.536630 0.196110 -0.510331
O43   O     O_R   0.742530 0.536630 0.803890 -0.502938
O44   O     O_R   0.663840 0.921160 0.179280 -0.507696
O45   O     O_R   0.554710 0.081900 0.170950 -0.526241
O46   O     O_R   0.336160 0.921160 0.820720 -0.522989
O47   O     O_R   0.163840 0.421160 0.179280 -0.500083
O48   O     O_R   0.836160 0.421160 0.820720 -0.524138
O49   O     O_R   0.445290 0.081900 0.829050 -0.510364
O50   O     O_R   0.054710 0.581900 0.170950 -0.525585
O51   O     O_R   0.945290 0.581900 0.829050 -0.509682
O52   O     O_R   0.545650 0.284910 0.163740 -0.528318

loop_
_geom_bond_atom_site_label_1
_geom_bond_atom_site_label_2
_ccdc_geom_bond_type
C10   C27   S    
C3    C104  S    
C13   H48   S    
C78   O47   A    
C29   H56   S    
C35   C53   S    
C103  H54   S    
C68   C86   S    
C79   O48   A    
C37   H27   S    
C19   C71   S    
C57   C66   T    
Cr4   O4    S    
Cr5   O12   S    
C70   C88   S    
C3    H60   S    
C27   H45   S    
C88   O39   A    
Cr8   O45   S    
C99   F9    S    
C46   C89   S    
C76   O44   A    
C98   F8    S    
Cr3   O33   S    
C59   C64   S    
C102  H58   S    
Cr2   O32   S    
C40   H17   S    
C103  H55   S    
Cr9   O10   S    
C57   C76   S    
C101  H34   S    
C76   O40   A    
C61   H37   S    
Cr11  O21   S    
Cr6   O23   S    
C3    H61   S    
Cr12  O52   S    
C32   H5    S    
C37   C51   S    
C43   C52   S    
Cr3   O7    S    
C54   C63   T    
C10   H44   S    
C56   C65   T    
Cr2   O6    S    
C81   O49   A    
C34   H11   S    
C92   C96   T    
C62   C70   T    
C4    H68   S    
C34   C35   S    
Cr7   O17   S    
C49   C81   S    
C7    H72   S    
C52   C84   S    
C24   H43   S    
C36   H14   S    
C51   C80   S    
Cr9   O19   S    
Cr11  O26   S    
C83   H35   S    
C2    H2    S    
C14   C39   S    
C75   O35   A    
C44   C53   S    
C8    F12   S    
C40   C43   S    
C20   C24   S    
C26   H41   S    
C16   C17   S    
C73   O32   A    
C48   C91   S    
C30   H51   S    
C73   O12   A    
C46   O24   A    
C1    O14   A    
C71   O31   A    
C4    C12   S    
Cr6   O16   S    
C25   F6    S    
Cr1   O40   S    
Cr3   O3    S    
C69   C87   S    
C42   C51   S    
C87   O7    A    
Cr6   O42   S    
Cr3   O29   S    
Cr5   O41   S    
C8    C16   S    
C55   C64   T    
C38   H16   S    
C9    F2    S    
Cr2   O2    S    
C61   C99   S    
C9    C18   S    
Cr8   O18   S    
C22   C75   S    
C84   O51   A    
C47   C92   S    
Cr2   O10   S    
C35   H8    S    
C33   H6    S    
C41   C49   S    
C82   O3    A    
Cr4   O8    S    
C9    C26   S    
C14   C98   S    
C20   C29   S    
C25   H40   S    
Cr10  O50   S    
Cr4   O30   S    
C67   C85   S    
C102  H57   S    
Cr1   O9    S    
C22   C31   S    
C62   C66   S    
C21   C72   S    
C50   H36   S    
C101  F11   S    
Cr7   O34   S    
Cr12  O9    S    
C12   C16   S    
C40   H29   S    
C10   C102  S    
C60   C69   T    
Cr9   O49   S    
C38   H30   S    
C6    H73   S    
Cr12  O31   S    
Cr5   O10   S    
C10   C14   S    
C50   C98   S    
C41   H22   S    
C55   C78   S    
C2    F4    S    
C16   C100  S    
Cr9   O24   S    
Cr11  O48   S    
C104  H63   S    
C83   H39   S    
C21   C74   S    
Cr9   O46   S    
C3    H59   S    
C1    O18   A    
C18   C101  S    
C79   O43   A    
C89   C95   T    
C19   C23   S    
C38   C44   S    
C74   O23   A    
Cr5   O15   S    
C72   H38   S    
C59   C68   T    
C5    H64   S    
C94   F3    S    
Cr6   O38   S    
Cr11  O13   S    
C30   H67   S    
C41   H19   S    
Cr4   O35   S    
Cr5   O37   S    
C33   H10   S    
C28   O20   A    
C104  H62   S    
C96   C97   S    
C5    H66   S    
C8    H3    S    
C1    C18   S    
Cr11  O51   S    
C100  H23   S    
C80   O52   A    
Cr8   O9    S    
C91   C97   T    
Cr1   O1    S    
C2    C15   S    
C11   C104  S    
C35   H13   S    
C12   H47   S    
Cr4   O13   S    
C13   C18   S    
Cr7   O43   S    
C4    H69   S    
Cr10  O25   S    
C84   O4    A    
C60   C65   S    
C40   C53   S    
C11   C15   S    
C80   O45   A    
Cr12  O27   S    
C2    C24   S    
C100  F10   S    
C99   H12   S    
C61   H32   S    
C94   H76   S    
C26   F7    S    
C8    C25   S    
C42   H18   S    
C42   H24   S    
C36   H28   S    
C90   C93   T    
C5    H65   S    
C54   C79   S    
C72   C100  S    
C9    H4    S    
C58   C63   S    
Cr8   O44   S    
C21   C25   S    
C11   H46   S    
Cr7   O39   S    
C7    H71   S    
C37   H15   S    
C12   C30   S    
C43   H21   S    
C103  H53   S    
C46   O28   A    
Cr10  O11   S    
C13   C31   S    
C39   O17   A    
C86   O6    A    
C53   C82   S    
C15   C99   S    
C4    C5    S    
C87   O38   A    
Cr12  O5    S    
C17   O15   A    
C36   C42   S    
C23   F1    S    
C27   H49   S    
C6    H74   S    
C6    C7    S    
C47   O25   A    
C50   H31   S    
C33   C51   S    
C45   O27   A    
C21   C30   S    
C20   C61   S    
C34   C52   S    
C23   C94   S    
C31   H52   S    
C29   H50   S    
C85   O36   A    
C44   H26   S    
C32   C33   S    
C7    H70   S    
Cr6   O11   S    
C48   O26   A    
C32   H9    S    
C31   H75   S    
C22   C83   S    
C6    C13   S    
C19   C50   S    
C15   C28   S    
C93   C95   S    
C23   H42   S    
C34   H7    S    
C74   O33   A    
C86   O37   A    
Cr10  O47   S    
C98   H1    S    
C17   O19   A    
C24   F5    S    
C44   H20   S    
Cr1   O36   S    
Cr2   O28   S    
C20   C73   S    
C72   H33   S    
C77   O41   A    
C45   O22   A    
C37   C41   S    
C102  C103  S    
C78   O42   A    
C48   O30   A    
C32   C49   S    
C39   O21   A    
C56   C77   S    
C22   C26   S    
C58   C67   T    
C71   O1    A    
Cr3   O11   S    
C85   O5    A    
C11   C29   S    
C28   O16   A    
Cr1   O14   S    
C88   O8    A    
C38   C52   S    
C83   C101  S    
C82   O50   A    
C75   O34   A    
C77   O46   A    
Cr7   O13   S    
Cr10  O20   S    
C19   C27   S    
C43   H25   S    
C14   C94   S    
C45   C90   S    
C36   C49   S    
C81   O2    A    
C47   O29   A    
Cr8   O22   S    
