data_mof_unit_63666.cif
_audit_creation_date              2012-12-10T22:10:10-0500
_audit_creation_method            fapswitch 2.2
_symmetry_space_group_name_H-M    P1
_symmetry_Int_Tables_number       1
_space_group_crystal_system       triclinic
_cell_length_a                    16.470477
_cell_length_b                    16.613142
_cell_length_c                    28.415216
_cell_angle_alpha                 90.550517
_cell_angle_beta                  90.725579
_cell_angle_gamma                 90.293462
_cell_volume                      7774.06328291

loop_
_atom_site_label
_atom_site_type_symbol
_atom_type_description
_atom_site_fract_x
_atom_site_fract_y
_atom_site_fract_z
_atom_type_partial_charge
C1    C     C_R   0.615387 0.998923 0.562495 0.954833
C2    C     C_R   0.384613 0.001076 0.437505 0.954836
C3    C     C_R   0.934317 0.746381 0.089173 0.587234
C4    C     C_R   0.065683 0.253619 0.910826 0.587165
C5    C     C_R   0.044549 0.749848 0.165203 0.601431
C6    C     C_R   0.955451 0.250151 0.834797 0.601437
C7    C     C_R   0.046345 0.685819 0.133040 -0.248697
C8    C     C_R   0.953655 0.314181 0.866959 -0.248683
C9    C     C_R   0.943315 0.262055 0.167664 0.676685
C10   C     C_R   0.056593 0.737871 0.832294 0.676742
C11   C     C_R   0.942342 0.325332 0.135635 -0.253466
C12   C     C_R   0.057563 0.674592 0.864323 -0.253463
C13   C     C_R   0.195074 0.941239 0.370672 0.542030
C14   C     C_R   0.804921 0.058763 0.629334 0.542033
C15   C     C_R   0.258223 0.941994 0.403645 0.585051
C16   C     C_R   0.741772 0.058010 0.596361 0.585048
C17   C     C_R   0.789709 0.070530 0.364470 0.621476
C18   C     C_R   0.210274 0.929477 0.635518 0.621474
C19   C     C_R   0.728783 0.069757 0.397852 0.521455
C20   C     C_R   0.271201 0.930251 0.602136 0.521452
C21   C     C_3   0.995073 0.005071 0.248069 -0.111940
C22   C     C_3   0.004929 0.994925 0.751932 -0.111937
C23   C     C_R   0.614400 0.000913 0.437787 0.986317
C24   C     C_R   0.385600 0.999087 0.562212 0.986341
C25   C     C_R   0.192453 0.999381 0.335536 -0.284140
C26   C     C_R   0.807548 0.000613 0.664466 -0.284142
C27   C     C_R   0.319346 0.001340 0.401838 -0.403685
C28   C     C_R   0.680653 0.998658 0.598163 -0.403681
C29   C     C_R   0.801191 0.003593 0.335235 -0.265115
C30   C     C_R   0.198808 0.996404 0.664764 -0.265123
C31   C     C_R   0.678498 0.001555 0.402355 -0.443426
C32   C     C_R   0.321501 0.998444 0.597644 -0.443427
C33   C     C_R   0.002208 0.202028 0.164280 -0.162169
C34   C     C_R   0.997798 0.797982 0.835734 -0.162187
C35   C     C_R   0.000948 0.328035 0.099778 -0.318355
C36   C     C_R   0.999051 0.671969 0.900230 -0.318298
C37   C     C_R   0.988538 0.811836 0.159082 -0.284952
C38   C     C_R   0.011462 0.188163 0.840917 -0.284941
C39   C     C_R   0.991536 0.684504 0.094280 -0.411503
C40   C     C_R   0.008464 0.315496 0.905720 -0.411465
C41   C     C_1   0.067199 0.002232 0.277728 0.060648
C42   C     C_1   0.932802 0.997761 0.722274 0.060706
C43   C     C_1   0.996728 0.077218 0.219981 0.060100
C44   C     C_1   0.003277 0.922780 0.780023 0.060086
C45   C     C_R   0.253182 0.058181 0.332822 0.595746
C46   C     C_R   0.746823 0.941807 0.667175 0.595754
C47   C     C_1   0.924235 0.005290 0.277622 0.068366
C48   C     C_1   0.075767 0.994705 0.722379 0.068355
C49   C     C_1   0.992097 0.935414 0.217073 0.021850
C50   C     C_1   0.007904 0.064584 0.782927 0.021811
C51   C     C_1   0.125244 0.000609 0.303472 0.250024
C52   C     C_1   0.874757 0.999384 0.696530 0.250030
C53   C     C_1   0.989837 0.878679 0.190833 0.235105
C54   C     C_1   0.010164 0.121320 0.809167 0.235102
C55   C     C_1   0.998861 0.135200 0.195407 0.150345
C56   C     C_1   0.001146 0.864803 0.804601 0.150351
C57   C     C_1   0.867222 0.004726 0.303239 0.179161
C58   C     C_1   0.132779 0.995270 0.696762 0.179147
C59   C     C_R   0.993977 0.619649 0.059060 0.976651
C60   C     C_R   0.006023 0.380351 0.940940 0.976582
C61   C     C_R   0.999825 0.391310 0.064184 0.935730
C62   C     C_R   0.000174 0.608689 0.935817 0.935797
C63   C     C_R   0.316996 0.059517 0.365781 -0.243094
C64   C     C_R   0.683009 0.940474 0.634216 -0.243097
C65   C     C_R   0.751119 0.935269 0.338968 -0.208300
C66   C     C_R   0.248896 0.064719 0.661041 -0.208295
C67   C     C_R   0.689794 0.934410 0.372530 0.567499
C68   C     C_R   0.310221 0.065579 0.627479 0.567490
C69   C     C_R   0.061773 0.205311 0.129404 -0.220673
C70   C     C_R   0.938330 0.794784 0.870668 -0.220656
C71   C     C_R   0.061038 0.268338 0.097330 0.643788
C72   C     C_R   0.939059 0.731750 0.902737 0.643736
C73   C     C_R   0.933093 0.809980 0.121436 0.519933
C74   C     C_R   0.066907 0.190019 0.878564 0.519950
O1    O     O_R   0.588360 0.066690 0.547410 -0.541562
O2    O     O_R   0.411640 0.933310 0.452590 -0.541571
O3    O     O_R   0.586040 0.933310 0.452590 -0.564267
O4    O     O_R   0.413960 0.066690 0.547410 -0.564277
O5    O     O_R   0.587420 0.068270 0.453900 -0.556743
O6    O     O_R   0.412580 0.931730 0.546100 -0.556758
O7    O     O_R   0.586980 0.931730 0.546100 -0.639212
O8    O     O_R   0.413020 0.068270 0.453900 -0.639209
O9    O     O_R   0.063560 0.593880 0.045280 -0.632853
O10   O     O_R   0.936440 0.406120 0.954720 -0.632853
O11   O     O_R   0.931210 0.414910 0.046840 -0.631299
O12   O     O_R   0.068790 0.585090 0.953160 -0.631256
O13   O     O_R   0.067840 0.419730 0.049340 -0.549318
O14   O     O_R   0.932160 0.580270 0.950660 -0.549426
O15   O     O_R   0.926930 0.589050 0.042780 -0.549144
O16   O     O_R   0.073070 0.410950 0.957220 -0.549142
Zn1   Zn    Zn3+2 0.500930 0.090750 0.500880 1.163141
Zn2   Zn    Zn3+2 0.499070 0.909250 0.499120 1.163134
Zn3   Zn    Zn3+2 0.091890 0.503230 0.001680 1.097303
Zn4   Zn    Zn3+2 0.908110 0.496770 0.998320 1.097220
C75   C     C_1   0.380362 0.119317 0.361005 0.397580
N1    N     N_1   0.431112 0.167154 0.357142 -0.127007
C76   C     C_1   0.619647 0.880668 0.638988 0.397596
N2    N     N_1   0.568902 0.832825 0.642848 -0.127017
C77   C     C_1   0.762256 0.865574 0.308895 0.389046
N3    N     N_1   0.771245 0.809848 0.284806 -0.128466
C78   C     C_1   0.237776 0.134403 0.691125 0.389036
N4    N     N_1   0.228801 0.190121 0.715224 -0.128457
C79   C     C_1   0.123043 0.143605 0.125467 0.370388
N5    N     N_1   0.172015 0.094197 0.122350 -0.118695
C80   C     C_1   0.877174 0.856587 0.874671 0.370367
N6    N     N_1   0.828296 0.906073 0.877842 -0.118773
F1    F     F_    0.878773 0.870416 0.115577 -0.581323
F2    F     F_    0.121227 0.129584 0.884422 -0.581347
F3    F     F_    0.097509 0.752098 0.202332 -0.607181
F4    F     F_    0.902492 0.247901 0.797667 -0.607173
F5    F     F_    0.886443 0.258389 0.201898 -0.608499
F6    F     F_    0.113372 0.741455 0.798007 -0.608470
F7    F     F_    0.135656 0.884533 0.373452 -0.564659
F8    F     F_    0.864334 0.115475 0.626559 -0.564656
F9    F     F_    0.838601 0.136304 0.361149 -0.558596
F10   F     F_    0.161367 0.863712 0.638829 -0.558574
F11   F     F_    0.640756 0.868609 0.375542 -0.602112
F12   F     F_    0.359274 0.131371 0.624476 -0.602118
F13   F     F_    0.117180 0.269760 0.062634 -0.578473
F14   F     F_    0.883012 0.730397 0.937486 -0.578439
F15   F     F_    0.881432 0.746551 0.052108 -0.542036
F16   F     F_    0.118567 0.253448 0.947892 -0.542140
C81   C     C_1   0.103050 0.621136 0.141314 0.385106
N7    N     N_1   0.148364 0.569332 0.147961 -0.140748
C82   C     C_1   0.896952 0.378864 0.858685 0.385108
N8    N     N_1   0.851638 0.430668 0.852037 -0.140768
C83   C     C_1   0.882111 0.387668 0.140939 0.364048
N9    N     N_1   0.833943 0.437600 0.145213 -0.133488
C84   C     C_1   0.117689 0.612170 0.858968 0.363882
N10   N     N_1   0.165771 0.562169 0.854653 -0.133523
F17   F     F_    0.258277 0.886089 0.438222 -0.542791
F18   F     F_    0.741714 0.113924 0.561789 -0.542806
F19   F     F_    0.720600 0.135033 0.426512 -0.532178
F20   F     F_    0.279367 0.864987 0.573465 -0.532159
F21   F     F_    0.249932 0.114205 0.298259 -0.617693
F22   F     F_    0.750078 0.885776 0.701733 -0.617674

loop_
_geom_bond_atom_site_label_1
_geom_bond_atom_site_label_2
_ccdc_geom_bond_type
C9    F5    S    
C66   C68   A    
O3    Zn2   S    
C34   C56   S    
C78   N4    T    
C40   C60   S    
C5    C37   A    
C17   C29   A    
C22   C48   S    
C75   N1    T    
C19   C31   A    
C30   C58   S    
C21   C49   S    
C76   N2    T    
C81   N7    T    
C31   C67   A    
C62   O12   A    
C50   C54   T    
C59   O9    A    
C20   C32   A    
C61   O11   A    
C73   F1    S    
C1    O7    A    
O9    Zn3   S    
C63   C75   S    
C59   O15   A    
O15   Zn4   S    
C69   C71   A    
C61   O13   A    
C68   F12   S    
C21   C43   S    
O7    Zn2   S    
C24   O6    A    
C22   C44   S    
C4    C40   A    
C65   C67   A    
C1    C28   S    
C6    C38   A    
C10   F6    S    
C2    C27   S    
C18   C30   A    
C12   C36   A    
C34   C70   A    
C4    C74   A    
C16   C28   A    
C33   C69   A    
C32   C68   A    
C37   C53   S    
C35   C71   A    
C9    C33   A    
C6    F4    S    
C66   C78   S    
C13   C25   A    
C36   C62   S    
C69   C79   S    
O14   Zn4   S    
C45   F21   S    
C12   C84   S    
C1    O1    A    
C65   C77   S    
C35   C61   S    
C21   C41   S    
C18   F10   S    
C5    C7    A    
C6    C8    A    
C14   F8    S    
C62   O14   A    
C45   C63   A    
C23   O3    A    
O8    Zn1   S    
C46   C64   A    
C23   C31   S    
O6    Zn2   S    
C16   F18   S    
C11   C83   S    
C25   C51   S    
O12   Zn3   S    
C26   C52   S    
C47   C57   T    
C67   F11   S    
O11   Zn4   S    
C44   C56   T    
C15   C27   A    
C77   N3    T    
C38   C54   S    
C39   C59   S    
C72   F14   S    
C4    F16   S    
C33   C55   S    
C10   C34   A    
O10   Zn4   S    
C14   C26   A    
C9    C11   A    
C30   C66   A    
C10   C12   A    
O2    Zn2   S    
C29   C65   A    
C28   C64   A    
C24   O4    A    
C64   C76   S    
C29   C57   S    
C60   O16   A    
C71   F13   S    
C13   C15   A    
C82   N8    T    
C14   C16   A    
C2    O8    A    
C83   N9    T    
C25   C45   A    
C2    O2    A    
C17   F9    S    
O16   Zn3   S    
C84   N10   T    
C38   C74   A    
C43   C55   T    
C37   C73   A    
O5    Zn1   S    
C74   F2    S    
C7    C81   S    
C70   C80   S    
C48   C58   T    
O1    Zn1   S    
O4    Zn1   S    
C19   F19   S    
C80   N6    T    
C22   C50   S    
C23   O5    A    
C11   C35   A    
C60   O10   A    
C24   C32   S    
C22   C42   S    
C5    F3    S    
C49   C53   T    
O13   Zn3   S    
C17   C19   A    
C18   C20   A    
C3    C73   A    
C26   C46   A    
C46   F22   S    
C3    F15   S    
C8    C82   S    
C15   F17   S    
C79   N5    T    
C7    C39   A    
C27   C63   A    
C70   C72   A    
C8    C40   A    
C20   F20   S    
C41   C51   T    
C13   F7    S    
C3    C39   A    
C36   C72   A    
C42   C52   T    
C21   C47   S    
