data_mof_unit_11370.cif
_audit_creation_date              2012-12-10T17:09:34-0500
_audit_creation_method            fapswitch 2.2
_symmetry_space_group_name_H-M    P1
_symmetry_Int_Tables_number       1
_space_group_crystal_system       triclinic
_cell_length_a                    10.534339
_cell_length_b                    10.660315
_cell_length_c                    10.014447
_cell_angle_alpha                 92.341309
_cell_angle_beta                  89.177483
_cell_angle_gamma                 90.237038
_cell_volume                      1123.55440175

loop_
_atom_site_label
_atom_site_type_symbol
_atom_type_description
_atom_site_fract_x
_atom_site_fract_y
_atom_site_fract_z
_atom_type_partial_charge
C1    C     C_R   0.494113 0.262436 0.496910 0.852937
C2    C     C_2   0.583353 0.563206 0.078114 0.606812
C3    C     C_R   0.257663 0.498083 0.500795 0.986348
C4    C     C_R   0.510333 0.737985 0.503214 0.824519
C5    C     C_R   0.742385 0.498898 0.498880 0.991001
C6    C     C_3   0.035945 0.489834 0.625852 0.455313
C7    C     C_3   0.954234 0.388268 0.553080 -0.381286
C8    C     C_3   0.876809 0.496296 0.496301 -0.211716
C9    C     C_3   0.958391 0.596446 0.570198 0.385966
C10   C     C_3   0.043414 0.599720 0.444913 0.331900
C11   C     C_3   0.296461 0.133336 0.619507 -0.275678
C12   C     C_3   0.962974 0.499205 0.371029 -0.119935
C13   C     C_3   0.720766 0.735653 0.075125 -0.408824
C14   C     C_3   0.989338 0.449145 0.845153 -0.265818
C15   C     C_3   0.994794 0.765285 0.716403 -0.290287
C16   C     C_3   0.007814 0.796057 0.363131 -0.275336
C17   C     C_2   0.924243 0.501044 0.227685 0.497527
C18   C     C_2   0.086569 0.279506 0.349242 0.434239
C19   C     C_3   0.506113 0.912056 0.739678 -0.214102
C20   C     C_3   0.746188 0.060480 0.262538 -0.294069
C21   C     C_3   0.042578 0.394087 0.428490 -0.076743
C22   C     C_3   0.123220 0.494614 0.501747 -0.220987
C23   C     C_2   0.559056 0.930486 0.398529 -0.330473
C24   C     C_2   0.547820 0.869075 0.511780 0.406034
C25   C     C_2   0.570652 0.067122 0.408677 0.477805
C26   C     C_2   0.481652 0.128299 0.484457 0.343801
C27   C     C_2   0.592472 0.544927 0.925838 -0.293547
H1    H     H_    0.912628 0.302032 0.594600 0.176802
H2    H     H_    0.797102 0.699874 0.006233 0.173586
H3    H     H_    0.765875 0.804753 0.145133 0.174337
H4    H     H_    0.965736 0.348142 0.827963 0.172600
H5    H     H_    0.902635 0.507680 0.838594 0.174809
H6    H     H_    0.025393 0.461409 0.948294 0.192924
H7    H     H_    0.085996 0.777492 0.660692 0.176753
H8    H     H_    0.011762 0.717292 0.810695 0.190249
H9    H     H_    0.958099 0.860377 0.743901 0.182699
H10   H     H_    0.991216 0.856744 0.454239 0.203678
H11   H     H_    0.916067 0.755190 0.328419 0.145277
H12   H     H_    0.678451 0.573257 0.874766 0.194588
H13   H     H_    0.044021 0.856983 0.283782 0.178368
H14   H     H_    0.951620 0.579040 0.167279 0.055455
H15   H     H_    0.017172 0.212110 0.311671 0.082103
H16   H     H_    0.539290 0.834480 0.800889 0.178682
H17   H     H_    0.405742 0.895683 0.709765 0.167687
H18   H     H_    0.508063 0.998922 0.804469 0.164446
H19   H     H_    0.687021 0.023324 0.178645 0.155898
H20   H     H_    0.795196 0.983716 0.312945 0.154306
H21   H     H_    0.820267 0.121228 0.218876 0.206344
H22   H     H_    0.415701 0.484323 0.898497 0.172171
H23   H     H_    0.445261 0.435956 0.098558 0.117856
H24   H     H_    0.542917 0.885806 0.300748 0.147111
H25   H     H_    0.258060 0.219785 0.577182 0.191040
H26   H     H_    0.350289 0.155784 0.712127 0.169955
H27   H     H_    0.214109 0.074358 0.647690 0.174180
H28   H     H_    0.646290 0.786098 0.020909 0.162023
N1    N     N_2   0.501360 0.501330 0.852150 -0.208118
N2    N     N_2   0.501400 0.501360 0.147810 -0.207426
O1    O     O_R   0.499980 0.319060 0.613040 -0.639637
O2    O     O_3   0.669486 0.637979 0.150076 -0.561643
O3    O     O_3   0.085448 0.486243 0.755818 -0.610190
O4    O     O_3   0.902286 0.700207 0.640114 -0.612341
O5    O     O_3   0.100630 0.704956 0.387071 -0.603535
O6    O     O_2   0.863073 0.414119 0.177906 -0.578621
O7    O     O_2   0.199099 0.261369 0.326022 -0.583445
O8    O     O_3   0.590526 0.927779 0.630593 -0.606151
O9    O     O_3   0.673042 0.133708 0.354912 -0.615946
O10   O     O_R   0.500020 0.319100 0.386900 -0.571843
O11   O     O_R   0.313930 0.499950 0.613050 -0.604227
O12   O     O_R   0.313970 0.499990 0.386910 -0.573681
O13   O     O_R   0.499980 0.680900 0.613100 -0.617387
O14   O     O_R   0.500020 0.680940 0.386960 -0.604257
O15   O     O_R   0.686030 0.500010 0.613090 -0.614862
O16   O     O_R   0.686070 0.500050 0.386950 -0.549576
O17   O     O_3   0.371723 0.064356 0.524897 -0.642305
Zn1   Zn    Zn3+2 0.499970 0.499970 0.650990 0.967353
Zn2   Zn    Zn3+2 0.500030 0.500030 0.349010 1.066509

loop_
_geom_bond_atom_site_label_1
_geom_bond_atom_site_label_2
_ccdc_geom_bond_type
C18   C21   S    
C3    O11   A    
C14   H4    S    
C14   H6    S    
C4    O13   A    
C2    N2    D    
C7    C8    S    
C10   C22   S    
O11   Zn1   S    
C9    O4    S    
N2    Zn2   S    
C13   H2    S    
C3    O12   A    
C5    O15   A    
C18   H15   S    
O14   Zn2   S    
C4    C24   S    
C6    C22   S    
O12   Zn2   S    
C11   H25   S    
C26   O17   S    
C27   H12   S    
C8    C9    S    
C12   C17   S    
C23   C24   D    
C2    C27   S    
C9    C10   S    
C15   H7    S    
C11   H26   S    
C16   H10   S    
N1    Zn1   S    
C21   C22   S    
C10   O5    S    
C16   O5    S    
C6    C9    S    
O15   Zn1   S    
C15   H8    S    
C19   H16   S    
O1    Zn1   S    
C6    O3    S    
C13   H3    S    
C27   N1    D    
C25   C26   D    
C7    C21   S    
C12   C21   S    
C7    H1    S    
C23   H24   S    
C8    C12   S    
C15   O4    S    
C20   H21   S    
C11   H27   S    
C10   C12   S    
C24   O8    S    
C16   H13   S    
C1    C26   S    
O16   Zn2   S    
C15   H9    S    
C19   H17   S    
C20   O9    S    
C2    O2    S    
H23   N2    S    
C25   O9    S    
C14   H5    S    
C11   O17   S    
C5    C8    S    
C19   H18   S    
C6    C7    S    
C13   O2    S    
H22   N1    S    
C14   O3    S    
C1    O1    A    
C17   O6    D    
C18   O7    D    
C1    O10   A    
C19   O8    S    
C23   C25   S    
C5    O16   A    
C17   H14   S    
C20   H20   S    
O13   Zn1   S    
C3    C22   S    
O10   Zn2   S    
C4    O14   A    
C20   H19   S    
C16   H11   S    
C13   H28   S    
