data_mof_unit_35458.cif
_audit_creation_date              2012-12-10T16:54:31-0500
_audit_creation_method            fapswitch 2.2
_symmetry_space_group_name_H-M    P1
_symmetry_Int_Tables_number       1
_space_group_crystal_system       triclinic
_cell_length_a                    15.057064
_cell_length_b                    10.924582
_cell_length_c                    9.682412
_cell_angle_alpha                 89.994194
_cell_angle_beta                  90.409778
_cell_angle_gamma                 89.76987
_cell_volume                      1592.62698348

loop_
_atom_site_label
_atom_site_type_symbol
_atom_type_description
_atom_site_fract_x
_atom_site_fract_y
_atom_site_fract_z
_atom_type_partial_charge
C1    C     C_R   0.499084 0.265336 0.500018 0.848237
C2    C     C_R   0.904695 0.569912 0.399702 0.118843
C3    C     C_R   0.955313 0.369552 0.701363 -0.257655
C4    C     C_R   0.048248 0.369028 0.701949 -0.003242
C5    C     C_R   0.094379 0.438136 0.601340 0.059201
C6    C     C_R   0.046378 0.506201 0.500836 0.030420
C7    C     C_R   0.091279 0.576015 0.399470 0.076556
C8    C     C_R   0.041364 0.642096 0.300509 -0.211378
C9    C     C_R   0.949210 0.638241 0.300263 -0.215374
C10   C     C_R   0.187096 0.438589 0.596404 -0.271693
C11   C     C_R   0.231994 0.507609 0.497846 -0.113540
C12   C     C_R   0.328832 0.503149 0.499381 0.813964
C13   C     C_R   0.184807 0.578498 0.399731 -0.066948
C14   C     C_2   0.503955 0.933027 0.386577 -0.166911
C15   C     C_2   0.506095 0.866569 0.502789 -0.315633
C16   C     C_2   0.506731 0.067064 0.387090 -0.172903
C17   C     C_2   0.495259 0.133368 0.502059 -0.317683
C18   C     C_2   0.443995 0.436982 0.921539 -0.080904
C19   C     C_2   0.446587 0.432824 0.077299 -0.066957
C20   C     C_R   0.501341 0.734656 0.500134 0.854239
C21   C     C_R   0.671153 0.499675 0.500436 0.812242
C22   C     C_R   0.812282 0.566408 0.399323 -0.246154
C23   C     C_R   0.767582 0.500880 0.501181 -0.065020
C24   C     C_R   0.814949 0.436892 0.603152 -0.236087
C25   C     C_R   0.907673 0.436734 0.602610 0.087515
C26   C     C_R   0.953020 0.504341 0.501203 0.068506
Cu1   Cu    Cu3+1 0.500020 0.500020 0.638630 0.935359
Cu2   Cu    Cu3+1 0.499980 0.499980 0.361370 0.947764
H1    H     H_    0.774938 0.616522 0.321344 0.145962
H2    H     H_    0.513373 0.907332 0.603966 0.145834
H3    H     H_    0.517419 0.111944 0.288491 0.167822
H4    H     H_    0.481539 0.092516 0.601315 0.145314
H5    H     H_    0.393258 0.383375 0.869682 0.154782
H6    H     H_    0.549357 0.545830 0.894611 0.193724
H7    H     H_    0.400742 0.371562 0.128244 0.143218
H8    H     H_    0.539759 0.560955 0.106391 0.191672
H9    H     H_    0.779532 0.385485 0.681053 0.148887
H10   H     H_    0.920040 0.317081 0.778551 0.151683
H11   H     H_    0.225754 0.383576 0.667960 0.162662
H12   H     H_    0.072882 0.696685 0.221693 0.157069
H13   H     H_    0.912663 0.689234 0.222266 0.144120
H14   H     H_    0.500689 0.888352 0.286442 0.171463
N1    N     N_2   0.499020 0.498660 0.846910 -0.282362
N2    N     N_2   0.499000 0.498630 0.153040 -0.276375
O1    O     O_R   0.500020 0.321960 0.617040 -0.578633
O2    O     O_R   0.499980 0.321920 0.382900 -0.575860
O3    O     O_R   0.370270 0.499990 0.617090 -0.585328
O4    O     O_R   0.370240 0.499950 0.382940 -0.569304
O5    O     O_R   0.500020 0.678080 0.617100 -0.583566
O6    O     O_R   0.499980 0.678040 0.382960 -0.569812
O7    O     O_R   0.629760 0.500050 0.617060 -0.581919
O8    O     O_R   0.629730 0.500010 0.382910 -0.580642
C27   C     C_R   0.094578 0.293341 0.807534 0.117836
C28   C     C_R   0.085455 0.165420 0.805692 -0.154036
C29   C     C_R   0.129300 0.093317 0.904393 -0.135425
C30   C     C_R   0.182093 0.148356 0.005912 -0.106029
C31   C     C_R   0.190833 0.275624 0.009281 -0.150772
C32   C     C_R   0.146965 0.348210 0.910904 -0.161339
H15   H     H_    0.045016 0.121637 0.727174 0.129376
H16   H     H_    0.122475 0.994737 0.902048 0.129927
H17   H     H_    0.216136 0.092409 0.082061 0.123133
H18   H     H_    0.231694 0.317670 0.088214 0.116832
H19   H     H_    0.154124 0.446772 0.914523 0.125920
C33   C     C_R   0.232823 0.660077 0.303231 0.120019
C34   C     C_R   0.250453 0.621905 0.167726 -0.111771
C35   C     C_R   0.293707 0.700229 0.076171 -0.128869
C36   C     C_R   0.318571 0.817488 0.118963 -0.129806
C37   C     C_R   0.300473 0.856327 0.253476 -0.142472
C38   C     C_R   0.258267 0.777645 0.345852 -0.145468
H20   H     H_    0.230596 0.531905 0.133459 0.108615
H21   H     H_    0.307513 0.670247 0.971922 0.133781
H22   H     H_    0.351553 0.878407 0.047825 0.119084
H23   H     H_    0.319050 0.947497 0.286106 0.135612
H24   H     H_    0.244555 0.808564 0.449844 0.120679

loop_
_geom_bond_atom_site_label_1
_geom_bond_atom_site_label_2
_ccdc_geom_bond_type
C29   C30   A    
C22   H1    S    
C4    C27   S    
C11   C13   A    
C12   O4    A    
C7    C8    A    
C27   C28   A    
C16   H3    S    
Cu2   O2    S    
C36   H22   S    
C5    C6    A    
C1    O2    A    
C16   C17   D    
C34   H20   S    
C30   C31   A    
C18   C19   S    
C20   O6    A    
Cu2   O6    S    
C3    H10   S    
C8    C9    A    
C2    C22   A    
C23   C24   A    
C14   H14   S    
Cu1   O1    S    
C35   C36   A    
C29   H16   S    
C12   O3    A    
Cu1   O7    S    
C28   H15   S    
C22   C23   A    
C15   C20   S    
C36   C37   A    
C3    C25   A    
C24   C25   A    
C37   C38   A    
C31   H18   S    
C37   H23   S    
Cu2   N2    S    
C10   H11   S    
C20   O5    A    
C35   H21   S    
C11   C12   S    
C24   H9    S    
C38   H24   S    
C2    C26   A    
C33   C38   A    
C21   C23   S    
C14   C16   S    
H8    N2    S    
C3    C4    A    
C21   O7    A    
C19   N2    D    
C15   H2    S    
Cu1   O3    S    
C32   H19   S    
C28   C29   A    
Cu2   O4    S    
C30   H17   S    
C9    H13   S    
H6    N1    S    
C4    C5    A    
C27   C32   A    
C6    C7    A    
C1    C17   S    
C33   C34   A    
C25   C26   A    
C5    C10   A    
C19   H7    S    
C18   N1    D    
Cu2   O8    S    
C1    O1    A    
C31   C32   A    
C6    C26   A    
C13   C33   S    
C18   H5    S    
C10   C11   A    
Cu1   N1    S    
C7    C13   A    
C34   C35   A    
Cu1   Cu2   S    
C17   H4    S    
C14   C15   D    
C8    H12   S    
C2    C9    A    
C21   O8    A    
Cu1   O5    S    
