data_mof_unit_40180.cif
_audit_creation_date              2012-12-10T17:20:23-0500
_audit_creation_method            fapswitch 2.2
_symmetry_space_group_name_H-M    P1
_symmetry_Int_Tables_number       1
_space_group_crystal_system       triclinic
_cell_length_a                    11.651979
_cell_length_b                    10.847249
_cell_length_c                    9.72843
_cell_angle_alpha                 91.228849
_cell_angle_beta                  91.755684
_cell_angle_gamma                 93.87223
_cell_volume                      1225.87107

loop_
_atom_site_label
_atom_site_type_symbol
_atom_type_description
_atom_site_fract_x
_atom_site_fract_y
_atom_site_fract_z
_atom_type_partial_charge
C1    C     C_R   0.508846 0.262240 0.497310 0.777909
C2    C     C_R   0.663471 0.055369 0.824573 -0.291352
C3    C     C_R   0.585572 0.959389 0.861206 -0.230427
C4    C     C_R   0.509868 0.902618 0.761617 0.315960
C5    C     C_R   0.513601 0.943096 0.624804 -0.035291
C6    C     C_R   0.561535 0.062912 0.603388 0.012235
C7    C     C_R   0.522419 0.125974 0.487449 -0.143319
C8    C     C_R   0.475682 0.054053 0.371472 0.095616
C9    C     C_R   0.439465 0.928704 0.388501 0.106123
C10   C     C_R   0.472037 0.870369 0.509237 -0.152362
C11   C     C_R   0.658354 0.662915 0.145484 -0.170689
C12   C     C_R   0.284491 0.499891 0.498364 0.809007
C13   C     C_R   0.736844 0.738318 0.070332 0.081992
C14   C     C_R   0.749660 0.706876 0.929604 0.046711
C15   C     C_R   0.697467 0.593076 0.880722 0.202306
C16   C     C_R   0.587518 0.562655 0.932000 0.152790
C17   C     C_R   0.580158 0.574486 0.077967 0.086829
C18   C     C_R   0.416909 0.432719 0.068843 0.229280
C19   C     C_R   0.421267 0.426607 0.920912 0.252967
C20   C     C_R   0.488624 0.736275 0.502146 0.833491
C21   C     C_R   0.715620 0.503232 0.501425 0.787472
C22   C     C_1   0.162633 0.501192 0.495811 -0.177792
C23   C     C_1   0.060023 0.502413 0.497319 -0.009156
C24   C     C_1   0.940234 0.503565 0.500897 -0.018591
C25   C     C_1   0.837607 0.503953 0.502997 -0.206184
C26   C     C_R   0.652532 0.109067 0.694942 0.203372
Cu1   Cu    Cu3+1 0.499990 0.499990 0.640660 0.952431
Cu2   Cu    Cu3+1 0.500010 0.500010 0.359340 0.904465
H1    H     H_    0.729856 0.089830 0.898511 0.148690
H2    H     H_    0.585251 0.927943 0.965861 0.173775
H3    H     H_    0.656779 0.677801 0.253413 0.228583
N1    N     N_R   0.501070 0.501210 0.147910 -0.221812
N2    N     N_R   0.501110 0.501290 0.852040 -0.200943
O1    O     O_R   0.499990 0.319640 0.618810 -0.589824
O2    O     O_R   0.500000 0.319660 0.381240 -0.585352
O3    O     O_R   0.337190 0.500000 0.618790 -0.569987
O4    O     O_R   0.337200 0.500030 0.381210 -0.588889
O5    O     O_R   0.500000 0.680340 0.618760 -0.536411
O6    O     O_R   0.500010 0.680360 0.381190 -0.596277
O7    O     O_R   0.662800 0.499970 0.618790 -0.589342
O8    O     O_R   0.662810 0.500000 0.381210 -0.579917
C27   C     C_3   0.475480 0.103539 0.226599 -0.365741
C28   C     C_3   0.596997 0.141323 0.181153 -0.817162
H4    H     H_    0.641660 0.212523 0.250696 0.272367
H5    H     H_    0.648811 0.059466 0.178424 0.241333
H6    H     H_    0.592162 0.179382 0.076594 0.243087
H7    H     H_    0.438945 0.034934 0.149253 0.215763
H8    H     H_    0.419007 0.179136 0.217820 0.196170
C29   C     C_3   0.825366 0.783768 0.834792 -0.401414
C30   C     C_3   0.947264 0.740952 0.826455 -0.828786
H9    H     H_    0.985753 0.728959 0.930672 0.250131
H10   H     H_    0.947025 0.652829 0.766572 0.251245
H11   H     H_    0.002057 0.811155 0.772680 0.257742
H12   H     H_    0.784661 0.780372 0.729741 0.212207
H13   H     H_    0.831322 0.882327 0.867999 0.207836
C31   C     C_3   0.782991 0.490284 0.882748 -0.367010
C32   C     C_3   0.741965 0.371010 0.953211 -0.905277
H14   H     H_    0.721860 0.389859 0.062063 0.268260
H15   H     H_    0.665225 0.326555 0.897448 0.264778
H16   H     H_    0.811635 0.306185 0.954107 0.232689
H17   H     H_    0.810099 0.466619 0.778493 0.218093
H18   H     H_    0.863936 0.522835 0.939958 0.210646
C33   C     C_3   0.345923 0.323430 0.844842 -0.367220
C34   C     C_3   0.393176 0.196481 0.863772 -0.843614
H19   H     H_    0.375419 0.158205 0.965540 0.236273
H20   H     H_    0.353366 0.129691 0.785121 0.260257
H21   H     H_    0.487187 0.203616 0.851618 0.272153
H22   H     H_    0.254850 0.321828 0.874038 0.174786
H23   H     H_    0.337130 0.332873 0.735211 0.261479
C35   C     C_3   0.749058 0.197145 0.648724 -0.398178
C36   C     C_3   0.815033 0.140177 0.532959 -0.871428
H24   H     H_    0.758455 0.121410 0.440103 0.259124
H25   H     H_    0.849839 0.052510 0.566822 0.259774
H26   H     H_    0.887918 0.205243 0.505286 0.248996
H27   H     H_    0.715355 0.283612 0.614626 0.219716
H28   H     H_    0.812029 0.221233 0.734377 0.206529
Br1   Br    Br    0.380514 0.801555 0.822872 -0.599943
C37   C     C_3   0.338139 0.869830 0.302175 -0.414674
C38   C     C_3   0.371705 0.801294 0.172339 -0.731428
H29   H     H_    0.307348 0.816886 0.089539 0.260549
H30   H     H_    0.459288 0.831607 0.139535 0.258202
H31   H     H_    0.368584 0.700660 0.188069 0.276320
H32   H     H_    0.284837 0.804863 0.365020 0.201163
H33   H     H_    0.279930 0.942860 0.273058 0.185941
C39   C     C_3   0.310555 0.371883 0.134407 -0.358432
C40   C     C_3   0.207385 0.452270 0.124123 -0.806526
H34   H     H_    0.227568 0.545155 0.171219 0.267671
H35   H     H_    0.180431 0.464686 0.015256 0.234958
H36   H     H_    0.133648 0.407064 0.177830 0.235862
H37   H     H_    0.282277 0.281212 0.087989 0.160405
H38   H     H_    0.327595 0.342936 0.239102 0.236588
C41   C     C_3   0.810794 0.845593 0.137745 -0.375296
C42   C     C_3   0.800293 0.863013 0.293287 -0.890553
H39   H     H_    0.711189 0.883444 0.319059 0.257060
H40   H     H_    0.825570 0.779515 0.347701 0.256754
H41   H     H_    0.859447 0.942203 0.329768 0.251731
H42   H     H_    0.902568 0.832139 0.118468 0.220659
H43   H     H_    0.788882 0.932733 0.088810 0.189298

loop_
_geom_bond_atom_site_label_1
_geom_bond_atom_site_label_2
_ccdc_geom_bond_type
C42   H39   S    
C11   C13   A    
C39   H38   S    
C41   H43   S    
C7    C8    A    
C39   C40   S    
Cu1   N2    S    
C2    H1    S    
C8    C27   S    
C5    C6    A    
C40   H35   S    
C32   H15   S    
C14   C29   S    
Cu1   O5    S    
C29   H12   S    
C12   C22   S    
Cu2   O8    S    
C31   C32   S    
C18   C19   A    
C12   O4    A    
C37   H32   S    
C33   H23   S    
Cu2   O2    S    
C19   C33   S    
C8    C9    A    
C41   H42   S    
C30   H10   S    
C23   C24   S    
C35   C36   S    
C12   O3    A    
C9    C10   A    
C9    C37   S    
C11   H3    S    
C42   H40   S    
C1    C7    S    
C13   C14   A    
C1    O1    A    
Cu1   O1    S    
C30   H11   S    
C18   C39   S    
C34   H21   S    
Cu2   N1    S    
C24   C25   T    
C19   N2    A    
C10   C20   S    
C38   H30   S    
C20   O6    A    
C40   H34   S    
C16   C17   A    
C32   H16   S    
Cu2   O6    S    
C29   H13   S    
C33   C34   S    
C34   H20   S    
C3    H2    S    
C28   H4    S    
C16   N2    A    
C36   H26   S    
C20   O5    A    
C14   C15   A    
Cu1   O7    S    
C30   H9    S    
C2    C26   A    
C27   H8    S    
C28   H5    S    
C21   O8    A    
C42   H41   S    
C13   C41   S    
C35   H28   S    
C26   C35   S    
C31   H18   S    
C18   N1    A    
C27   C28   S    
C3    C4    A    
C35   H27   S    
C1    O2    A    
C36   H25   S    
C21   C25   S    
C33   H22   S    
C11   C17   A    
C31   H17   S    
C4    C5    A    
C40   H36   S    
C38   H31   S    
C39   H37   S    
C6    C7    A    
Cu1   O3    S    
C15   C31   S    
C2    C3    A    
C4    Br1   S    
C34   H19   S    
C37   C38   S    
C32   H14   S    
C6    C26   A    
C21   O7    A    
Cu2   O4    S    
C41   C42   S    
C27   H7    S    
C28   H6    S    
C38   H29   S    
C37   H33   S    
C5    C10   A    
C36   H24   S    
C29   C30   S    
Cu1   Cu2   S    
C17   N1    A    
C22   C23   T    
C15   C16   A    
