data_mof_unit_13098.cif
_audit_creation_date              2012-12-11T15:32:01-0500
_audit_creation_method            fapswitch 2.2
_symmetry_space_group_name_H-M    P1
_symmetry_Int_Tables_number       1
_space_group_crystal_system       triclinic
_cell_length_a                    13.57348
_cell_length_b                    13.585466
_cell_length_c                    27.661017
_cell_angle_alpha                 90.409492
_cell_angle_beta                  90.16441
_cell_angle_gamma                 119.909266
_cell_volume                      4421.17613763

loop_
_atom_site_label
_atom_site_type_symbol
_atom_type_description
_atom_site_fract_x
_atom_site_fract_y
_atom_site_fract_z
_atom_type_partial_charge
C1    C     C_R   0.619509 0.898360 0.431302 0.557186
C2    C     C_R   0.631156 0.234753 0.208656 -0.103471
C3    C     C_R   0.620509 0.217357 0.258580 -0.100980
C4    C     C_R   0.666194 0.310397 0.290687 0.042101
C5    C     C_R   0.687776 0.345383 0.190645 0.042010
C6    C     C_1   0.694341 0.365221 0.139424 -0.054900
C7    C     C_1   0.650322 0.290514 0.341835 -0.052144
C8    C     C_1   0.701644 0.390709 0.097413 -0.010993
C9    C     C_1   0.232457 0.862854 0.382734 -0.007146
C10   C     C_R   0.276191 0.893297 0.257419 -0.100734
C11   C     C_R   0.257195 0.884010 0.207431 -0.103493
C12   C     C_R   0.599715 0.218542 0.431321 0.550393
C13   C     C_R   0.053819 0.784708 0.221189 -0.101000
C14   C     C_R   0.072810 0.793884 0.271173 -0.102905
C15   C     C_R   0.184096 0.847756 0.289399 0.042157
C16   C     C_R   0.145895 0.829231 0.189202 0.041942
C17   C     C_1   0.124296 0.814037 0.137921 -0.054765
C18   C     C_1   0.205528 0.854346 0.340671 -0.052514
C19   C     C_1   0.097008 0.794578 0.095891 -0.010806
C20   C     C_1   0.634633 0.865861 0.383678 -0.003252
C21   C     C_R   0.701114 0.771524 0.272698 -0.102120
C22   C     C_R   0.708618 0.759671 0.222777 -0.101079
C23   C     C_R   0.279455 0.878842 0.430560 0.544853
C24   C     C_R   0.607981 0.862504 0.208344 -0.103419
C25   C     C_R   0.600375 0.874253 0.258260 -0.101230
C26   C     C_R   0.647380 0.829308 0.290542 0.042035
C27   C     C_R   0.662551 0.805555 0.190492 0.041993
C28   C     C_1   0.675622 0.796792 0.139276 -0.054905
C29   C     C_1   0.642193 0.845996 0.341727 -0.051844
C30   C     C_1   0.692997 0.787081 0.097267 -0.010970
C31   C     C_R   0.641817 0.283029 0.614384 0.026413
C32   C     C_R   0.728281 0.275818 0.639144 -0.135399
C33   C     C_R   0.741150 0.294914 0.688467 -0.130158
C34   C     C_R   0.620377 0.901288 0.569045 0.582796
C35   C     C_R   0.671489 0.326888 0.713266 0.033848
C36   C     C_R   0.595150 0.348400 0.687393 -0.112638
C37   C     C_R   0.579545 0.325501 0.638114 -0.105039
C38   C     C_R   0.577681 0.302637 0.792959 -0.122188
C39   C     C_R   0.585371 0.323292 0.842464 -0.127834
C40   C     C_R   0.788566 0.394306 0.839244 -0.126289
C41   C     C_R   0.781442 0.377076 0.789822 -0.123129
C42   C     C_R   0.676690 0.334918 0.766052 0.034991
C43   C     C_R   0.691809 0.374028 0.865387 0.024238
C44   C     C_R   0.225120 0.864398 0.615191 0.026575
C45   C     C_R   0.602102 0.223826 0.568210 0.542488
C46   C     C_R   0.245831 0.959637 0.643116 -0.123418
C47   C     C_R   0.220429 0.948084 0.691982 -0.120477
C48   C     C_R   0.171928 0.840889 0.713386 0.035905
C49   C     C_R   0.142856 0.744455 0.684644 -0.111594
C50   C     C_R   0.170011 0.756224 0.635829 -0.114112
C51   C     C_R   0.174760 0.753999 0.791918 -0.121208
C52   C     C_R   0.147046 0.735606 0.840610 -0.129098
C53   C     C_R   0.087103 0.876598 0.838427 -0.126436
C54   C     C_R   0.113229 0.893713 0.789694 -0.120890
C55   C     C_R   0.153864 0.829989 0.765753 0.035202
C56   C     C_R   0.279882 0.881681 0.568237 0.539301
C57   C     C_R   0.099266 0.793950 0.863712 0.022954
C58   C     C_R   0.630075 0.877191 0.619365 0.051930
C59   C     C_R   0.617268 0.773202 0.634744 0.146538
C60   C     C_R   0.616154 0.752735 0.684282 -0.084729
C61   C     C_R   0.624483 0.834168 0.718329 0.000096
C62   C     C_R   0.632784 0.935537 0.702307 -0.136437
C63   C     C_R   0.636787 0.957164 0.653378 -0.150865
C64   C     C_R   0.712172 0.910536 0.798680 -0.115736
C65   C     C_R   0.732041 0.894704 0.846377 -0.126265
C66   C     C_R   0.590479 0.694976 0.839425 -0.127410
C67   C     C_1   0.631153 0.264585 0.383753 -0.005570
C68   C     C_R   0.569937 0.711085 0.791525 -0.121645
C69   C     C_R   0.633523 0.818294 0.770372 0.036884
C70   C     C_R   0.674921 0.786013 0.866522 0.022354
C71   C     C_R   0.049343 0.761157 0.048223 0.545506
C72   C     C_R   0.714320 0.435762 0.049708 0.544882
C73   C     C_R   0.723576 0.770773 0.049523 0.545135
C74   C     C_R   0.044115 0.755962 0.910557 0.542275
C75   C     C_R   0.708128 0.428635 0.912477 0.541774
C76   C     C_R   0.717029 0.765481 0.911976 0.542069
C77   C     C_R   0.723811 0.421023 0.272692 -0.102501
C78   C     C_R   0.734570 0.438422 0.222761 -0.100964
Cr1   Cr    Cr6+3 0.417720 0.831920 0.499820 1.066612
Cr2   Cr    Cr6+3 0.668190 0.085770 0.500360 1.033665
Cr3   Cr    Cr6+3 0.414060 0.082260 0.499840 1.037875
Cr4   Cr    Cr6+3 0.908000 0.821090 0.979770 1.023421
Cr5   Cr    Cr6+3 0.912420 0.571130 0.979880 1.023307
Cr6   Cr    Cr6+3 0.657970 0.566940 0.980940 1.025731
H1    H     H_    0.759162 0.493518 0.297116 0.106525
H2    H     H_    0.751420 0.715801 0.209329 0.098650
H3    H     H_    0.572491 0.898698 0.183798 0.103502
H4    H     H_    0.558860 0.919397 0.271699 0.097674
H5    H     H_    0.778741 0.244689 0.621517 0.133686
H6    H     H_    0.495119 0.265564 0.775527 0.101293
H7    H     H_    0.509600 0.305896 0.862171 0.124920
H8    H     H_    0.800746 0.277640 0.707379 0.100764
H9    H     H_    0.859262 0.403218 0.770084 0.103373
H10   H     H_    0.872031 0.433466 0.856003 0.135612
H11   H     H_    0.544116 0.378119 0.705534 0.108687
H12   H     H_    0.778069 0.524417 0.209165 0.098855
H13   H     H_    0.513954 0.333889 0.619382 0.151218
H14   H     H_    0.289312 0.044319 0.628173 0.135629
H15   H     H_    0.209540 0.706555 0.774415 0.107402
H16   H     H_    0.157986 0.672096 0.859499 0.126089
H17   H     H_    0.244066 0.023769 0.713413 0.101905
H18   H     H_    0.096167 0.952631 0.770290 0.107269
H19   H     H_    0.050024 0.922638 0.855300 0.132976
H20   H     H_    0.102070 0.660421 0.700199 0.107295
H21   H     H_    0.152745 0.681642 0.614814 0.134275
H22   H     H_    0.594166 0.162271 0.184221 0.103559
H23   H     H_    0.763342 0.993988 0.783281 0.104797
H24   H     H_    0.797231 0.966487 0.866530 0.127980
H25   H     H_    0.611143 0.674520 0.696048 0.135915
H26   H     H_    0.507241 0.639200 0.770618 0.104245
H27   H     H_    0.545200 0.610216 0.854202 0.129550
H28   H     H_    0.636234 0.998395 0.727630 0.119080
H29   H     H_    0.641311 0.035346 0.641908 0.125181
H30   H     H_    0.575496 0.131378 0.272157 0.098031
H31   H     H_    0.362678 0.934893 0.271149 0.098048
H32   H     H_    0.328980 0.918285 0.183125 0.103604
H33   H     H_    0.967312 0.741713 0.207456 0.098792
H34   H     H_    0.001002 0.758078 0.295472 0.105758
H35   H     H_    0.738014 0.736732 0.297243 0.107006
O1    O     O_R   0.302900 0.805360 0.446400 -0.503276
O2    O     O_R   0.657980 0.180990 0.549630 -0.511673
O3    O     O_R   0.503420 0.197810 0.553190 -0.515003
O4    O     O_R   0.320350 0.978840 0.548910 -0.505643
O5    O     O_3   0.499990 0.999990 0.500010 -0.263193
O6    O     O_R   0.819150 0.845650 0.033320 -0.504809
O7    O     O_R   0.006060 0.815720 0.028680 -0.493203
O8    O     O_R   0.028100 0.664460 0.032550 -0.504401
O9    O     O_R   0.811290 0.477490 0.029660 -0.493502
O10   O     O_R   0.638120 0.455970 0.034270 -0.504718
O11   O     O_R   0.667540 0.672320 0.030160 -0.493323
O12   O     O_R   0.522090 0.841370 0.450730 -0.485998
O13   O     O_R   0.814460 0.840990 0.926980 -0.522501
O14   O     O_R   0.001710 0.811400 0.930110 -0.504370
O15   O     O_R   0.023410 0.659800 0.926210 -0.521804
O16   O     O_R   0.806940 0.473170 0.931090 -0.506671
O17   O     O_R   0.633420 0.451310 0.927930 -0.518932
O18   O     O_R   0.663190 0.668000 0.931580 -0.501948
O19   O     O_3   0.826130 0.653050 0.980200 -0.246220
O20   O     O_R   0.693280 0.995650 0.447220 -0.501956
O21   O     O_R   0.657260 0.178740 0.451050 -0.494015
O22   O     O_R   0.502640 0.195380 0.446850 -0.497672
O23   O     O_R   0.319630 0.976590 0.450330 -0.492782
O24   O     O_R   0.303680 0.807790 0.552740 -0.510065
O25   O     O_R   0.522820 0.843620 0.549310 -0.467321
O26   O     O_R   0.694060 0.998080 0.553560 -0.519696
Br1   Br    Br    0.604227 0.659510 0.589597 -0.527178

loop_
_geom_bond_atom_site_label_1
_geom_bond_atom_site_label_2
_ccdc_geom_bond_type
C48   C55   S    
C66   C68   A    
C21   C26   A    
C47   H17   S    
C15   C18   S    
C41   C42   A    
C19   C71   S    
C35   C36   A    
C24   C27   A    
Cr5   O9    S    
C49   H20   S    
C37   H13   S    
C72   O10   A    
C66   C70   A    
C77   C78   A    
C34   O25   A    
Cr3   O4    S    
C36   C37   A    
C38   C42   A    
C10   C15   A    
C38   C39   A    
C34   O26   A    
C75   O16   A    
C16   C17   S    
C44   C50   A    
C65   C70   A    
C74   O14   A    
Cr6   O10   S    
C12   O22   A    
C35   C42   S    
Cr4   O7    S    
Cr5   O15   S    
C60   H25   S    
C77   H1    S    
C73   O11   A    
C46   C47   A    
C56   O24   A    
C40   C43   A    
Cr1   O24   S    
C47   C48   A    
C78   H12   S    
C68   C69   A    
C14   H34   S    
Cr6   O17   S    
C50   H21   S    
C12   O21   A    
C23   O23   A    
C66   H27   S    
C65   H24   S    
Cr5   O16   S    
C1    O20   A    
Cr2   O2    S    
Cr3   O22   S    
C46   H14   S    
Cr6   O19   S    
C59   C60   A    
C21   C22   A    
C43   C75   S    
C71   O8    A    
C4    C7    S    
C39   H7    S    
C44   C46   A    
C20   C29   T    
C51   H15   S    
C12   C67   S    
C41   H9    S    
C8    C72   S    
Cr3   O5    S    
C51   C52   A    
C56   O4    A    
C24   C25   A    
C52   C57   A    
C33   H8    S    
C40   H10   S    
C23   O1    A    
C30   C73   S    
C53   C57   A    
C75   O17   A    
C9    C23   S    
C6    C8    T    
C45   O2    A    
C58   C59   A    
C53   C54   A    
C2    H22   S    
C25   H4    S    
C31   C37   A    
C60   C61   A    
C57   C74   S    
C59   Br1   S    
Cr4   O6    S    
C62   C63   A    
C11   C16   A    
C44   C56   S    
C31   C32   A    
C73   O6    A    
Cr1   O12   S    
Cr1   O1    S    
C71   O7    A    
C68   H26   S    
C64   C69   A    
C11   H32   S    
Cr3   O23   S    
C72   O9    A    
Cr6   O18   S    
C22   C27   A    
C32   H5    S    
C70   C76   S    
C2    C5    A    
Cr4   O13   S    
C3    C4    A    
C64   H23   S    
Cr2   O5    S    
C61   C69   S    
C58   C63   A    
C54   C55   A    
C40   C41   A    
C1    C20   S    
C54   H18   S    
C76   O18   A    
Cr5   O8    S    
C1    O12   A    
C3    H30   S    
C13   H33   S    
C45   O3    A    
Cr2   O20   S    
Cr1   O5    S    
C38   H6    S    
Cr1   O25   S    
Cr3   O3    S    
C64   C65   A    
Cr4   O14   S    
C28   C30   T    
C2    C3    A    
C25   C26   A    
C4    C77   A    
C21   H35   S    
Cr2   O21   S    
C32   C33   A    
C76   O13   A    
C36   H11   S    
C5    C6    S    
C53   H19   S    
C48   C49   A    
C74   O15   A    
Cr6   O11   S    
C33   C35   A    
C52   H16   S    
C51   C55   A    
C22   H2    S    
C61   C62   A    
C24   H3    S    
Cr2   O26   S    
C10   C11   A    
C7    C67   T    
C63   H29   S    
C17   C19   T    
C9    C18   T    
C62   H28   S    
C39   C43   A    
C26   C29   S    
Cr4   O19   S    
C49   C50   A    
C31   C45   S    
C13   C16   A    
C27   C28   S    
C34   C58   S    
C14   C15   A    
C5    C78   A    
C13   C14   A    
Cr5   O19   S    
C10   H31   S    
