data_mof_unit_39422.cif
_audit_creation_date              2012-12-11T14:21:19-0500
_audit_creation_method            fapswitch 2.2
_symmetry_space_group_name_H-M    P1
_symmetry_Int_Tables_number       1
_space_group_crystal_system       triclinic
_cell_length_a                    11.535383
_cell_length_b                    11.54998
_cell_length_c                    19.46331
_cell_angle_alpha                 90.782472
_cell_angle_beta                  90.117651
_cell_angle_gamma                 60.015491
_cell_volume                      2245.8526656

loop_
_atom_site_label
_atom_site_type_symbol
_atom_type_description
_atom_site_fract_x
_atom_site_fract_y
_atom_site_fract_z
_atom_type_partial_charge
C1    C     C_R   0.640760 0.117855 0.598963 0.535059
C2    C     C_1   0.653046 0.150541 0.668397 0.002823
C3    C     C_R   0.653639 0.685018 0.190832 -0.014584
C4    C     C_R   0.613839 0.743401 0.597803 0.536189
C5    C     C_R   0.539005 0.705103 0.226823 0.042856
C6    C     C_R   0.554360 0.669027 0.295698 0.032054
C7    C     C_R   0.758909 0.679925 0.299019 -0.140873
C8    C     C_R   0.762668 0.675485 0.227716 -0.143694
C9    C     C_R   0.415456 0.743547 0.194545 -0.071384
C10   C     C_R   0.320833 0.721111 0.226552 -0.107317
C11   C     C_R   0.348391 0.661403 0.290807 -0.050998
C12   C     C_1   0.651790 0.683177 0.663829 0.001115
C13   C     C_R   0.463975 0.635552 0.325170 -0.037597
C14   C     C_R   0.654216 0.676856 0.333901 -0.017472
C15   C     C_R   0.144575 0.199006 0.194064 -0.012842
C16   C     C_R   0.298148 0.120440 0.605275 0.555497
C17   C     C_R   0.150398 0.297246 0.235554 0.032435
C18   C     C_R   0.131117 0.296413 0.306533 0.041052
C19   C     C_R   0.174488 0.068622 0.296349 -0.152739
C20   C     C_R   0.155769 0.084821 0.225550 -0.146672
C21   C     C_R   0.173729 0.396928 0.209182 -0.062421
C22   C     C_R   0.155744 0.503566 0.250599 -0.074067
C23   C     C_1   0.147434 0.187976 0.863464 0.001172
C24   C     C_R   0.109427 0.515680 0.317771 -0.100638
C25   C     C_R   0.093886 0.414065 0.345299 -0.071186
C26   C     C_R   0.165738 0.173471 0.337434 -0.012718
C27   C     C_R   0.657867 0.177710 0.189745 -0.077490
C28   C     C_R   0.646476 0.114431 0.402766 0.532979
C29   C     C_R   0.747327 0.056179 0.221071 -0.007344
C30   C     C_R   0.769900 0.056584 0.291839 -0.007779
C31   C     C_R   0.563237 0.270229 0.302434 0.272132
C32   C     C_R   0.558552 0.281826 0.230816 0.270881
C33   C     C_R   0.826873 0.938444 0.182353 -0.062663
C34   C     C_1   0.228461 0.144911 0.735781 -0.031648
C35   C     C_R   0.944922 0.837526 0.209507 -0.125926
C36   C     C_R   0.980782 0.850849 0.276198 -0.134220
C37   C     C_R   0.893754 0.957812 0.317689 -0.070602
C38   C     C_R   0.667963 0.154593 0.333971 -0.073178
C39   C     C_R   0.084610 0.229562 0.929476 0.537101
C40   C     C_R   0.619068 0.734773 0.403085 0.533510
C41   C     C_R   0.709012 0.546202 0.922507 0.556600
C42   C     C_R   0.707979 0.206204 0.930416 0.532889
C43   C     C_R   0.085581 0.235032 0.125068 0.536650
C44   C     C_R   0.679866 0.618063 0.123867 0.548135
C45   C     C_1   0.188890 0.163826 0.805320 -0.029744
C46   C     C_R   0.703322 0.208467 0.124833 0.535336
C47   C     C_R   0.237524 0.143191 0.403227 0.547073
C48   C     C_1   0.698894 0.580771 0.851569 0.002201
C49   C     C_1   0.673261 0.644384 0.722027 -0.029793
C50   C     C_1   0.689367 0.608384 0.791669 -0.031824
C51   C     C_1   0.259404 0.133146 0.676010 0.002342
C52   C     C_1   0.678161 0.190556 0.861050 0.003389
C53   C     C_1   0.658306 0.167851 0.728984 -0.032960
C54   C     C_1   0.665189 0.180723 0.800439 -0.032755
Cr1   Cr    Cr6+3 0.404720 0.198220 0.499960 1.037230
Cr2   Cr    Cr6+3 0.698290 0.897110 0.500380 1.018349
Cr3   Cr    Cr6+3 0.396970 0.904720 0.499610 1.019704
Cr4   Cr    Cr6+3 0.926180 0.151990 0.028120 1.020930
Cr5   Cr    Cr6+3 0.921330 0.451820 0.027470 1.017032
Cr6   Cr    Cr6+3 0.626260 0.446870 0.028710 1.031360
H1    H     H_    0.836311 0.687326 0.326772 0.144380
H2    H     H_    0.852189 0.659664 0.201595 0.143264
H3    H     H_    0.229302 0.745351 0.200085 0.096464
H4    H     H_    0.281261 0.635467 0.315408 0.133052
H5    H     H_    0.481432 0.591449 0.375496 0.126238
H6    H     H_    0.198433 0.973825 0.318609 0.139032
H7    H     H_    0.210746 0.390866 0.157501 0.128391
H8    H     H_    0.151099 0.007852 0.195364 0.137830
H9    H     H_    0.500957 0.380978 0.384251 0.306914
H10   H     H_    0.437581 0.375339 0.156511 0.311440
H11   H     H_    0.177352 0.576367 0.229780 0.120223
H12   H     H_    0.090790 0.600172 0.349966 0.094874
H13   H     H_    0.061406 0.423606 0.398296 0.122655
H14   H     H_    0.802576 0.928710 0.129558 0.124537
H15   H     H_    0.010065 0.752597 0.177420 0.090773
H16   H     H_    0.074793 0.778483 0.296717 0.080993
H17   H     H_    0.925955 0.964572 0.369103 0.132423
H18   H     H_    0.394743 0.785245 0.143487 0.119643
O1    O     O_R   0.267740 0.231960 0.575440 -0.507146
O2    O     O_R   0.596130 0.579390 0.952730 -0.506668
O3    O     O_R   0.639060 0.321160 0.958670 -0.515754
O4    O     O_R   0.527280 0.186640 0.570530 -0.514861
O5    O     O_R   0.821240 0.124200 0.104370 -0.512703
O6    O     O_R   0.036890 0.167040 0.097840 -0.494117
O7    O     O_R   0.056180 0.349610 0.102880 -0.527922
O8    O     O_R   0.797660 0.564870 0.097950 -0.499267
O9    O     O_R   0.595880 0.584250 0.104270 -0.496127
O10   O     O_R   0.638830 0.325670 0.099150 -0.478999
O11   O     O_3   0.824590 0.350230 0.028100 -0.265628
O12   O     O_R   0.685970 0.784660 0.430010 -0.496700
O13   O     O_R   0.728090 0.003450 0.576380 -0.504500
O14   O     O_R   0.682970 0.789190 0.570490 -0.495933
O15   O     O_R   0.499290 0.771880 0.575530 -0.513960
O16   O     O_R   0.285330 0.030870 0.569730 -0.492160
O17   O     O_R   0.270980 0.227080 0.423890 -0.493635
O18   O     O_R   0.530280 0.182120 0.430050 -0.472899
O19   O     O_R   0.731330 0.998570 0.424830 -0.520484
O20   O     O_3   0.462683 0.373457 0.339935 -0.659016
O21   O     O_3   0.456857 0.397208 0.203007 -0.656048
O22   O     O_R   0.502530 0.767000 0.423990 -0.527277
O23   O     O_R   0.288330 0.026350 0.429250 -0.496742
O24   O     O_3   0.499990 0.000020 0.499980 -0.266392
O25   O     O_R   0.821500 0.119340 0.952830 -0.506878
O26   O     O_R   0.037130 0.162530 0.957360 -0.495617
O27   O     O_R   0.056440 0.344740 0.951340 -0.513859
O28   O     O_R   0.797900 0.560360 0.957470 -0.492780

loop_
_geom_bond_atom_site_label_1
_geom_bond_atom_site_label_2
_ccdc_geom_bond_type
C28   O19   A    
C47   O23   A    
C27   C29   A    
C19   C20   A    
C18   C26   A    
C16   C51   S    
C42   O25   A    
C41   O2    A    
C12   C49   T    
Cr6   O10   S    
C7    C8    A    
C13   H5    S    
C53   C54   S    
Cr3   O24   S    
C42   O3    A    
Cr1   O24   S    
C35   H15   S    
C34   C51   T    
Cr5   O27   S    
C23   C45   T    
C36   C37   A    
C5    C6    A    
C29   C33   A    
C30   C38   A    
C19   H6    S    
C15   C17   A    
C1    C2    S    
Cr5   O11   S    
C31   O20   S    
C19   C26   A    
C7    H1    S    
C36   H16   S    
Cr2   O13   S    
C10   H3    S    
C4    C12   S    
C44   O9    A    
C9    C10   A    
H9    O20   S    
Cr2   O12   S    
C1    O13   A    
Cr3   O15   S    
C21   C22   A    
C21   H7    S    
C43   O6    A    
C18   C25   A    
Cr2   O19   S    
C44   O8    A    
Cr6   O9    S    
C52   C54   T    
C46   O10   A    
C7    C14   A    
C15   C20   A    
C3    C44   S    
Cr5   O28   S    
C41   O28   A    
C43   O7    A    
C39   O26   A    
C24   C25   A    
Cr1   O17   S    
C3    C8    A    
C1    O4    A    
Cr6   O11   S    
Cr3   O22   S    
C37   H17   S    
C17   C21   A    
C46   O5    A    
C30   C37   A    
Cr2   O24   S    
C35   C36   A    
Cr5   O7    S    
C5    C9    A    
C29   C30   A    
Cr4   O6    S    
C6    C14   A    
Cr1   O1    S    
Cr6   O3    S    
C31   C32   A    
C28   C38   S    
C17   C18   A    
C34   C45   S    
Cr1   O4    S    
C26   C47   S    
C27   C46   S    
C11   H4    S    
Cr3   O16   S    
C22   C24   A    
Cr4   O26   S    
C22   H11   S    
H10   O21   S    
C24   H12   S    
C39   O27   A    
Cr6   O2    S    
C27   C32   A    
C20   H8    S    
Cr1   O18   S    
C3    C5    A    
C2    C53   T    
C40   O22   A    
C31   C38   A    
Cr3   O23   S    
C16   O16   A    
C32   O21   S    
C28   O18   A    
C16   O1    A    
Cr5   O8    S    
C15   C43   S    
Cr4   O5    S    
C6    C13   A    
C11   C13   A    
C23   C39   S    
C48   C50   T    
C33   C35   A    
C41   C48   S    
C25   H13   S    
C9    H18   S    
Cr4   O11   S    
C10   C11   A    
C14   C40   S    
C4    O15   A    
C33   H14   S    
Cr2   O14   S    
C49   C50   S    
C8    H2    S    
C47   O17   A    
Cr4   O25   S    
C40   O12   A    
C42   C52   S    
C4    O14   A    
