data_mof_unit_34007.cif
_audit_creation_date              2012-10-26T19:21:31-0400
_audit_creation_method            fapswitch 2.2
_symmetry_space_group_name_H-M    P1
_symmetry_Int_Tables_number       1
_space_group_crystal_system       triclinic
_cell_length_a                    9.797689
_cell_length_b                    11.044019
_cell_length_c                    15.889461
_cell_angle_alpha                 94.681923
_cell_angle_beta                  79.190147
_cell_angle_gamma                 111.270089
_cell_volume                      1573.60850623

loop_
_atom_site_label
_atom_site_type_symbol
_atom_type_description
_atom_site_fract_x
_atom_site_fract_y
_atom_site_fract_z
_atom_type_partial_charge
C1    C     C_R   0.556132 0.745417 0.506187 0.561125
C2    C     C_2   0.515708 0.069456 0.501573 -0.163614
C3    C     C_2   0.923226 0.490342 0.492531 -0.025317
C4    C     C_2   0.076774 0.509658 0.507469 -0.025317
C5    C     C_R   0.411260 0.486668 0.662713 0.549108
C6    C     C_R   0.588740 0.513332 0.337287 0.549107
C7    C     C_R   0.358171 0.475744 0.755660 -0.010749
C8    C     C_R   0.641829 0.524256 0.244340 -0.010749
C9    C     C_R   0.161046 0.423850 0.878311 -0.103363
C10   C     C_R   0.838954 0.576150 0.121688 -0.103363
C11   C     C_R   0.206973 0.436233 0.790069 -0.164049
C12   C     C_R   0.443868 0.254583 0.493813 0.561126
C13   C     C_R   0.793027 0.563767 0.209931 -0.164049
C14   C     C_R   0.462496 0.502301 0.810312 -0.133715
C15   C     C_R   0.537503 0.497700 0.189688 -0.133715
C16   C     C_R   0.419321 0.485139 0.899337 -0.013289
C17   C     C_R   0.580679 0.514861 0.100663 -0.013289
C18   C     C_R   0.265502 0.448624 0.933483 0.054856
C19   C     C_R   0.734498 0.551376 0.066517 0.054856
C20   C     C_R   0.524812 0.505089 0.954976 -0.027500
C21   C     C_R   0.475189 0.494911 0.045024 -0.027500
C22   C     C_3   0.003592 0.280237 0.078435 -0.022326
C23   C     C_R   0.321875 0.466374 0.076621 -0.123089
C24   C     C_3   0.838982 0.249267 0.112508 -0.364899
C25   C     C_3   0.996408 0.719764 0.921565 -0.022330
C26   C     C_3   0.161018 0.750735 0.887495 -0.364903
C27   C     C_R   0.678125 0.533626 0.923379 -0.123089
C28   C     C_R   0.217962 0.438591 0.022146 0.252228
C29   C     C_R   0.782039 0.561410 0.977854 0.252228
C30   C     C_2   0.587807 0.884544 0.509566 -0.131931
C31   C     C_2   0.412193 0.115456 0.490433 -0.131931
C32   C     C_2   0.484292 0.930544 0.498427 -0.163615
Cu1   Cu    Cu3+1 0.362980 0.479380 0.485080 0.928001
Cu2   Cu    Cu3+1 0.637020 0.520620 0.514920 0.928001
H1    H     H_    0.422337 0.461467 0.218571 0.124681
H2    H     H_    0.375391 0.865526 0.486862 0.156239
H3    H     H_    0.303506 0.050159 0.478839 0.101375
H4    H     H_    0.696494 0.949841 0.521161 0.101375
H5    H     H_    0.122143 0.577166 0.557377 0.144357
H6    H     H_    0.877857 0.422834 0.442623 0.144357
H7    H     H_    0.111558 0.384999 0.415551 0.198780
H8    H     H_    0.888442 0.615001 0.584449 0.198780
H9    H     H_    0.054829 0.257575 0.129194 0.123542
H10   H     H_    0.014342 0.216920 0.021110 0.122088
H11   H     H_    0.785067 0.273320 0.063904 0.170754
H12   H     H_    0.577663 0.538533 0.781429 0.124681
H13   H     H_    0.784514 0.144244 0.127194 0.093346
H14   H     H_    0.824332 0.306511 0.172054 0.161253
H15   H     H_    0.985653 0.783081 0.978887 0.122090
H16   H     H_    0.945174 0.742423 0.870803 0.123544
H17   H     H_    0.175673 0.693491 0.827951 0.161255
H18   H     H_    0.215486 0.855757 0.872808 0.093346
H19   H     H_    0.214930 0.726685 0.936101 0.170754
H20   H     H_    0.875640 0.584800 0.251040 0.134327
H21   H     H_    0.124360 0.415200 0.748960 0.134327
H22   H     H_    0.043158 0.394041 0.903114 0.193175
H23   H     H_    0.956842 0.605959 0.096886 0.193176
H24   H     H_    0.276980 0.465838 0.143817 0.115311
H25   H     H_    0.723020 0.534162 0.856183 0.115310
H26   H     H_    0.624609 0.134474 0.513138 0.156239
N1    N     N_2   0.842890 0.551600 0.537350 -0.354131
N2    N     N_2   0.157110 0.448400 0.462650 -0.354131
O1    O     O_R   0.426810 0.668300 0.492040 -0.495174
O2    O     O_3   0.930048 0.587206 0.943186 -0.565350
O3    O     O_R   0.573190 0.331700 0.507960 -0.495175
O4    O     O_R   0.658240 0.703130 0.517240 -0.489582
O5    O     O_R   0.341760 0.296870 0.482760 -0.489582
O6    O     O_R   0.319390 0.472820 0.610170 -0.498278
O7    O     O_R   0.680610 0.527180 0.389830 -0.498278
O8    O     O_R   0.550820 0.507640 0.635370 -0.498189
O9    O     O_R   0.449180 0.492360 0.364630 -0.498189
O10   O     O_3   0.069952 0.412794 0.056814 -0.565350

loop_
_geom_bond_atom_site_label_1
_geom_bond_atom_site_label_2
_ccdc_geom_bond_type
C6    O7    A    
C7    C11   A    
C10   C13   A    
C8    C13   A    
C20   C27   A    
C26   H18   S    
C23   H24   S    
C5    C7    S    
C12   O3    A    
Cu2   O8    S    
C24   H14   S    
C22   H9    S    
Cu2   O7    S    
C4    H5    S    
C16   C20   A    
C10   C19   A    
Cu1   O1    S    
C4    N2    D    
Cu2   O4    S    
C21   C23   A    
Cu1   Cu2   S    
C29   O2    S    
C18   C28   A    
C14   H12   S    
C9    H22   S    
C27   H25   S    
C23   C28   A    
C30   C32   D    
C9    C11   A    
H8    N1    S    
C30   H4    S    
C28   O10   S    
C2    H26   S    
H7    N2    S    
C5    O6    A    
C24   H11   S    
C32   H2    S    
Cu2   O3    S    
C15   H1    S    
C1    C30   S    
C17   C19   A    
C3    H6    S    
C1    O4    A    
C8    C15   A    
C22   C24   S    
C3    N1    D    
C12   C31   S    
C6    O9    A    
C12   O5    A    
C25   H15   S    
C27   C29   A    
Cu1   O9    S    
C3    C4    S    
C19   C29   A    
C26   H19   S    
C1    O1    A    
C9    C18   A    
C10   H23   S    
C11   H21   S    
C20   C21   A    
Cu1   O5    S    
C16   C18   A    
C13   H20   S    
Cu2   N1    S    
C22   O10   S    
C15   C17   A    
C25   H16   S    
Cu1   N2    S    
C6    C8    S    
C2    C31   D    
C25   C26   S    
C26   H17   S    
C24   H13   S    
C25   O2    S    
C7    C14   A    
C22   H10   S    
C14   C16   A    
C31   H3    S    
Cu1   O6    S    
C2    C32   S    
C5    O8    A    
C17   C21   A    
