data_mof_unit_48809.cif
_audit_creation_date              2012-12-11T17:25:08-0500
_audit_creation_method            fapswitch 2.2
_symmetry_space_group_name_H-M    P1
_symmetry_Int_Tables_number       1
_space_group_crystal_system       triclinic
_cell_length_a                    6.955262
_cell_length_b                    20.539498
_cell_length_c                    24.485095
_cell_angle_alpha                 90.102774
_cell_angle_beta                  90.422998
_cell_angle_gamma                 89.449923
_cell_volume                      3497.61994616

loop_
_atom_site_label
_atom_site_type_symbol
_atom_type_description
_atom_site_fract_x
_atom_site_fract_y
_atom_site_fract_z
_atom_type_partial_charge
O1    O     O_R   0.507280 0.423750 0.460310 -0.535721
O2    O     O_R   0.171030 0.555650 0.437630 -0.536450
O3    O     O_R   0.004080 0.576250 0.539690 -0.536154
C1    C     C_R   0.339077 0.575669 0.421785 0.724048
O4    O     O_R   0.177330 0.422980 0.453960 -0.537407
O5    O     O_R   0.010420 0.442640 0.556140 -0.535061
C2    C     C_R   0.346247 0.399062 0.443338 0.694127
O6    O     O_R   0.500930 0.557360 0.443860 -0.535133
O7    O     O_3   0.340310 0.506600 0.533500 -0.367114
V1    V     V_3+5 0.064140 0.498780 0.493780 1.428925
O8    O     O_R   0.680890 0.444350 0.562370 -0.537342
C3    C     C_R   0.850569 0.424399 0.578144 0.726480
O9    O     O_R   0.674590 0.577020 0.546040 -0.537403
C4    C     C_R   0.842477 0.600888 0.556851 0.691779
V2    V     V_3+5 0.564550 0.501220 0.506220 1.428509
O10   O     O_3   0.838250 0.493400 0.466500 -0.366480
C5    C     C_R   0.975674 0.838102 0.911131 -0.053940
C6    C     C_R   0.844370 0.661407 0.589478 -0.049723
C7    C     C_R   0.048197 0.722982 0.905405 -0.162694
C8    C     C_R   0.037809 0.780291 0.935685 -0.162115
C9    C     C_R   0.920670 0.837880 0.855705 -0.230047
C10   C     C_R   0.919355 0.779157 0.824551 0.086472
C11   C     C_R   0.993873 0.722214 0.850077 0.146491
C12   C     C_R   0.858042 0.775605 0.768272 -0.050423
C13   C     C_R   0.901643 0.718070 0.736849 0.022556
C14   C     C_R   0.981185 0.663674 0.764318 -0.160863
C15   C     C_R   0.020312 0.665265 0.819955 -0.198889
C16   C     C_R   0.752641 0.826714 0.742073 0.326686
C17   C     C_R   0.728940 0.826607 0.685641 -0.181203
C18   C     C_R   0.781295 0.772805 0.654126 0.050951
C19   C     C_R   0.861360 0.716470 0.679188 0.083859
C20   C     C_R   0.741188 0.773687 0.597870 -0.132353
C21   C     C_R   0.770741 0.718382 0.566057 -0.154470
C22   C     C_R   0.892948 0.660653 0.645408 -0.194079
H1    H     H_    0.079140 0.621890 0.839245 0.123142
H2    H     H_    0.946260 0.615101 0.661463 0.091214
H3    H     H_    0.730276 0.719388 0.523240 0.109682
H4    H     H_    0.654608 0.867482 0.666694 0.152819
H5    H     H_    0.102675 0.679253 0.925091 0.117525
H6    H     H_    0.082896 0.779900 0.978141 0.109023
H7    H     H_    0.890088 0.884527 0.837239 0.156950
H8    H     H_    0.014346 0.618475 0.744020 0.120575
H9    H     H_    0.679514 0.816690 0.578728 0.122489
H10   H     H_    0.619016 0.205564 0.792882 0.113840
C23   C     C_R   0.729905 0.269332 0.731133 -0.151066
H11   H     H_    0.587932 0.283835 0.716992 0.111728
C24   C     C_R   0.894249 0.294947 0.706415 0.135915
C25   C     C_R   0.076546 0.275216 0.725558 -0.151713
H12   H     H_    0.205170 0.294335 0.707043 0.112375
C26   C     C_R   0.094282 0.230566 0.768791 -0.149217
H13   H     H_    0.236254 0.216064 0.782932 0.112694
C27   C     C_R   0.929938 0.204952 0.793510 0.136001
C28   C     C_R   0.747640 0.224683 0.774366 -0.148127
C29   C     C_1   0.876299 0.341008 0.661421 -0.056052
C30   C     C_1   0.947892 0.158894 0.838506 -0.050059
C31   C     C_1   0.961100 0.120681 0.876278 -0.179909
C32   C     C_1   0.863106 0.379225 0.623650 -0.189385
H14   H     H_    0.698976 0.702259 0.296262 0.113450
C33   C     C_R   0.596713 0.767363 0.233291 -0.145009
H15   H     H_    0.740573 0.780157 0.220812 0.112604
C34   C     C_R   0.436086 0.795000 0.206649 0.135785
C35   C     C_R   0.251321 0.777308 0.223802 -0.144245
H16   H     H_    0.125258 0.797916 0.203865 0.114364
C36   C     C_R   0.227521 0.732815 0.266839 -0.146634
H17   H     H_    0.083661 0.720019 0.279316 0.111929
C37   C     C_R   0.388148 0.705180 0.293482 0.134638
C38   C     C_R   0.572914 0.722869 0.276328 -0.148617
C39   C     C_1   0.459830 0.841006 0.161740 -0.047995
C40   C     C_1   0.364404 0.659169 0.338388 -0.053131
C41   C     C_1   0.349030 0.620960 0.376134 -0.189169
C42   C     C_1   0.475209 0.879201 0.123982 -0.183610
C43   C     C_R   0.472617 0.161837 0.088735 -0.042681
C44   C     C_R   0.352485 0.338508 0.410996 -0.043737
C45   C     C_R   0.534008 0.277153 0.093858 -0.113909
C46   C     C_R   0.524908 0.219817 0.063748 -0.202035
C47   C     C_R   0.429855 0.161421 0.144714 -0.184326
C48   C     C_R   0.441326 0.219239 0.176983 0.057347
C49   C     C_R   0.494340 0.277742 0.150216 0.100752
C50   C     C_R   0.404633 0.220731 0.234672 -0.037473
C51   C     C_R   0.421510 0.280534 0.264607 0.017471
C52   C     C_R   0.473937 0.337027 0.235884 -0.242084
C53   C     C_R   0.509628 0.336199 0.179641 0.328339
C54   C     C_R   0.352092 0.164235 0.263470 -0.239863
C55   C     C_R   0.316895 0.165507 0.319176 0.602834
C56   C     C_R   0.331651 0.223375 0.348910 -0.000870
C57   C     C_R   0.384676 0.281949 0.322396 0.034442
C58   C     C_R   0.291388 0.223168 0.405095 -0.091398
C59   C     C_R   0.300029 0.280243 0.435601 -0.192189
C60   C     C_R   0.395782 0.339486 0.355018 -0.170125
H18   H     H_    0.432632 0.386171 0.338391 0.091900
H19   H     H_    0.264280 0.279065 0.478588 0.114190
H20   H     H_    0.575233 0.321071 0.072709 0.169619
H21   H     H_    0.560237 0.220591 0.020722 0.113373
H22   H     H_    0.393050 0.114913 0.161693 0.099954
H23   H     H_    0.489120 0.383163 0.256143 0.113032
H24   H     H_    0.335966 0.117544 0.244111 0.157896
H25   H     H_    0.250145 0.178806 0.425614 0.181513
O11   O     O_R   0.323320 0.942780 0.056240 -0.535750
O12   O     O_R   0.647300 0.077050 0.046060 -0.537483
O13   O     O_R   0.813840 0.057330 0.943840 -0.534649
C61   C     C_R   0.478485 0.101027 0.056724 0.697479
O14   O     O_R   0.653250 0.944380 0.062400 -0.536563
O15   O     O_R   0.819830 0.923720 0.960300 -0.536003
C62   C     C_R   0.485178 0.924446 0.078301 0.723152
O16   O     O_R   0.317330 0.076390 0.039790 -0.537045
O17   O     O_3   0.483830 0.993470 0.966560 -0.365567
V3    V     V_3+5 0.760140 0.001210 0.006210 1.438741
O18   O     O_R   0.149290 0.922840 0.953850 -0.537923
C63   C     C_R   0.981087 0.899082 0.943043 0.697253
O19   O     O_R   0.143340 0.055500 0.937510 -0.537146
C64   C     C_R   0.973666 0.075513 0.921788 0.728622
V4    V     V_3+5 0.259690 0.998600 0.993650 1.438668
O20   O     O_3   0.986130 0.006520 0.033440 -0.366891
O21   O     O_3   0.561100 0.392422 0.152533 -0.650314
H26   H     H_    0.565795 0.429299 0.178678 0.290720
F1    F     F_    0.266320 0.109217 0.344127 -0.676652
O22   O     O_3   0.652900 0.874226 0.770080 -0.646056
H27   H     H_    0.598036 0.853575 0.802990 0.290812

loop_
_geom_bond_atom_site_label_1
_geom_bond_atom_site_label_2
_ccdc_geom_bond_type
C13   C19   A    
C18   C20   A    
C58   C59   A    
C4    C6    S    
O2    C1    A    
C7    C8    A    
C1    O6    A    
C1    C41   S    
O21   H26   S    
C2    C44   S    
O17   V4    S    
C48   C49   A    
C14   H8    S    
C14   C15   A    
C17   C18   A    
C16   C17   A    
C16   O22   S    
O5    C3    A    
C18   C19   A    
C52   H23   S    
C37   C40   S    
O17   V3    S    
V2    O10   S    
C5    C8    A    
O18   C63   A    
C45   H20   S    
O19   C64   A    
V3    O20   S    
C35   C36   A    
C47   H22   S    
O8    V2    S    
H10   C28   S    
C24   C25   A    
C42   C62   S    
C17   H4    S    
C26   C27   A    
O1    V2    S    
C11   C15   A    
O7    V1    S    
C31   C64   S    
C27   C30   S    
C43   C47   A    
C33   C38   A    
C23   C24   A    
C37   C38   A    
C23   C28   A    
C33   H15   S    
C55   F1    S    
O9    C4    A    
C34   C35   A    
C43   C46   A    
V4    O20   S    
C52   C53   A    
C48   C50   A    
C61   O16   A    
C33   C34   A    
O11   V4    S    
C45   C46   A    
C56   C58   A    
C55   C56   A    
C12   C13   A    
C53   O21   S    
O4    C2    A    
C15   H1    S    
C13   C14   A    
C56   C57   A    
C21   H3    S    
O18   V4    S    
C36   C37   A    
C7    C11   A    
C44   C59   A    
C35   H16   S    
C49   C53   A    
C54   C55   A    
C59   H19   S    
C30   C31   T    
C26   H13   S    
C19   C22   A    
O14   V3    S    
C47   C48   A    
O14   C62   A    
C6    C22   A    
O3    C4    A    
C7    H5    S    
C24   C29   S    
C9    H7    S    
C3    C32   S    
C25   H12   S    
O12   C61   A    
O16   V4    S    
O6    V2    S    
O9    V2    S    
C45   C49   A    
C10   C12   A    
O2    V1    S    
C27   C28   A    
C46   H21   S    
O13   V3    S    
O1    C2    A    
C8    H6    S    
C12   C16   A    
C51   C52   A    
C57   C60   A    
C5    C63   S    
O5    V1    S    
O8    C3    A    
O12   V3    S    
C51   C57   A    
O15   C63   A    
C20   C21   A    
O7    V2    S    
C44   C60   A    
O4    V1    S    
O3    V1    S    
V1    O10   S    
O22   H27   S    
C36   H17   S    
C50   C54   A    
C34   C39   S    
C39   C42   T    
O11   C62   A    
C54   H24   S    
C25   C26   A    
C20   H9    S    
C22   H2    S    
C40   C41   T    
C6    C21   A    
O19   V4    S    
C50   C51   A    
C23   H11   S    
H14   C38   S    
O13   C64   A    
C43   C61   S    
C10   C11   A    
O15   V3    S    
C60   H18   S    
C9    C10   A    
C58   H25   S    
C29   C32   T    
C5    C9    A    
