data_mof_unit_38752.cif
_audit_creation_date              2012-12-11T14:46:10-0500
_audit_creation_method            fapswitch 2.2
_symmetry_space_group_name_H-M    P1
_symmetry_Int_Tables_number       1
_space_group_crystal_system       triclinic
_cell_length_a                    10.898963
_cell_length_b                    10.932054
_cell_length_c                    18.851586
_cell_angle_alpha                 90.338156
_cell_angle_beta                  89.754061
_cell_angle_gamma                 119.939747
_cell_volume                      1946.34912787

loop_
_atom_site_label
_atom_site_type_symbol
_atom_type_description
_atom_site_fract_x
_atom_site_fract_y
_atom_site_fract_z
_atom_type_partial_charge
C1    C     C_R   0.868499 0.636058 0.605244 0.541272
C2    C     C_R   0.938349 0.141444 0.708824 0.000426
C3    C     C_R   0.954572 0.152246 0.783813 0.007972
C4    C     C_R   0.265330 0.629069 0.605415 0.544861
C5    C     C_R   0.738147 0.182417 0.720042 0.026027
C6    C     C_R   0.770456 0.216791 0.791905 0.014506
C7    C     C_R   0.609107 0.167643 0.694529 -0.077122
C8    C     C_R   0.531370 0.212336 0.734935 -0.138878
C9    C     C_R   0.578709 0.269967 0.801866 -0.115624
C10   C     C_R   0.698807 0.274488 0.829969 -0.067299
C11   C     C_R   0.836073 0.166281 0.676262 -0.034643
C12   C     C_R   0.273122 0.548163 0.795540 -0.145549
C13   C     C_R   0.707829 0.589464 0.707527 -0.129852
C14   C     C_R   0.690675 0.595252 0.780326 -0.125240
C15   C     C_R   0.809442 0.651583 0.825341 0.026425
C16   C     C_R   0.859576 0.224575 0.603043 0.530159
C17   C     C_R   0.944483 0.699373 0.797475 -0.129140
C18   C     C_R   0.961759 0.697211 0.725111 -0.113946
C19   C     C_R   0.844124 0.644972 0.679867 0.042635
C20   C     C_R   0.258250 0.537572 0.276302 -0.129986
C21   C     C_R   0.271310 0.551901 0.203846 -0.136281
C22   C     C_R   0.331736 0.686109 0.173530 0.031606
C23   C     C_R   0.257247 0.533733 0.723091 -0.132229
C24   C     C_R   0.363210 0.804031 0.216169 -0.130338
C25   C     C_R   0.346058 0.788775 0.289481 -0.134006
C26   C     C_R   0.299132 0.655951 0.319850 0.038503
C27   C     C_R   0.719976 0.143356 0.289218 -0.135674
C28   C     C_R   0.863718 0.638713 0.397808 0.543071
C29   C     C_R   0.717172 0.137817 0.216746 -0.126810
C30   C     C_R   0.829750 0.141472 0.178553 0.038344
C31   C     C_R   0.947229 0.153096 0.214809 -0.146015
C32   C     C_R   0.953905 0.167997 0.288423 -0.144560
C33   C     C_R   0.841648 0.167732 0.325468 0.034741
C34   C     C_R   0.298340 0.652714 0.680311 0.026937
C35   C     C_R   0.914707 0.780526 0.292284 -0.141625
C36   C     C_R   0.911657 0.788013 0.220104 -0.129866
C37   C     C_R   0.807471 0.675136 0.180887 0.019017
C38   C     C_R   0.701651 0.556450 0.215424 -0.110564
C39   C     C_R   0.703504 0.545008 0.289538 -0.008785
C40   C     C_R   0.266301 0.630935 0.394804 0.548469
C41   C     C_R   0.818990 0.656703 0.327462 0.026239
C42   C     C_R   0.812104 0.108888 0.896437 0.534099
C43   C     C_R   0.393918 0.700703 0.896976 0.544912
C44   C     C_R   0.796407 0.690583 0.897210 0.544508
C45   C     C_R   0.860928 0.177913 0.825928 -0.043976
C46   C     C_R   0.805018 0.102737 0.104022 0.543948
C47   C     C_R   0.393276 0.704254 0.103166 0.546575
C48   C     C_R   0.795838 0.698221 0.106235 0.547764
C49   C     C_R   0.861271 0.226515 0.396454 0.546461
C50   C     C_R   0.348498 0.785746 0.711319 -0.154967
C51   C     C_R   0.367701 0.800971 0.784400 -0.140874
C52   C     C_R   0.334657 0.682364 0.826358 0.020438
C53   C     C_3   0.585821 0.416548 0.327528 -0.238349
C54   C     C_3   0.453853 0.320146 0.283039 -0.326400
C55   C     C_3   0.338203 0.204829 0.328518 -0.459945
C56   C     C_R   0.065275 0.138308 0.814292 -0.084089
C57   C     C_R   0.147084 0.099737 0.773073 -0.130064
C58   C     C_R   0.123023 0.077759 0.700534 -0.121944
C59   C     C_R   0.020842 0.099781 0.668370 -0.086093
Cr1   Cr    Cr6+3 0.791660 0.390250 0.499930 0.999831
Cr2   Cr    Cr6+3 0.098520 0.708290 0.500540 1.004122
Cr3   Cr    Cr6+3 0.109770 0.401430 0.499480 1.000854
Cr4   Cr    Cr6+3 0.874790 0.925890 0.000070 1.008098
Cr5   Cr    Cr6+3 0.574120 0.948670 0.999300 1.009235
Cr6   Cr    Cr6+3 0.551420 0.625320 0.000920 1.003140
H1    H     H_    0.374217 0.877023 0.679052 0.110521
H2    H     H_    0.243322 0.458720 0.172010 0.125154
H3    H     H_    0.407867 0.908249 0.193429 0.119474
H4    H     H_    0.415473 0.905911 0.807312 0.147020
H5    H     H_    0.371795 0.880127 0.322313 0.110800
H6    H     H_    0.629769 0.138431 0.316270 0.119558
H7    H     H_    0.623366 0.126345 0.191034 0.125494
H8    H     H_    0.033041 0.151371 0.186498 0.110763
H9    H     H_    0.047985 0.184773 0.315942 0.112545
H10   H     H_    0.999635 0.869709 0.319873 0.133926
H11   H     H_    0.990964 0.884826 0.195356 0.137720
H12   H     H_    0.435679 0.204296 0.713682 0.102761
H13   H     H_    0.618695 0.474570 0.183720 0.122893
H14   H     H_    0.245186 0.455134 0.826945 0.128847
H15   H     H_    0.211322 0.428482 0.700716 0.152621
H16   H     H_    0.229046 0.086211 0.797693 0.104198
H17   H     H_    0.184445 0.044515 0.668933 0.108692
H18   H     H_    0.092793 0.161071 0.869679 0.127855
H19   H     H_    0.003564 0.079089 0.612041 0.127318
H20   H     H_    0.731640 0.316625 0.883034 0.122353
H21   H     H_    0.378280 0.140411 0.354221 0.147501
H22   H     H_    0.301924 0.252318 0.369978 0.160611
H23   H     H_    0.564968 0.118306 0.643999 0.129921
H24   H     H_    0.246610 0.134361 0.294508 0.131222
H25   H     H_    0.411176 0.383296 0.258506 0.170648
H26   H     H_    0.482326 0.267777 0.240527 0.148385
H27   H     H_    0.629046 0.350178 0.346661 0.188937
H28   H     H_    0.551192 0.455080 0.373956 0.159141
H29   H     H_    0.520082 0.307338 0.832875 0.107225
H30   H     H_    0.616304 0.545813 0.672976 0.117601
H31   H     H_    0.585643 0.561302 0.800997 0.137422
H32   H     H_    0.037138 0.744588 0.831334 0.125851
H33   H     H_    0.067557 0.736244 0.704389 0.140451
H34   H     H_    0.214877 0.432764 0.298156 0.134772
O1    O     O_R   0.766500 0.250040 0.579790 -0.522741
O2    O     O_R   0.413330 0.603360 0.920440 -0.530893
O3    O     O_R   0.676110 0.626250 0.926750 -0.511594
O4    O     O_R   0.798570 0.516780 0.574780 -0.495920
O5    O     O_R   0.895350 0.809870 0.080950 -0.528462
O6    O     O_R   0.872490 0.049760 0.073800 -0.509069
O7    O     O_R   0.691680 0.088070 0.079070 -0.532362
O8    O     O_R   0.451720 0.825250 0.074050 -0.507441
O9    O     O_R   0.413580 0.606370 0.080960 -0.525463
O10   O     O_R   0.676340 0.629040 0.075550 -0.505833
O11   O     O_3   0.666780 0.833290 0.000090 -0.237613
O12   O     O_R   0.218690 0.701900 0.425960 -0.500246
O13   O     O_R   0.984000 0.732950 0.581090 -0.531843
O14   O     O_R   0.218600 0.700890 0.574760 -0.510454
O15   O     O_R   0.249390 0.515350 0.579940 -0.524038
O16   O     O_R   0.982790 0.280900 0.573700 -0.506029
O17   O     O_R   0.766600 0.251130 0.419260 -0.539489
O18   O     O_R   0.798660 0.517790 0.425980 -0.518337
O19   O     O_R   0.984100 0.734040 0.420570 -0.522109
O20   O     O_R   0.249490 0.516440 0.419420 -0.530403
O21   O     O_R   0.982880 0.281910 0.424890 -0.509206
O22   O     O_3   0.999980 0.499990 0.499980 -0.236999
O23   O     O_R   0.895110 0.806860 0.920430 -0.514351
O24   O     O_R   0.872260 0.046970 0.925000 -0.503702
O25   O     O_R   0.691430 0.085060 0.918550 -0.517085
O26   O     O_R   0.451490 0.822460 0.925250 -0.502984

loop_
_geom_bond_atom_site_label_1
_geom_bond_atom_site_label_2
_ccdc_geom_bond_type
C12   H14   S    
C10   H20   S    
C6    C45   A    
C27   C29   A    
C35   C36   A    
Cr6   O2    S    
C43   O26   A    
C42   O25   A    
C7    C8    A    
C39   C41   A    
C39   C53   S    
C53   C54   S    
C27   C33   A    
C12   C23   A    
C35   H10   S    
C29   C30   A    
C13   H30   S    
C4    O15   A    
C36   C37   A    
C15   C44   S    
Cr3   O15   S    
C28   O18   A    
C58   H17   S    
C1    O13   A    
C32   H9    S    
C30   C31   A    
C43   C52   S    
C31   H8    S    
C49   O21   A    
C33   C49   S    
C48   O5    A    
C46   O6    A    
C28   C41   S    
C56   C57   A    
Cr2   O22   S    
C18   C19   A    
C3    C56   A    
C36   H11   S    
C31   C32   A    
C8    C9    A    
Cr5   O8    S    
C23   H15   S    
Cr4   O6    S    
Cr1   O4    S    
C9    C10   A    
C1    O4    A    
Cr6   O9    S    
Cr3   O21   S    
C29   H7    S    
C22   C47   S    
C13   C14   A    
C21   H2    S    
Cr6   O3    S    
C2    C11   A    
C14   H31   S    
C12   C52   A    
C42   O24   A    
C50   C51   A    
C40   O12   A    
C38   C39   A    
C4    C34   S    
C34   C50   A    
C1    C19   S    
C13   C19   A    
C53   H28   S    
C51   C52   A    
C4    O14   A    
C59   H19   S    
C5    C7    A    
C44   O3    A    
C2    C59   A    
C16   O1    A    
C38   H13   S    
C25   C26   A    
Cr5   O25   S    
C3    C45   A    
C42   C45   S    
C43   O2    A    
C37   C38   A    
C11   C16   S    
Cr5   O11   S    
C7    H23   S    
C23   C34   A    
C49   O17   A    
C53   H27   S    
C17   C18   A    
Cr1   O18   S    
C24   C25   A    
C37   C48   S    
Cr5   O7    S    
C50   H1    S    
Cr6   O10   S    
Cr3   O20   S    
Cr5   O26   S    
C47   O8    A    
C5    C11   A    
Cr2   O14   S    
C8    H12   S    
C57   H16   S    
Cr1   O17   S    
Cr2   O12   S    
C16   O16   A    
Cr4   O23   S    
C27   H6    S    
C56   H18   S    
C15   C17   A    
C54   C55   S    
Cr2   O19   S    
C30   C46   S    
Cr4   O5    S    
Cr1   O1    S    
C6    C10   A    
Cr4   O24   S    
C54   H25   S    
C18   H33   S    
C32   C33   A    
C55   H21   S    
C2    C3    A    
C58   C59   A    
C54   H26   S    
C55   H24   S    
C28   O19   A    
C26   C40   S    
C57   C58   A    
C5    C6    A    
C20   H34   S    
C20   C26   A    
Cr4   O11   S    
C46   O7    A    
C44   O23   A    
C48   O10   A    
C22   C24   A    
C55   H22   S    
Cr1   O22   S    
C35   C41   A    
Cr6   O11   S    
C24   H3    S    
Cr3   O16   S    
C40   O20   A    
C20   C21   A    
C47   O9    A    
C14   C15   A    
C25   H5    S    
C51   H4    S    
C21   C22   A    
Cr2   O13   S    
C17   H32   S    
C9    H29   S    
Cr3   O22   S    
