data_mof_unit_11359.cif
_audit_creation_date              2012-12-11T14:11:06-0500
_audit_creation_method            fapswitch 2.2
_symmetry_space_group_name_H-M    P1
_symmetry_Int_Tables_number       1
_space_group_crystal_system       triclinic
_cell_length_a                    19.739676
_cell_length_b                    17.171507
_cell_length_c                    15.468248
_cell_angle_alpha                 89.999793
_cell_angle_beta                  52.454458
_cell_angle_gamma                 89.999965
_cell_volume                      4157.10612103

loop_
_atom_site_label
_atom_site_type_symbol
_atom_type_description
_atom_site_fract_x
_atom_site_fract_y
_atom_site_fract_z
_atom_type_partial_charge
C1    C     C_R   0.339145 0.175089 0.048883 -0.115548
C2    C     C_R   0.660855 0.824911 0.951117 -0.115549
C3    C     C_R   0.625822 0.197142 0.004713 -0.121269
C4    C     C_R   0.374178 0.802858 0.995287 -0.121273
C5    C     C_R   0.874178 0.697142 0.995287 -0.121267
C6    C     C_R   0.125822 0.302858 0.004712 -0.121267
C7    C     C_R   0.160854 0.675090 0.951119 -0.115542
C8    C     C_R   0.839145 0.324910 0.048882 -0.115546
C9    C     C_3   0.296898 0.240864 0.565933 -0.170165
C10   C     C_3   0.703101 0.759135 0.434067 -0.170166
C11   C     C_3   0.792723 0.190155 0.413028 -0.169861
C12   C     C_3   0.207359 0.809804 0.586929 -0.169857
C13   C     C_3   0.707241 0.690137 0.586993 -0.169864
C14   C     C_3   0.292760 0.309864 0.413006 -0.169866
C15   C     C_3   0.203000 0.740929 0.434111 -0.170171
C16   C     C_3   0.796934 0.259113 0.565918 -0.170168
C17   C     C_2   0.286539 0.687108 0.954378 -0.202881
C18   C     C_2   0.713461 0.312892 0.045623 -0.202881
C19   C     C_2   0.809621 0.743471 0.905239 -0.212594
C20   C     C_2   0.190379 0.256529 0.094760 -0.212585
C21   C     C_2   0.690379 0.243471 0.094761 -0.212580
C22   C     C_2   0.309622 0.756528 0.905239 -0.212580
C23   C     C_2   0.213461 0.187108 0.045623 -0.202881
C24   C     C_2   0.786539 0.812892 0.954377 -0.202884
C25   C     C_R   0.349721 0.826835 0.220781 -0.128283
C26   C     C_R   0.650275 0.173170 0.779219 -0.128271
C27   C     C_R   0.609632 0.802512 0.786812 -0.140479
C28   C     C_R   0.390368 0.197488 0.213188 -0.140478
C29   C     C_R   0.890364 0.302513 0.213191 -0.140486
C30   C     C_R   0.109647 0.697484 0.786803 -0.140498
C31   C     C_R   0.150271 0.326826 0.779219 -0.128267
C32   C     C_R   0.849728 0.673173 0.220781 -0.128267
C33   C     C_R   0.365445 0.889848 0.897120 -0.162225
C34   C     C_R   0.634555 0.110152 0.102880 -0.162225
C35   C     C_R   0.670108 0.913334 0.048838 -0.160874
C36   C     C_R   0.329892 0.086666 0.951162 -0.160871
C37   C     C_R   0.829892 0.413334 0.951162 -0.160872
C38   C     C_R   0.170108 0.586666 0.048839 -0.160873
C39   C     C_R   0.134555 0.389848 0.102879 -0.162226
C40   C     C_R   0.865445 0.610152 0.897120 -0.162227
C41   C     C_R   0.399099 0.106190 0.308933 -0.152332
C42   C     C_R   0.600901 0.893811 0.691066 -0.152329
C43   C     C_R   0.642942 0.080333 0.683000 -0.143350
C44   C     C_R   0.357055 0.919671 0.316998 -0.143336
C45   C     C_R   0.857061 0.580336 0.317001 -0.143356
C46   C     C_R   0.142939 0.419663 0.682999 -0.143352
C47   C     C_R   0.100911 0.606186 0.691060 -0.152311
C48   C     C_R   0.899096 0.393811 0.308935 -0.152321
C49   C     C_R   0.287388 0.147836 0.023294 0.154590
C50   C     C_R   0.712612 0.852164 0.976706 0.154592
C51   C     C_R   0.653157 0.185890 0.066966 0.157473
C52   C     C_R   0.346843 0.814109 0.933034 0.157474
C53   C     C_R   0.846843 0.685891 0.933034 0.157474
C54   C     C_R   0.153157 0.314109 0.066966 0.157474
C55   C     C_R   0.212612 0.647837 0.976707 0.154588
C56   C     C_R   0.787388 0.352164 0.023293 0.154589
C57   C     C_R   0.308318 0.859307 0.322954 0.031528
C58   C     C_R   0.691675 0.140701 0.677044 0.031538
C59   C     C_R   0.624237 0.818555 0.689966 0.042416
C60   C     C_R   0.375764 0.181446 0.310033 0.042417
C61   C     C_R   0.875757 0.318556 0.310038 0.042416
C62   C     C_R   0.124260 0.681438 0.689952 0.042419
C63   C     C_R   0.191668 0.359292 0.677043 0.031545
C64   C     C_R   0.808331 0.640707 0.322957 0.031544
C65   C     C_3   0.259384 0.204516 0.512373 -0.151760
C66   C     C_3   0.740616 0.795484 0.487625 -0.151761
C67   C     C_3   0.830033 0.153138 0.467005 -0.152919
C68   C     C_3   0.170018 0.846884 0.533025 -0.152951
C69   C     C_3   0.669946 0.653150 0.532981 -0.152904
C70   C     C_3   0.330054 0.346849 0.467020 -0.152903
C71   C     C_3   0.240561 0.704486 0.487564 -0.151817
C72   C     C_3   0.759403 0.295492 0.512394 -0.151780
C73   C     C_3   0.623736 0.730815 0.546733 -0.145058
C74   C     C_3   0.376263 0.269184 0.453268 -0.145060
C75   C     C_3   0.285719 0.780888 0.475503 -0.138924
C76   C     C_3   0.714311 0.219054 0.524423 -0.138959
C77   C     C_3   0.214323 0.280972 0.524386 -0.138978
C78   C     C_3   0.785678 0.719029 0.475612 -0.138976
C79   C     C_3   0.876274 0.230785 0.453237 -0.145047
C80   C     C_3   0.123712 0.769273 0.546825 -0.145027
C81   C     C_3   0.662545 0.766491 0.598339 0.186465
C82   C     C_3   0.337456 0.233509 0.401660 0.186466
C83   C     C_3   0.247998 0.817207 0.422637 0.186288
C84   C     C_3   0.752001 0.182799 0.577362 0.186287
C85   C     C_3   0.251997 0.317196 0.577361 0.186287
C86   C     C_3   0.748003 0.682804 0.422639 0.186287
C87   C     C_3   0.837450 0.266492 0.401665 0.186465
C88   C     C_3   0.162566 0.733503 0.598324 0.186467
H1    H     H_    0.329130 0.224617 0.098150 0.086509
H2    H     H_    0.670870 0.775383 0.901850 0.086509
H3    H     H_    0.618610 0.251946 0.976901 0.078773
H4    H     H_    0.381390 0.748054 0.023099 0.078775
H5    H     H_    0.881390 0.751945 0.023099 0.078773
H6    H     H_    0.118611 0.248055 0.976901 0.078773
H7    H     H_    0.170869 0.724620 0.901853 0.086504
H8    H     H_    0.829130 0.275382 0.098149 0.086507
H9    H     H_    0.331248 0.775580 0.199343 0.091909
H10   H     H_    0.668747 0.224423 0.800660 0.091898
H11   H     H_    0.611521 0.745998 0.816062 0.084424
H12   H     H_    0.388480 0.254002 0.183937 0.084424
H13   H     H_    0.888475 0.245999 0.183942 0.084428
H14   H     H_    0.111537 0.753999 0.816049 0.084434
H15   H     H_    0.168742 0.275573 0.800662 0.091892
H16   H     H_    0.831258 0.724427 0.199338 0.091892
H17   H     H_    0.361916 0.915907 0.836288 0.088869
H18   H     H_    0.638084 0.084093 0.163712 0.088870
H19   H     H_    0.690327 0.947133 0.088443 0.096633
H20   H     H_    0.309672 0.052867 0.911556 0.096632
H21   H     H_    0.809673 0.447133 0.911556 0.096632
H22   H     H_    0.190327 0.552866 0.088444 0.096632
H23   H     H_    0.138084 0.415907 0.163711 0.088871
H24   H     H_    0.861916 0.584093 0.836289 0.088872
H25   H     H_    0.404095 0.078655 0.367736 0.091409
H26   H     H_    0.595906 0.921345 0.632263 0.091409
H27   H     H_    0.654662 0.046281 0.616363 0.098643
H28   H     H_    0.345335 0.953722 0.383636 0.098642
H29   H     H_    0.845341 0.546284 0.383638 0.098641
H30   H     H_    0.154658 0.453715 0.616361 0.098638
H31   H     H_    0.095914 0.578653 0.632258 0.091400
H32   H     H_    0.904092 0.421345 0.367738 0.091405
H33   H     H_    0.555992 0.737151 0.579365 0.112324
H34   H     H_    0.444007 0.262848 0.420638 0.112324
H35   H     H_    0.353190 0.786049 0.444588 0.111707
H36   H     H_    0.646858 0.213846 0.555280 0.111700
H37   H     H_    0.146879 0.286202 0.555214 0.111696
H38   H     H_    0.853123 0.713798 0.444783 0.111696
H39   H     H_    0.944026 0.237099 0.420579 0.112328
H40   H     H_    0.055942 0.763007 0.579539 0.112339
H41   H     H_    0.230943 0.145458 0.529086 0.109367
H42   H     H_    0.769057 0.854542 0.470911 0.109369
H43   H     H_    0.857536 0.093807 0.451643 0.110733
H44   H     H_    0.142550 0.906233 0.548417 0.110726
H45   H     H_    0.642426 0.593827 0.548329 0.110737
H46   H     H_    0.357574 0.406172 0.451673 0.110738
H47   H     H_    0.268950 0.645401 0.470807 0.109356
H48   H     H_    0.730979 0.354559 0.529122 0.109366
H49   H     H_    0.298123 0.213636 0.630049 0.105342
H50   H     H_    0.701875 0.786363 0.369951 0.105342
H51   H     H_    0.791282 0.162686 0.349210 0.102421
H52   H     H_    0.208862 0.837237 0.650715 0.102422
H53   H     H_    0.708652 0.662651 0.650826 0.102420
H54   H     H_    0.291350 0.337350 0.349173 0.102420
H55   H     H_    0.201689 0.713757 0.370035 0.105361
H56   H     H_    0.798187 0.286322 0.630021 0.105348
N1    N     N_R   0.408680 0.130810 0.995780 -0.047018
N2    N     N_R   0.591320 0.869190 0.004220 -0.047019
N3    N     N_R   0.591320 0.130810 0.004220 -0.041655
N4    N     N_R   0.408680 0.869190 0.995780 -0.041654
N5    N     N_R   0.908680 0.630810 0.995780 -0.041656
N6    N     N_R   0.091320 0.369190 0.004220 -0.041656
N7    N     N_R   0.091320 0.630810 0.004220 -0.047018
N8    N     N_R   0.908680 0.369190 0.995780 -0.047018
N9    N     N_R   0.421410 0.867210 0.153620 -0.041212
N10   N     N_R   0.578590 0.132790 0.846380 -0.041211
N11   N     N_R   0.578590 0.867210 0.846380 -0.035761
N12   N     N_R   0.421410 0.132790 0.153620 -0.035761
N13   N     N_R   0.921410 0.367210 0.153620 -0.035761
N14   N     N_R   0.078590 0.632790 0.846380 -0.035759
N15   N     N_R   0.078590 0.367210 0.846380 -0.041210
N16   N     N_R   0.921410 0.632790 0.153620 -0.041210
N17   N     N_R   0.403840 0.921910 0.935760 -0.037233
N18   N     N_R   0.596160 0.078090 0.064240 -0.037233
N19   N     N_R   0.596160 0.921910 0.064240 -0.042453
N20   N     N_R   0.403840 0.078090 0.935760 -0.042452
N21   N     N_R   0.903840 0.421910 0.935760 -0.042452
N22   N     N_R   0.096160 0.578090 0.064240 -0.042452
N23   N     N_R   0.096160 0.421910 0.064240 -0.037234
N24   N     N_R   0.903840 0.578090 0.935760 -0.037235
N25   N     N_R   0.426250 0.076100 0.213650 -0.033059
N26   N     N_R   0.573750 0.923900 0.786350 -0.033060
N27   N     N_R   0.573750 0.076100 0.786350 -0.039734
N28   N     N_R   0.426250 0.923900 0.213650 -0.039737
N29   N     N_R   0.926250 0.576100 0.213650 -0.039733
N30   N     N_R   0.073750 0.423900 0.786350 -0.039733
N31   N     N_R   0.073750 0.576100 0.786350 -0.033059
N32   N     N_R   0.926250 0.423900 0.213650 -0.033060
Ni1   Ni    Ni4+2 0.500000 0.131570 0.000000 0.205906
Ni2   Ni    Ni4+2 0.500000 0.868430 0.000000 0.205905
Ni3   Ni    Ni4+2 1.000000 0.631570 0.000000 0.205907
Ni4   Ni    Ni4+2 1.000000 0.368430 0.000000 0.205907
Ni5   Ni    Ni4+2 0.488900 0.000000 0.862310 0.206702
Ni6   Ni    Ni4+2 0.511100 0.000000 0.137690 0.206701
Ni7   Ni    Ni4+2 0.988900 0.500000 0.862310 0.206702
Ni8   Ni    Ni4+2 0.011100 0.500000 0.137690 0.206701
H57   H     H_    0.309802 0.665966 0.997964 0.122521
H58   H     H_    0.690196 0.334034 0.002038 0.122522
H59   H     H_    0.788332 0.723115 0.859078 0.123719
H60   H     H_    0.211669 0.276885 0.140921 0.123717
H61   H     H_    0.711668 0.223114 0.140921 0.123715
H62   H     H_    0.288333 0.776884 0.859077 0.123713
H63   H     H_    0.190197 0.165966 0.002038 0.122522
H64   H     H_    0.809803 0.834034 0.997962 0.122523

loop_
_geom_bond_atom_site_label_1
_geom_bond_atom_site_label_2
_ccdc_geom_bond_type
C68   C80   S    
C14   H54   S    
C3    N3    A    
C36   H20   S    
C18   C21   D    
N16   N29   A    
C1    N1    A    
C8    H8    S    
C16   C84   S    
N15   Ni4   S    
C72   C76   S    
C75   C83   S    
C78   C86   S    
C76   C84   S    
C47   C62   A    
C79   C87   S    
N8    N21   A    
C65   C82   S    
C40   H24   S    
C33   C52   A    
C12   C68   S    
C27   H11   S    
C34   C51   A    
C13   C69   S    
C4    C52   A    
C75   H35   S    
N4    N17   A    
C22   C52   S    
C16   H56   S    
C6    C54   A    
N18   Ni6   S    
C45   N29   A    
C11   C76   S    
C66   H42   S    
C71   H47   S    
C10   C73   S    
C68   C83   S    
C72   H48   S    
C39   C54   A    
C4    N4    A    
C13   C81   S    
N12   N25   A    
N5    Ni3   S    
C5    N5    A    
C46   H30   S    
C3    H3    S    
C46   N30   A    
C14   C77   S    
C64   C86   S    
C68   H44   S    
C11   H51   S    
N20   Ni5   S    
C42   N26   A    
C43   C58   A    
C9    C85   S    
N9    Ni2   S    
C37   C56   A    
C9    H49   S    
C42   H26   S    
C38   C55   A    
N23   Ni8   S    
N29   Ni8   S    
C17   H57   S    
C6    H6    S    
N15   N30   A    
C16   C72   S    
C70   C74   S    
C1    H1    S    
C12   H52   S    
C69   C73   S    
C13   H53   S    
C22   H62   S    
C61   C87   S    
C17   C55   S    
C37   H21   S    
N11   Ni2   S    
C18   C56   S    
C43   H27   S    
C5    H5    S    
C19   C53   S    
C47   H31   S    
C32   H16   S    
C77   C85   S    
C67   C84   S    
C63   C85   S    
N19   Ni6   S    
C27   N11   A    
C14   C70   S    
C20   C54   S    
C8    C56   A    
N5    N24   A    
C25   C57   A    
C74   C82   S    
C73   C81   S    
C11   C67   S    
C10   C66   S    
C24   C50   S    
C66   C78   S    
C29   C61   A    
C65   C77   S    
C12   C88   S    
C25   N9    A    
N21   Ni7   S    
C31   C63   A    
C23   H63   S    
N22   Ni8   S    
C32   C64   A    
C48   H32   S    
C11   C87   S    
C43   N27   A    
C4    H4    S    
C29   N13   A    
C80   H40   S    
C41   N25   A    
C18   H58   S    
C35   N19   A    
N13   Ni4   S    
C76   H36   S    
N8    Ni4   S    
C33   N17   A    
N14   Ni3   S    
C44   N28   A    
N16   Ni3   S    
C58   C84   S    
C20   H60   S    
N12   Ni1   S    
N3    Ni1   S    
C21   H61   S    
C15   C80   S    
C38   N22   A    
C20   C23   D    
C30   N14   A    
C44   C57   A    
N24   Ni7   S    
C28   N12   A    
C30   H14   S    
C35   C50   A    
C57   C83   S    
C29   H13   S    
C24   H64   S    
C37   N21   A    
C70   H46   S    
C26   C58   A    
C28   C60   A    
C60   C82   S    
C15   C71   S    
C26   H10   S    
C7    N7    A    
C7    C55   A    
C25   H9    S    
C74   H34   S    
C73   H33   S    
C30   C62   A    
N26   Ni5   S    
N7    Ni3   S    
C15   H55   S    
C26   N10   A    
C38   H22   S    
C9    C74   S    
C14   C82   S    
C78   H38   S    
C21   C51   S    
C72   C87   S    
C77   H37   S    
N6    Ni4   S    
C45   H29   S    
C2    C50   A    
N32   Ni8   S    
C79   H39   S    
C13   C78   S    
C10   C86   S    
N4    Ni2   S    
C8    N8    A    
N31   Ni7   S    
N27   Ni5   S    
C67   H43   S    
C59   C81   S    
C41   C60   A    
C41   H25   S    
C34   N18   A    
N3    N18   A    
C42   C59   A    
C65   H41   S    
N1    N20   A    
C69   H45   S    
C2    N2    A    
N7    N22   A    
C7    H7    S    
N2    N19   A    
C45   C64   A    
C17   C22   D    
C33   H17   S    
C46   C63   A    
N10   Ni1   S    
C16   C79   S    
C19   C24   D    
C5    C53   A    
C80   C88   S    
C27   C59   A    
C66   C81   S    
C71   C75   S    
C70   C85   S    
N11   N26   A    
C28   H12   S    
C48   C61   A    
C62   C88   S    
C15   C83   S    
N6    N23   A    
N9    N28   A    
C39   H23   S    
C3    C51   A    
N10   N27   A    
C34   H18   S    
N17   Ni5   S    
C9    C65   S    
N25   Ni6   S    
C40   N24   A    
C35   H19   S    
C69   C86   S    
N13   N32   A    
C71   C88   S    
C6    N6    A    
C39   N23   A    
N28   Ni6   S    
N14   N31   A    
C23   C49   S    
C44   H28   S    
C2    H2    S    
C40   C53   A    
C12   C75   S    
N1    Ni1   S    
C36   N20   A    
C47   N31   A    
C19   H59   S    
C10   H50   S    
C32   N16   A    
N30   Ni7   S    
C1    C49   A    
C67   C79   S    
C31   N15   A    
C36   C49   A    
C31   H15   S    
C48   N32   A    
N2    Ni2   S    
