data_mof_unit_25269.cif
_audit_creation_date              2012-10-26T18:44:48-0400
_audit_creation_method            fapswitch 2.2
_symmetry_space_group_name_H-M    P1
_symmetry_Int_Tables_number       1
_space_group_crystal_system       triclinic
_cell_length_a                    16.010024
_cell_length_b                    14.732334
_cell_length_c                    10.637896
_cell_angle_alpha                 88.843187
_cell_angle_beta                  89.963252
_cell_angle_gamma                 89.832974
_cell_volume                      2508.58508363

loop_
_atom_site_label
_atom_site_type_symbol
_atom_type_description
_atom_site_fract_x
_atom_site_fract_y
_atom_site_fract_z
_atom_type_partial_charge
C1    C     C_1   0.252211 0.500392 0.498267 0.066639
C2    C     C_R   0.568312 0.048818 0.540714 0.016397
C3    C     C_R   0.955956 0.574235 0.552412 0.036172
C4    C     C_R   0.044151 0.425039 0.451387 0.039781
C5    C     C_R   0.044055 0.576054 0.546321 0.036130
C6    C     C_R   0.956123 0.422941 0.458384 0.040267
C7    C     C_R   0.340954 0.500109 0.499619 0.573116
C8    C     C_R   0.659071 0.499863 0.500302 0.568879
C9    C     C_R   0.512993 0.500997 0.261557 0.562112
C10   C     C_R   0.487176 0.499065 0.738525 0.559191
C11   C     C_R   0.912662 0.497702 0.508249 -0.048293
C12   C     C_1   0.747854 0.499421 0.502514 0.058196
C13   C     C_R   0.087438 0.501624 0.495309 -0.047689
C14   C     C_1   0.500229 0.802621 0.498256 0.191574
C15   C     C_1   0.499240 0.197532 0.494856 0.151320
C16   C     C_1   0.822715 0.498736 0.505145 0.044575
C17   C     C_1   0.177360 0.500864 0.496862 0.045679
C18   C     C_R   0.541962 0.671909 0.095627 0.033560
C19   C     C_R   0.450746 0.330255 0.910455 -0.031844
C20   C     C_R   0.428013 0.658724 0.894018 0.031631
C21   C     C_R   0.567878 0.339864 0.108336 0.028938
C22   C     C_R   0.506497 0.751837 0.040678 -0.011334
C23   C     C_R   0.471998 0.497262 0.876507 0.037574
C24   C     C_R   0.477859 0.249496 0.973868 -0.034558
C25   C     C_R   0.444292 0.744334 0.946951 -0.011910
C26   C     C_R   0.542580 0.254208 0.064027 0.010936
C27   C     C_R   0.471605 0.580803 0.940095 -0.037923
C28   C     C_R   0.528243 0.419632 0.059887 -0.034505
C29   C     C_R   0.514543 0.585554 0.054684 -0.039325
C30   C     C_R   0.484433 0.415258 0.946164 -0.035446
C31   C     C_2   0.091187 0.653776 0.598831 0.618552
C32   C     C_2   0.909076 0.344315 0.408546 0.630667
C33   C     C_2   0.908804 0.654088 0.599553 0.624498
C34   C     C_R   0.528410 0.503238 0.123566 0.043087
C35   C     C_2   0.091307 0.345447 0.403471 0.627413
C36   C     C_2   0.581109 0.169664 0.115413 0.651919
C37   C     C_2   0.396607 0.825892 0.904538 0.615169
C38   C     C_2   0.437781 0.160575 0.949037 0.587389
C39   C     C_2   0.537138 0.843080 0.075801 0.592619
C40   C     C_3   0.645353 0.102068 0.581069 -0.276541
C41   C     C_3   0.643776 0.121983 0.721270 -0.385179
C42   C     C_3   0.366488 0.896064 0.368738 -0.271131
C43   C     C_3   0.299250 0.864265 0.461351 -0.394731
C44   C     C_3   0.355540 0.094811 0.368447 -0.270361
C45   C     C_R   0.500052 0.903139 0.495341 0.034667
C46   C     C_3   0.337197 0.195658 0.385321 -0.377259
C47   C     C_3   0.636320 0.897479 0.616698 -0.279586
C48   C     C_3   0.607495 0.857383 0.743100 -0.383866
C49   C     C_2   0.613194 0.677615 0.185761 0.638117
C50   C     C_2   0.379347 0.327545 0.820125 0.656943
C51   C     C_2   0.356779 0.647336 0.805518 0.608001
C52   C     C_2   0.638688 0.347179 0.199008 0.622193
C53   C     C_R   0.498654 0.097544 0.489523 0.029118
C54   C     C_R   0.566780 0.951597 0.550222 0.033052
C55   C     C_R   0.430858 0.048827 0.434610 0.045660
C56   C     C_R   0.434055 0.951216 0.434268 0.025033
Cu1   Cu    Cu3+1 0.500000 0.589220 0.500000 1.078619
Cu2   Cu    Cu3+1 0.500000 0.410780 0.500000 1.045717
H1    H     H_    0.107509 0.738453 0.743387 0.363047
H2    H     H_    0.588349 0.164123 0.743793 0.172847
H3    H     H_    0.642030 0.058272 0.778381 0.194368
H4    H     H_    0.704071 0.067521 0.554415 0.160998
H5    H     H_    0.650495 0.167655 0.528592 0.185313
H6    H     H_    0.269880 0.922855 0.508373 0.163691
H7    H     H_    0.326562 0.818261 0.534090 0.231050
H8    H     H_    0.250174 0.826743 0.410345 0.203937
H9    H     H_    0.336678 0.933762 0.289595 0.187958
H10   H     H_    0.394270 0.835927 0.323022 0.188784
H11   H     H_    0.334427 0.212424 0.486445 0.206674
H12   H     H_    0.891395 0.258441 0.265743 0.362960
H13   H     H_    0.383203 0.238152 0.333038 0.189619
H14   H     H_    0.275060 0.211905 0.344140 0.179452
H15   H     H_    0.361377 0.083927 0.265731 0.214125
H16   H     H_    0.297922 0.060120 0.401520 0.147578
H17   H     H_    0.578507 0.910695 0.801259 0.201075
H18   H     H_    0.562118 0.801735 0.730137 0.190067
H19   H     H_    0.662014 0.828591 0.794791 0.186938
H20   H     H_    0.658291 0.841990 0.555514 0.176745
H21   H     H_    0.692628 0.937682 0.636041 0.152679
H22   H     H_    0.721903 0.623563 0.247968 0.349387
H23   H     H_    0.893150 0.790055 0.595677 0.349583
H24   H     H_    0.427662 0.225005 0.720224 0.289883
H25   H     H_    0.255272 0.574614 0.758820 0.353020
H26   H     H_    0.699141 0.295629 0.350917 0.359773
H27   H     H_    0.108046 0.209628 0.407774 0.345919
H28   H     H_    0.566122 0.053611 0.216376 0.353212
H29   H     H_    0.373044 0.918059 0.766035 0.344212
H30   H     H_    0.452346 0.028989 0.904810 0.370659
H31   H     H_    0.635159 0.928229 0.087478 0.358888
H32   H     H_    0.700769 0.160196 0.746770 0.181115
N1    N     N_1   0.500000 0.276710 0.500000 -0.186581
N2    N     N_1   0.500000 0.723290 0.500000 -0.162006
O1    O     O_R   0.380310 0.575320 0.500020 -0.471679
O2    O     O_R   0.070927 0.685874 0.717877 -0.638278
O3    O     O_2   0.854122 0.308336 0.471838 -0.513501
O4    O     O_R   0.927709 0.311768 0.289158 -0.630432
O5    O     O_2   0.851845 0.643247 0.675005 -0.484329
O6    O     O_R   0.929602 0.741592 0.557078 -0.651680
O7    O     O_2   0.147262 0.356600 0.326412 -0.491085
O8    O     O_R   0.071688 0.257885 0.447039 -0.646517
O9    O     O_2   0.655411 0.154909 0.098334 -0.481364
O10   O     O_R   0.532431 0.107404 0.183585 -0.660041
O11   O     O_2   0.345411 0.859832 0.974924 -0.457065
O12   O     O_R   0.619690 0.424680 0.499980 -0.482155
O13   O     O_R   0.409962 0.863391 0.784517 -0.707873
O14   O     O_2   0.361833 0.153195 0.955603 -0.447166
O15   O     O_R   0.486833 0.085390 0.919020 -0.693357
O16   O     O_2   0.488689 0.899689 0.116334 -0.489132
O17   O     O_R   0.621790 0.864011 0.061754 -0.670091
O18   O     O_2   0.614942 0.736882 0.264545 -0.493837
O19   O     O_R   0.677771 0.613657 0.181360 -0.645191
O20   O     O_2   0.322305 0.382122 0.829337 -0.413121
O21   O     O_R   0.375568 0.263700 0.725038 -0.641288
O22   O     O_2   0.346419 0.700374 0.717168 -0.481852
O23   O     O_R   0.619690 0.575320 0.499980 -0.482015
O24   O     O_R   0.301482 0.575077 0.823903 -0.646230
O25   O     O_2   0.688173 0.409935 0.188188 -0.474463
O26   O     O_R   0.648420 0.283323 0.296990 -0.668931
O27   O     O_R   0.380310 0.424680 0.500020 -0.475946
O28   O     O_R   0.499990 0.575350 0.319650 -0.497653
O29   O     O_R   0.500010 0.424650 0.680350 -0.504314
O30   O     O_R   0.500010 0.575350 0.680350 -0.494540
O31   O     O_R   0.499990 0.424650 0.319650 -0.496249
O32   O     O_2   0.147756 0.689238 0.538326 -0.505218

loop_
_geom_bond_atom_site_label_1
_geom_bond_atom_site_label_2
_ccdc_geom_bond_type
C6    C32   S    
C55   C56   A    
Cu1   N2    S    
C27   C29   A    
C48   H18   S    
C44   C55   S    
C41   H3    S    
C21   C26   A    
C10   O29   A    
Cu1   O23   S    
Cu2   O31   S    
C40   H5    S    
C15   C53   S    
C24   C26   A    
C31   O32   D    
C20   C51   S    
C20   C25   A    
C3    C33   S    
H31   O17   S    
C4    C13   A    
C40   H4    S    
C36   O10   S    
C33   O6    S    
C38   O15   S    
C46   H11   S    
C8    O23   A    
C42   C56   S    
Cu1   O30   S    
C12   C16   T    
C45   C56   A    
C22   C25   A    
C24   C38   S    
H1    O2    S    
C23   C27   A    
Cu2   N1    S    
C46   H14   S    
C43   H7    S    
C49   O19   S    
C25   C37   S    
C52   O25   D    
C41   H32   S    
C4    C35   S    
C28   C34   A    
Cu1   O1    S    
C42   H10   S    
C48   H17   S    
C35   O7    D    
C44   C46   S    
C43   H6    S    
C14   C45   S    
C53   C55   A    
C39   O16   D    
C7    O1    A    
C51   O22   D    
C23   C30   A    
C7    O27   A    
H24   O21   S    
C4    C6    A    
C2    C54   A    
C6    C11   A    
C37   O11   D    
H30   O15   S    
C10   O30   A    
C29   C34   A    
C36   O9    D    
C48   H19   S    
C38   O14   D    
H12   O4    S    
C37   O13   S    
C11   C16   S    
C47   C48   S    
H29   O13   S    
C8    C12   S    
C50   O20   D    
C18   C29   A    
C44   H16   S    
C8    O12   A    
C14   N2    T    
C46   H13   S    
C47   C54   S    
C26   C36   S    
C40   C41   S    
C32   O4    S    
C21   C28   A    
C45   C54   A    
Cu1   O28   S    
C42   H9    S    
Cu2   O12   S    
C42   C43   S    
C35   O8    S    
H28   O10   S    
Cu2   O29   S    
C1    C7    S    
C5    C13   A    
H25   O24   S    
C41   H2    S    
C3    C5    A    
C2    C53   A    
C20   C27   A    
C10   C23   S    
C31   O2    S    
C1    C17   T    
C51   O24   S    
C13   C17   S    
C50   O21   S    
C18   C22   A    
C19   C24   A    
H27   O8    S    
C47   H21   S    
C19   C50   S    
Cu1   Cu2   S    
C9    C34   S    
C43   H8    S    
C22   C39   S    
H22   O19   S    
C28   C30   A    
Cu2   O27   S    
C9    O31   A    
C33   O5    D    
C44   H15   S    
C3    C11   A    
C15   N1    T    
C2    C40   S    
C39   O17   S    
C32   O3    D    
H26   O26   S    
H23   O6    S    
C9    O28   A    
C47   H20   S    
C19   C30   A    
C21   C52   S    
C18   C49   S    
C49   O18   D    
C5    C31   S    
C52   O26   S    
