data_mof_unit_54036.cif
_audit_creation_date              2012-10-26T20:58:54-0400
_audit_creation_method            fapswitch 2.2
_symmetry_space_group_name_H-M    P1
_symmetry_Int_Tables_number       1
_space_group_crystal_system       triclinic
_cell_length_a                    27.802083
_cell_length_b                    10.665583
_cell_length_c                    9.436828
_cell_angle_alpha                 90.747335
_cell_angle_beta                  89.842721
_cell_angle_gamma                 90.222417
_cell_volume                      2797.99014877

loop_
_atom_site_label
_atom_site_type_symbol
_atom_type_description
_atom_site_fract_x
_atom_site_fract_y
_atom_site_fract_z
_atom_type_partial_charge
C1    C     C_R   0.499991 0.259683 0.499146 0.626365
C2    C     C_R   0.872614 0.418311 0.600462 -0.005023
C3    C     C_R   0.354305 0.504445 0.497334 -0.022549
C4    C     C_R   0.645537 0.500079 0.502945 0.004782
C5    C     C_R   0.974881 0.413186 0.593634 -0.001448
C6    C     C_R   0.024743 0.526718 0.366464 0.001493
C7    C     C_R   0.974407 0.545284 0.383059 0.050882
C8    C     C_R   0.025595 0.431223 0.601257 0.047137
C9    C     C_R   0.949257 0.482263 0.492316 0.029736
C10   C     C_R   0.050567 0.482346 0.483830 0.024275
C11   C     C_R   0.949123 0.329312 0.682485 0.021823
C12   C     C_R   0.501062 0.740175 0.500833 0.607085
C13   C     C_R   0.049862 0.549609 0.237563 0.043725
C14   C     C_R   0.898178 0.335452 0.690081 -0.020092
C15   C     C_R   0.100929 0.555725 0.237454 -0.006894
C16   C     C_R   0.407582 0.501325 0.499729 0.632991
C17   C     C_R   0.592359 0.500072 0.500340 0.622132
C18   C     C_R   0.051759 0.405829 0.725168 -0.075835
C19   C     C_R   0.948933 0.629858 0.298254 -0.087256
C20   C     C_3   0.541464 0.045394 0.562696 -0.091282
C21   C     C_3   0.460938 0.954300 0.437255 -0.187055
C22   C     C_3   0.539904 0.958504 0.429996 0.027257
C23   C     C_R   0.101382 0.489761 0.484915 -0.037223
C24   C     C_3   0.462474 0.040703 0.570323 0.003611
C25   C     C_3   0.501856 0.876591 0.502231 -0.016116
C26   C     C_3   0.500396 0.123067 0.497715 -0.002719
C27   C     C_3   0.503003 0.962156 0.634305 0.005239
C28   C     C_3   0.499458 0.037165 0.365602 -0.038001
C29   C     C_3   0.502536 0.613494 0.052378 -0.039718
C30   C     C_3   0.497456 0.386521 0.947634 -0.022752
C31   C     C_3   0.464098 0.561011 0.952286 0.110873
C32   C     C_3   0.535886 0.439013 0.047675 0.095176
C33   C     C_3   0.538899 0.551706 0.949397 0.001893
C34   C     C_R   0.898467 0.488919 0.499498 -0.025397
C35   C     C_3   0.461076 0.448292 0.050615 0.022290
C36   C     C_R   0.176923 0.462772 0.609261 0.391409
C37   C     C_R   0.823391 0.572531 0.410332 0.488242
C38   C     C_R   0.177604 0.543396 0.374592 0.382442
C39   C     C_R   0.821744 0.431024 0.604109 0.456255
C40   C     C_R   0.278048 0.609427 0.553269 0.031315
C41   C     C_R   0.722303 0.404422 0.435687 0.006722
C42   C     C_R   0.329000 0.607571 0.557899 0.001832
C43   C     C_R   0.671498 0.401158 0.436912 -0.040718
C44   C     C_R   0.328590 0.406320 0.428403 0.025911
C45   C     C_R   0.126705 0.455932 0.608130 0.041933
C46   C     C_R   0.670360 0.597008 0.576918 -0.071071
C47   C     C_R   0.277815 0.403479 0.434788 0.029777
C48   C     C_R   0.721194 0.600494 0.575709 0.002796
C49   C     C_R   0.252939 0.505970 0.495040 0.149291
C50   C     C_R   0.746901 0.504143 0.504716 0.237994
C51   C     C_2   0.354543 0.309420 0.344283 0.629600
C52   C     C_2   0.643060 0.692978 0.660491 0.561487
C53   C     C_2   0.507235 0.919086 0.784403 0.278101
C54   C     C_2   0.496679 0.078579 0.214352 0.256618
C55   C     C_2   0.422910 0.634566 0.896960 0.288215
C56   C     C_R   0.873607 0.567418 0.405218 0.051902
C57   C     C_2   0.577166 0.365662 0.102652 0.284270
C58   C     C_2   0.249648 0.292653 0.382823 0.330026
C59   C     C_2   0.747013 0.707803 0.645223 0.288461
C60   C     C_2   0.646074 0.291298 0.372851 0.253973
C61   C     C_2   0.355244 0.714802 0.624024 0.295373
C62   C     C_2   0.749842 0.299757 0.367752 0.267838
C63   C     C_2   0.249692 0.719722 0.604085 0.295193
C64   C     C_2   0.871941 0.247101 0.782836 0.354314
C65   C     C_2   0.127058 0.574036 0.101926 0.331099
C66   C     C_2   0.974377 0.219121 0.743035 0.561030
C67   C     C_R   0.101451 0.416800 0.728139 -0.064794
C68   C     C_2   0.023229 0.541626 0.100452 0.540280
C69   C     C_2   0.582825 0.910362 0.350168 0.357978
C70   C     C_2   0.418522 0.084416 0.648463 0.355367
C71   C     C_R   0.899315 0.639674 0.308011 -0.075286
C72   C     C_R   0.126807 0.531460 0.364201 -0.021452
Cu1   Cu    Cu3+1 0.500010 0.499990 0.643150 1.052395
Cu2   Cu    Cu3+1 0.499990 0.500010 0.356850 1.011128
H1    H     H_    0.574164 0.083653 0.615153 0.193799
H2    H     H_    0.967230 0.691788 0.225928 0.159720
H3    H     H_    0.404227 0.173639 0.340029 0.315108
H4    H     H_    0.675511 0.650349 0.844959 0.331531
H5    H     H_    0.538375 0.865358 0.816010 0.150473
H6    H     H_    0.466491 0.133945 0.179213 0.128163
H7    H     H_    0.429708 0.717330 0.834704 0.157468
H8    H     H_    0.570504 0.283479 0.165991 0.168094
H9    H     H_    0.212739 0.303251 0.348375 0.122248
H10   H     H_    0.729046 0.797123 0.660129 0.155850
H11   H     H_    0.660312 0.245183 0.278696 0.156385
H12   H     H_    0.428212 0.916321 0.384680 0.181124
H13   H     H_    0.340769 0.761407 0.717584 0.178538
H14   H     H_    0.735725 0.204839 0.368644 0.124407
H15   H     H_    0.213679 0.706830 0.646016 0.156619
H16   H     H_    0.847958 0.177404 0.736475 0.141994
H17   H     H_    0.151352 0.501998 0.062830 0.132837
H18   H     H_    0.021399 0.078079 0.709746 0.362792
H19   H     H_    0.971331 0.454160 0.986662 0.356949
H20   H     H_    0.578004 0.842778 0.264452 0.128275
H21   H     H_    0.383538 0.046409 0.620338 0.164083
H22   H     H_    0.504288 0.709184 0.099861 0.142354
H23   H     H_    0.495922 0.290800 0.900264 0.179448
H24   H     H_    0.571572 0.594589 0.902530 0.180018
H25   H     H_    0.428394 0.405252 0.097505 0.177398
H26   H     H_    0.119991 0.394541 0.825376 0.163072
H27   H     H_    0.881169 0.704186 0.238569 0.186901
H28   H     H_    0.034120 0.380866 0.822782 0.156726
N1    N     N_R   0.201147 0.505667 0.493724 -0.430933
N2    N     N_R   0.798676 0.503845 0.507433 -0.338146
N3    N     N_3   0.500040 0.499970 0.858290 -0.283361
N4    N     N_3   0.499960 0.500030 0.141710 -0.285448
O1    O     O_R   0.500020 0.316850 0.620870 -0.472540
O2    O     O_2   0.799218 0.644608 0.318258 -0.446747
O3    O     O_2   0.795122 0.372530 0.703138 -0.462373
O4    O     O_2   0.203617 0.592673 0.267977 -0.443209
O5    O     O_2   0.343373 0.289192 0.220768 -0.450760
O6    O     O_R   0.391245 0.240823 0.406259 -0.709014
O7    O     O_2   0.612276 0.755349 0.602996 -0.484399
O8    O     O_R   0.651798 0.712429 0.804976 -0.668531
O9    O     O_2   0.476012 0.943742 0.871301 -0.473327
O10   O     O_2   0.528260 0.050575 0.129866 -0.495271
O11   O     O_2   0.381674 0.602763 0.923233 -0.484592
O12   O     O_R   0.499980 0.683150 0.379130 -0.517032
O13   O     O_2   0.618337 0.396976 0.074787 -0.501789
O14   O     O_2   0.266571 0.187188 0.383419 -0.415057
O15   O     O_2   0.788062 0.697846 0.689084 -0.456577
O16   O     O_2   0.609819 0.248480 0.427096 -0.515520
O17   O     O_2   0.392439 0.754674 0.572559 -0.550638
O18   O     O_2   0.788148 0.318344 0.307941 -0.437744
O19   O     O_2   0.265112 0.826543 0.593601 -0.455067
O20   O     O_2   0.875711 0.254964 0.911500 -0.380642
O21   O     O_2   0.123294 0.671730 0.037011 -0.397655
O22   O     O_2   0.968680 0.190951 0.867129 -0.435377
O23   O     O_R   0.500000 0.316860 0.379090 -0.517594
O24   O     O_R   0.005802 0.149512 0.657218 -0.666190
O25   O     O_2   0.029962 0.619028 0.008031 -0.465850
O26   O     O_R   0.988862 0.446951 0.080245 -0.649753
O27   O     O_2   0.623156 0.947103 0.380553 -0.443735
O28   O     O_2   0.421890 0.160988 0.745117 -0.442361
O29   O     O_R   0.500000 0.683140 0.620910 -0.505613
O30   O     O_R   0.430270 0.500020 0.620880 -0.461147
O31   O     O_R   0.569730 0.499980 0.379120 -0.483099
O32   O     O_R   0.430250 0.500030 0.379090 -0.488083
O33   O     O_R   0.569750 0.499970 0.620910 -0.492349
O34   O     O_2   0.201557 0.426981 0.724893 -0.461503

loop_
_geom_bond_atom_site_label_1
_geom_bond_atom_site_label_2
_ccdc_geom_bond_type
C59   O15   D    
C3    C42   A    
C34   C56   A    
C51   O6    S    
C23   C45   A    
C64   O20   D    
C29   C33   S    
H3    O6    S    
C37   N2    A    
C31   N3    S    
Cu1   Cu2   S    
C19   C71   A    
C24   C27   S    
C64   H16   S    
C62   O18   D    
C24   C70   S    
C39   N2    A    
C47   C49   A    
C4    C46   A    
C52   O7    D    
C50   N2    S    
C15   C72   A    
Cu2   O32   S    
C30   H23   S    
C6    C13   A    
C40   C63   S    
C30   C35   S    
C36   N1    A    
C32   C57   S    
C19   H2    S    
C53   H5    S    
C24   C26   S    
C5    C11   A    
C1    O23   A    
C11   C14   A    
Cu1   O1    S    
C40   C49   A    
C15   C65   S    
C46   C52   S    
C65   H17   S    
C33   H24   S    
C18   H28   S    
C68   O26   S    
C61   H13   S    
C37   C56   A    
C2    C39   A    
Cu1   O29   S    
C12   O29   A    
C54   O10   D    
C45   C67   A    
C69   O27   D    
C38   O4    S    
H19   O26   S    
C22   C69   S    
C11   C66   S    
C57   O13   D    
C2    C34   A    
C40   C42   A    
C71   H27   S    
C22   C28   S    
C41   C43   A    
H4    O8    S    
C41   C62   S    
C35   H25   S    
C54   H6    S    
Cu2   O12   S    
Cu2   O31   S    
C38   C72   A    
C3    C44   A    
C33   N3    S    
C59   H10   S    
C37   O2    S    
C69   H20   S    
C28   C54   S    
C44   C47   A    
Cu1   O33   S    
C18   C67   A    
C62   H14   S    
C22   C25   S    
C8    C18   A    
C20   H1    S    
C68   O25   D    
H18   O24   S    
C5    C9    A    
C38   N1    A    
Cu2   N4    S    
Cu1   N3    S    
Cu1   O30   S    
C56   C71   A    
C14   C64   S    
C63   H15   S    
C58   O14   D    
C36   C45   A    
C17   O33   A    
C60   O16   D    
C36   O34   S    
C42   C61   S    
C63   O19   D    
C67   H26   S    
C1    O1    A    
C12   O12   A    
C4    C17   S    
C43   C60   S    
C44   C51   S    
C4    C43   A    
C21   C28   S    
C20   C22   S    
C7    C19   A    
C13   C15   A    
C30   N3    S    
C9    C34   A    
C31   C35   S    
C29   N4    S    
C21   C24   S    
C5    C8    A    
C55   H7    S    
C16   O30   A    
C65   O21   D    
C41   C50   A    
C48   C59   S    
C55   O11   D    
C7    C9    A    
C21   C25   S    
C21   H12   S    
C51   O5    D    
C23   C72   A    
C16   O32   A    
C49   N1    S    
C29   H22   S    
C17   O31   A    
C60   H11   S    
C27   C53   S    
C6    C7    A    
C20   C27   S    
C52   O8    S    
C10   C23   A    
C25   C27   S    
C26   C28   S    
C12   C25   S    
C61   O17   D    
C32   C33   S    
C70   H21   S    
C29   C31   S    
C35   N4    S    
C58   H9    S    
C47   C58   S    
C30   C32   S    
C1    C26   S    
C20   C26   S    
C48   C50   A    
C66   O22   D    
C2    C14   A    
C6    C10   A    
C46   C48   A    
C39   O3    S    
C8    C10   A    
Cu2   O23   S    
C70   O28   D    
C57   H8    S    
C32   N4    S    
C31   C55   S    
C3    C16   S    
C53   O9    D    
C66   O24   S    
C13   C68   S    
