data_mof_unit_52994.cif
_audit_creation_date              2012-12-10T20:27:51-0500
_audit_creation_method            fapswitch 2.2
_symmetry_space_group_name_H-M    P1
_symmetry_Int_Tables_number       1
_space_group_crystal_system       triclinic
_cell_length_a                    12.88376
_cell_length_b                    10.675892
_cell_length_c                    9.858125
_cell_angle_alpha                 89.948816
_cell_angle_beta                  97.212251
_cell_angle_gamma                 90.07952
_cell_volume                      1345.21199172

loop_
_atom_site_label
_atom_site_type_symbol
_atom_type_description
_atom_site_fract_x
_atom_site_fract_y
_atom_site_fract_z
_atom_type_partial_charge
C1    C     C_R   0.503140 0.259922 0.500598 0.880735
C2    C     C_R   0.028447 0.515566 0.559589 0.148374
C3    C     C_R   0.970685 0.474669 0.435599 0.157314
C4    C     C_R   0.863198 0.465161 0.429856 -0.275493
C5    C     C_R   0.871401 0.535295 0.665774 -0.200325
C6    C     C_R   0.978990 0.544015 0.674173 -0.204130
C7    C     C_R   0.518333 0.063723 0.626321 0.142883
C8    C     C_R   0.519814 0.128563 0.504035 -0.104297
C9    C     C_R   0.541454 0.064943 0.386351 -0.227700
C10   C     C_R   0.541666 0.935390 0.386341 -0.224947
C11   C     C_R   0.520212 0.871407 0.504007 -0.103388
C12   C     C_R   0.298150 0.500024 0.473143 0.902124
C13   C     C_R   0.518625 0.935965 0.626341 0.126383
C14   C     C_3   0.442800 0.928302 0.729124 -0.475272
C15   C     C_3   0.442272 0.070273 0.728833 -0.492654
C16   C     C_R   0.451220 0.406209 0.063430 0.217539
C17   C     C_R   0.556033 0.586046 0.081124 -0.131196
C18   C     C_R   0.556019 0.586078 0.937085 -0.142005
C19   C     C_R   0.451210 0.406170 0.920790 0.218586
C20   C     C_3   0.337682 0.374288 0.896864 -0.504970
C21   C     C_3   0.337803 0.374607 0.050715 -0.524819
C22   C     C_R   0.503381 0.740049 0.500518 0.882202
C23   C     C_R   0.701817 0.498919 0.526814 0.878633
C24   C     C_R   0.813922 0.498097 0.542768 -0.056082
C25   C     C_R   0.186017 0.496552 0.456478 -0.103660
C26   C     C_R   0.021964 0.445898 0.320785 0.196155
C27   C     C_R   0.130276 0.456949 0.333233 -0.209085
C28   C     C_R   0.135210 0.527551 0.568101 -0.291784
H1    H     H_    0.816774 0.433880 0.336930 0.177595
H2    H     H_    0.478853 0.887518 0.827701 0.201764
H3    H     H_    0.365716 0.110913 0.685764 0.199970
H4    H     H_    0.477770 0.111617 0.827361 0.203395
H5    H     H_    0.599631 0.656968 0.142588 0.144126
H6    H     H_    0.599578 0.657031 0.889769 0.143841
H7    H     H_    0.289484 0.450618 0.844868 0.217105
H8    H     H_    0.323396 0.280066 0.850600 0.198740
H9    H     H_    0.290304 0.451782 0.086449 0.213848
H10   H     H_    0.323663 0.280629 0.093473 0.202497
H11   H     H_    0.833180 0.560605 0.753649 0.158641
H12   H     H_    0.023319 0.574476 0.769228 0.138854
H13   H     H_    0.171320 0.432146 0.247909 0.156536
H14   H     H_    0.178909 0.560418 0.662618 0.157395
H15   H     H_    0.550901 0.114117 0.292488 0.169856
H16   H     H_    0.551230 0.886454 0.292487 0.166009
H17   H     H_    0.366492 0.886411 0.686684 0.205011
N1    N     N_R   0.499290 0.499140 0.142710 -0.106894
N2    N     N_R   0.499290 0.499180 0.857070 -0.106120
O1    O     O_R   0.500010 0.316790 0.614690 -0.614747
O2    O     O_R   0.500000 0.316760 0.385350 -0.624824
O3    O     O_R   0.346360 0.499990 0.595720 -0.624047
O4    O     O_R   0.346350 0.499960 0.366370 -0.622549
O5    O     O_R   0.500000 0.683240 0.614650 -0.621562
O6    O     O_R   0.499990 0.683210 0.385310 -0.624087
O7    O     O_R   0.653650 0.500040 0.633630 -0.624335
O8    O     O_R   0.653640 0.500010 0.404280 -0.627231
Zn1   Zn    Zn3+2 0.500010 0.500020 0.653130 0.941962
Zn2   Zn    Zn3+2 0.499990 0.499980 0.346870 0.940677
C29   C     C_3   0.964075 0.403114 0.186011 -0.952763
H18   H     H_    0.018016 0.385549 0.108581 0.245393
H19   H     H_    0.921636 0.314512 0.200688 0.244428
H20   H     H_    0.907614 0.476279 0.144479 0.242395

loop_
_geom_bond_atom_site_label_1
_geom_bond_atom_site_label_2
_ccdc_geom_bond_type
C12   O3    A    
C23   C24   S    
C1    O1    A    
C23   O8    A    
C16   C21   S    
O4    Zn2   S    
C22   O6    A    
C1    C8    S    
C11   C13   A    
C9    C10   A    
C27   H13   S    
C11   C22   S    
C4    H1    S    
C12   C25   S    
C18   N2    A    
C29   H20   S    
C7    C15   S    
C17   C18   A    
C21   H9    S    
C7    C8    A    
C13   C14   S    
C17   N1    A    
C25   C28   A    
C15   H3    S    
C18   H6    S    
C26   C27   A    
C2    C6    A    
C5    C24   A    
C17   H5    S    
C14   H2    S    
C16   C19   A    
C28   H14   S    
C2    C3    A    
C14   H17   S    
O7    Zn1   S    
O8    Zn2   S    
N1    Zn2   S    
C5    C6    A    
C4    C24   A    
C6    H12   S    
C9    H15   S    
C25   C27   A    
C10   C11   A    
C10   H16   S    
C3    C4    A    
C20   H8    S    
O5    Zn1   S    
C7    C13   A    
C12   O4    A    
O2    Zn2   S    
C20   C21   S    
C23   O7    A    
C22   O5    A    
C19   N2    A    
C16   N1    A    
O1    Zn1   S    
C5    H11   S    
O6    Zn2   S    
C14   C15   S    
N2    Zn1   S    
C2    C28   A    
C29   H18   S    
C15   H4    S    
C20   H7    S    
C29   H19   S    
C26   C29   S    
C3    C26   A    
O3    Zn1   S    
C21   H10   S    
C19   C20   S    
C8    C9    A    
C1    O2    A    
