data_mof_unit_26536.cif
_audit_creation_date              2012-10-26T18:54:36-0400
_audit_creation_method            fapswitch 2.2
_symmetry_space_group_name_H-M    P1
_symmetry_Int_Tables_number       1
_space_group_crystal_system       triclinic
_cell_length_a                    15.905488
_cell_length_b                    11.723681
_cell_length_c                    10.477427
_cell_angle_alpha                 90.088328
_cell_angle_beta                  90.629462
_cell_angle_gamma                 91.211457
_cell_volume                      1953.17724296

loop_
_atom_site_label
_atom_site_type_symbol
_atom_type_description
_atom_site_fract_x
_atom_site_fract_y
_atom_site_fract_z
_atom_type_partial_charge
C1    C     C_1   0.500236 0.161978 0.499858 -0.009385
C2    C     C_1   0.500333 0.940286 0.500148 -0.027823
C3    C     C_3   0.970514 0.403977 0.583069 0.217020
C4    C     C_3   0.029206 0.567195 0.426479 0.190191
C5    C     C_3   0.021415 0.383177 0.461178 0.238341
C6    C     C_3   0.979557 0.588747 0.549852 0.176086
C7    C     C_1   0.250051 0.488700 0.497449 0.040027
C8    C     C_1   0.749938 0.503283 0.503395 0.011199
C9    C     C_3   0.033063 0.500615 0.622138 0.183310
C10   C     C_3   0.967218 0.469880 0.387087 0.162035
C11   C     C_3   0.083412 0.479879 0.499605 -0.016971
C12   C     C_1   0.500266 0.838051 0.500213 -0.007294
C13   C     C_3   0.916194 0.492099 0.510552 -0.080501
C14   C     C_1   0.174792 0.482188 0.496942 0.077548
C15   C     C_1   0.825144 0.501010 0.507199 0.015269
C16   C     C_3   0.978533 0.202797 0.388942 0.078954
C17   C     C_3   0.984397 0.091003 0.463208 -0.284530
C18   C     C_3   0.903527 0.019285 0.446890 -0.498589
C19   C     C_3   0.023462 0.768021 0.625286 0.033661
C20   C     C_3   0.014580 0.821596 0.757222 -0.259131
C21   C     C_3   0.086570 0.906323 0.785887 -0.454630
C22   C     C_3   0.867672 0.283749 0.676109 0.000601
C23   C     C_1   0.500030 0.499982 0.072085 0.127791
C24   C     C_3   0.823804 0.348791 0.782452 -0.238478
C25   C     C_3   0.732916 0.307107 0.797434 -0.450521
C26   C     C_3   0.011646 0.731943 0.304194 0.041457
C27   C     C_3   0.019479 0.754176 0.161020 -0.231317
C28   C     C_3   0.959810 0.847451 0.118424 -0.473322
C29   C     C_1   0.500025 0.499979 0.927911 0.121571
C30   C     C_R   0.500055 0.283345 0.499934 0.544364
C31   C     C_R   0.500161 0.716665 0.500083 0.549057
C32   C     C_R   0.339396 0.497092 0.499256 0.550190
C33   C     C_R   0.660592 0.502333 0.500802 0.540018
C34   C     C_1   0.500330 0.059750 0.499970 -0.028372
Cu1   Cu    Cu3+1 0.500000 0.500000 0.625300 1.017466
Cu2   Cu    Cu3+1 0.500000 0.500000 0.374700 1.039797
H1    H     H_    0.979365 0.183494 0.285108 0.194466
H2    H     H_    0.953912 0.866733 0.761854 0.164659
H3    H     H_    0.014473 0.753948 0.830927 0.217176
H4    H     H_    0.147770 0.862443 0.784339 0.187728
H5    H     H_    0.078366 0.944254 0.881962 0.163268
H6    H     H_    0.087249 0.976130 0.714313 0.158089
H7    H     H_    0.864404 0.191403 0.699583 0.151601
H8    H     H_    0.834487 0.291787 0.582896 0.107618
H9    H     H_    0.858189 0.336284 0.874167 0.243801
H10   H     H_    0.824664 0.441469 0.761139 0.168430
H11   H     H_    0.697844 0.314986 0.705798 0.163502
H12   H     H_    0.916581 0.240452 0.409690 0.156350
H13   H     H_    0.701617 0.359186 0.870915 0.178721
H14   H     H_    0.731051 0.216425 0.828024 0.151325
H15   H     H_    0.030824 0.812186 0.352978 0.127371
H16   H     H_    0.944570 0.712723 0.327438 0.186162
H17   H     H_    0.085139 0.781278 0.139090 0.181564
H18   H     H_    0.004901 0.674927 0.106524 0.247972
H19   H     H_    0.893916 0.823930 0.142884 0.177169
H20   H     H_    0.963251 0.858998 0.013809 0.150714
H21   H     H_    0.977698 0.929664 0.165123 0.145535
H22   H     H_    0.044686 0.465714 0.146233 0.374746
H23   H     H_    0.038682 0.041862 0.428716 0.158759
H24   H     H_    0.951290 0.559634 0.834410 0.336241
H25   H     H_    0.994469 0.109726 0.566268 0.210441
H26   H     H_    0.848688 0.067123 0.481515 0.150926
H27   H     H_    0.907418 0.939633 0.503095 0.167288
H28   H     H_    0.893078 0.996747 0.344954 0.155730
H29   H     H_    0.023605 0.838414 0.555618 0.121589
H30   H     H_    0.085714 0.726873 0.618236 0.180992
N1    N     N_1   0.500010 0.500000 0.186410 -0.179392
N2    N     N_1   0.499990 0.500000 0.813590 -0.183369
O1    O     O_R   0.499990 0.337200 0.605810 -0.495093
O2    O     O_3   0.953498 0.694431 0.599332 -0.582070
O3    O     O_3   0.953464 0.315825 0.672096 -0.513556
O4    O     O_3   0.067660 0.645821 0.341639 -0.570516
O5    O     O_2   0.856214 0.354232 0.235005 -0.297057
O6    O     O_2   0.880562 0.554682 0.185223 -0.294354
O7    O     O_3   0.997463 0.411251 0.129023 -0.427550
O8    O     O_2   0.114144 0.395546 0.812798 -0.183775
O9    O     O_2   0.143807 0.599842 0.789012 -0.311078
O10   O     O_3   0.000352 0.535774 0.885980 -0.472672
O11   O     O_R   0.500010 0.662800 0.394190 -0.488647
O12   O     O_R   0.500010 0.337200 0.394190 -0.486202
O13   O     O_R   0.499990 0.662800 0.605810 -0.486851
O14   O     O_R   0.379070 0.500000 0.605790 -0.470983
O15   O     O_R   0.620930 0.500000 0.394210 -0.470748
O16   O     O_R   0.379080 0.500000 0.394170 -0.488466
O17   O     O_R   0.620920 0.500000 0.605830 -0.511606
O18   O     O_3   0.048342 0.275483 0.418586 -0.533059
S1    S     S_3+6 0.921860 0.448090 0.231065 0.016734
S2    S     S_3+6 0.076374 0.508434 0.780568 0.055289

loop_
_geom_bond_atom_site_label_1
_geom_bond_atom_site_label_2
_ccdc_geom_bond_type
C26   O4    S    
C19   C20   S    
C2    C12   T    
C16   H12   S    
C6    C9    S    
Cu1   O13   S    
C27   H18   S    
C28   H21   S    
H24   O10   S    
C26   C27   S    
C24   H9    S    
C23   C29   S    
C5    C11   S    
C9    S2    S    
C11   C14   S    
C18   H27   S    
Cu2   O15   S    
C20   H2    S    
C19   H30   S    
C23   N1    T    
C33   O17   A    
C25   H14   S    
O5    S1    D    
C17   H25   S    
Cu1   O14   S    
C7    C14   T    
C22   H8    S    
Cu1   Cu2   S    
O9    S2    D    
C16   C17   S    
H22   O7    S    
O6    S1    D    
C25   H11   S    
C3    C13   S    
C16   H1    S    
C30   O12   A    
C2    C34   S    
C16   O18   S    
C28   H19   S    
C1    C34   T    
C28   H20   S    
C32   O16   A    
C10   S1    S    
Cu2   N1    S    
C24   C25   S    
C4    C6    S    
Cu2   O12   S    
C20   H3    S    
C18   H26   S    
Cu2   O11   S    
C3    O3    S    
C3    C9    S    
C26   H16   S    
C29   N2    T    
C9    C11   S    
C22   H7    S    
C17   C18   S    
C4    C11   S    
C33   O15   A    
C17   H23   S    
C21   H5    S    
C5    O18   S    
O7    S1    S    
C8    C15   T    
C13   C15   S    
C12   C31   S    
C22   C24   S    
C4    C10   S    
C22   O3    S    
C4    O4    S    
C30   O1    A    
O10   S2    S    
C6    O2    S    
O8    S2    D    
C7    C32   S    
C3    C5    S    
C10   C13   S    
C27   H17   S    
C31   O11   A    
C32   O14   A    
C31   O13   A    
C24   H10   S    
C5    C10   S    
C26   H15   S    
C6    C13   S    
Cu1   O17   S    
C18   H28   S    
C21   H4    S    
Cu1   N2    S    
Cu2   O16   S    
C1    C30   S    
C19   H29   S    
C8    C33   S    
C25   H13   S    
C21   H6    S    
C20   C21   S    
Cu1   O1    S    
C27   C28   S    
C19   O2    S    
