data_mof_unit_28282.cif
_audit_creation_date              2013-03-05T15:53:29-0500
_audit_creation_method            fapswitch 2.2
_symmetry_space_group_name_H-M    P1
_symmetry_Int_Tables_number       1
_space_group_crystal_system       triclinic
_cell_length_a                    24.464619
_cell_length_b                    17.202457
_cell_length_c                    15.632902
_cell_angle_alpha                 89.998505
_cell_angle_beta                  128.857366
_cell_angle_gamma                 89.999095
_cell_volume                      5123.23653503

loop_
_atom_site_label
_atom_site_type_symbol
_atom_site_description
_atom_site_fract_x
_atom_site_fract_y
_atom_site_fract_z
_atom_type_partial_charge
C1    C     C_R   0.839719 0.873357 0.217616 -0.218914
C2    C     C_R   0.160304 0.873389 0.782434 -0.219110
C3    C     C_R   0.339702 0.373385 0.217579 -0.219031
C4    C     C_R   0.660307 0.373393 0.782439 -0.219140
H1    H     H_    0.787133 0.867514 0.190607 0.162036
H2    H     H_    0.212885 0.867524 0.809426 0.162162
H3    H     H_    0.287119 0.367532 0.190579 0.162120
H4    H     H_    0.712888 0.367531 0.809432 0.162155
N1    N     N_R   0.888400 0.921830 0.294620 -0.079947
N2    N     N_R   0.111600 0.921830 0.705380 -0.079944
N3    N     N_R   0.388400 0.421830 0.294620 -0.079942
N4    N     N_R   0.611600 0.421830 0.705380 -0.079942
C5    C     C_R   0.090100 0.857703 0.408423 -0.146883
C6    C     C_R   0.909918 0.857693 0.591588 -0.146828
C7    C     C_R   0.590091 0.357692 0.408424 -0.146795
C8    C     C_R   0.409920 0.357689 0.591586 -0.146821
H5    H     H_    0.060952 0.841123 0.324942 0.205906
H6    H     H_    0.939088 0.841098 0.675072 0.205898
H7    H     H_    0.560928 0.341100 0.324944 0.205812
H8    H     H_    0.439090 0.341092 0.675070 0.205867
N5    N     N_R   0.079940 0.922160 0.443410 -0.046900
N6    N     N_R   0.920060 0.922160 0.556590 -0.046899
N7    N     N_R   0.579940 0.422160 0.443410 -0.046888
N8    N     N_R   0.420060 0.422160 0.556590 -0.046898
C9    C     C_R   0.166769 0.859491 0.590795 -0.072539
C10   C     C_R   0.833235 0.859492 0.409214 -0.072525
C11   C     C_R   0.666767 0.359490 0.590797 -0.072551
C12   C     C_R   0.333239 0.359487 0.409212 -0.072531
H9    H     H_    0.211052 0.846417 0.674230 0.097706
H10   H     H_    0.788944 0.846425 0.325783 0.097681
H11   H     H_    0.711052 0.346420 0.674233 0.097695
H12   H     H_    0.288955 0.346416 0.325779 0.097692
N9    N     N_R   0.125650 0.922400 0.556620 -0.043800
N10   N     N_R   0.874350 0.922400 0.443380 -0.043806
N11   N     N_R   0.625650 0.422400 0.556620 -0.043803
N12   N     N_R   0.374350 0.422400 0.443380 -0.043799
C13   C     C_R   0.071021 0.873996 0.786365 0.764936
C14   C     C_R   0.929016 0.873931 0.213721 0.764645
C15   C     C_R   0.571024 0.373999 0.786370 0.764957
C16   C     C_R   0.428993 0.373975 0.213667 0.764855
N13   N     N_R   0.054230 0.922730 0.705400 -0.123983
N14   N     N_R   0.945770 0.922730 0.294600 -0.123925
N15   N     N_R   0.554230 0.422730 0.705400 -0.123982
N16   N     N_R   0.445770 0.422730 0.294600 -0.123964
C17   C     C_R   0.866339 0.837538 0.172137 -0.093011
C18   C     C_R   0.133724 0.837637 0.828009 -0.093351
C19   C     C_R   0.366298 0.337608 0.172041 -0.093217
C20   C     C_R   0.633729 0.337643 0.828018 -0.093356
C21   C     C_R   0.143045 0.816002 0.498803 0.010712
C22   C     C_R   0.856970 0.815997 0.501211 0.010696
C23   C     C_R   0.643039 0.315992 0.498809 0.010727
C24   C     C_R   0.356974 0.315990 0.501208 0.010702
C25   C     C_R   0.811411 0.100590 0.409428 -0.080918
C26   C     C_R   0.188584 0.100598 0.590577 -0.080912
C27   C     C_R   0.311410 0.600585 0.409425 -0.080918
C28   C     C_R   0.688586 0.600596 0.590579 -0.080944
H13   H     H_    0.763364 0.089279 0.328642 0.182294
H14   H     H_    0.236630 0.089295 0.671369 0.182300
H15   H     H_    0.263364 0.589275 0.328637 0.182308
H16   H     H_    0.736633 0.589292 0.671372 0.182278
N17   N     N_R   0.873790 0.077030 0.443380 -0.056912
N18   N     N_R   0.126210 0.077030 0.556620 -0.056912
N19   N     N_R   0.373790 0.577030 0.443380 -0.056908
N20   N     N_R   0.626210 0.577030 0.556620 -0.056909
C29   C     C_R   0.926544 0.115990 0.205400 0.276892
C30   C     C_R   0.073451 0.115976 0.794601 0.276836
C31   C     C_R   0.426540 0.615980 0.205390 0.276868
C32   C     C_R   0.573436 0.615984 0.794582 0.276844
N21   N     N_R   0.945200 0.076700 0.294600 -0.120122
N22   N     N_R   0.054800 0.076700 0.705400 -0.120142
N23   N     N_R   0.445200 0.576700 0.294600 -0.120132
N24   N     N_R   0.554800 0.576700 0.705400 -0.120146
C33   C     C_R   0.162839 0.118789 0.791053 0.315601
C34   C     C_R   0.837161 0.118803 0.208962 0.315565
C35   C     C_R   0.662832 0.618798 0.791051 0.315628
C36   C     C_R   0.337157 0.618793 0.208950 0.315580
N25   N     N_R   0.111030 0.077600 0.705380 -0.117841
N26   N     N_R   0.888970 0.077600 0.294620 -0.117828
N27   N     N_R   0.611030 0.577600 0.705380 -0.117846
N28   N     N_R   0.388970 0.577600 0.294620 -0.117830
C37   C     C_R   0.885111 0.104820 0.591068 -0.082205
C38   C     C_R   0.114890 0.104825 0.408936 -0.082238
C39   C     C_R   0.385106 0.604814 0.591065 -0.082169
C40   C     C_R   0.614892 0.604827 0.408937 -0.082209
H17   H     H_    0.904601 0.103000 0.674726 0.166322
H18   H     H_    0.095404 0.103014 0.325279 0.166308
H19   H     H_    0.404592 0.602991 0.674722 0.166340
H20   H     H_    0.595408 0.603018 0.325281 0.166313
N29   N     N_R   0.919490 0.077280 0.556590 -0.054617
N30   N     N_R   0.080510 0.077280 0.443410 -0.054611
N31   N     N_R   0.419490 0.577280 0.556590 -0.054623
N32   N     N_R   0.580510 0.577280 0.443410 -0.054603
Ni1   Ni    Ni4+2 0.882160 0.999430 0.370180 0.255132
Ni2   Ni    Ni4+2 0.117840 0.999430 0.629820 0.255103
Ni3   Ni    Ni4+2 0.382160 0.499430 0.370180 0.255131
Ni4   Ni    Ni4+2 0.617840 0.499430 0.629820 0.255089
Ni5   Ni    Ni4+2 0.012460 0.999430 0.370180 0.297596
Ni6   Ni    Ni4+2 0.987540 0.999430 0.629820 0.297564
Ni7   Ni    Ni4+2 0.512460 0.499430 0.370180 0.297586
Ni8   Ni    Ni4+2 0.487540 0.499430 0.629820 0.297562
C41   C     C_R   0.816614 0.118957 0.499715 0.001181
C42   C     C_R   0.183382 0.118969 0.500293 0.001190
C43   C     C_R   0.316611 0.618949 0.499709 0.001151
C44   C     C_R   0.683385 0.618969 0.500296 0.001192
C45   C     C_R   0.858678 0.144108 0.149862 -0.169007
C46   C     C_R   0.141319 0.144078 0.850156 -0.168918
C47   C     C_R   0.358670 0.644088 0.149842 -0.168991
C48   C     C_R   0.641301 0.644086 0.850140 -0.168900
C49   C     C_R   0.850671 0.710587 0.603342 0.011890
C50   C     C_R   0.149328 0.710569 0.396681 0.011844
C51   C     C_R   0.350677 0.210567 0.603332 0.011914
C52   C     C_R   0.649309 0.210518 0.396711 0.011862
C53   C     C_R   0.830726 0.740942 0.504214 -0.000354
C54   C     C_R   0.169288 0.740941 0.495809 -0.000351
C55   C     C_R   0.330727 0.240934 0.504206 -0.000350
C56   C     C_R   0.669285 0.240926 0.495833 -0.000331
C57   C     C_R   0.777356 0.702479 0.406190 -0.130628
C58   C     C_R   0.222662 0.702478 0.593837 -0.130680
C59   C     C_R   0.277349 0.202482 0.406178 -0.130660
C60   C     C_R   0.722685 0.202493 0.593874 -0.130683
H21   H     H_    0.764206 0.718789 0.328399 0.125892
H22   H     H_    0.235822 0.718797 0.671631 0.125913
H23   H     H_    0.264194 0.218797 0.328385 0.125903
H24   H     H_    0.735860 0.218831 0.671672 0.125912
C61   C     C_R   0.232714 0.151376 0.405576 -0.157460
C62   C     C_R   0.767314 0.151377 0.594473 -0.157406
C63   C     C_R   0.732723 0.651372 0.405588 -0.157488
C64   C     C_R   0.267286 0.651356 0.594435 -0.157420
H25   H     H_    0.186488 0.130558 0.327257 0.153859
H26   H     H_    0.813555 0.130580 0.672796 0.153881
H27   H     H_    0.686501 0.630547 0.327270 0.153851
H28   H     H_    0.313512 0.630533 0.672753 0.153881
C65   C     C_R   0.242325 0.138997 0.503198 0.078070
C66   C     C_R   0.757677 0.138969 0.496834 0.078068
C67   C     C_R   0.742328 0.639000 0.503207 0.078082
C68   C     C_R   0.257669 0.638972 0.496808 0.078069
C69   C     C_R   0.306775 0.160033 0.602684 0.026535
C70   C     C_R   0.693205 0.159972 0.397355 0.026529
C71   C     C_R   0.806770 0.660050 0.602695 0.026539
C72   C     C_R   0.193219 0.660016 0.397324 0.026526
C73   C     C_3   0.823883 0.694394 0.705032 -0.543138
C74   C     C_3   0.176081 0.694332 0.294953 -0.543094
C75   C     C_3   0.323910 0.194359 0.705047 -0.543122
C76   C     C_3   0.676004 0.194236 0.294915 -0.543153
C77   C     C_3   0.871847 0.749612 0.705943 0.684544
C78   C     C_3   0.128129 0.749568 0.294048 0.684518
C79   C     C_3   0.371878 0.249573 0.705959 0.684513
C80   C     C_3   0.628043 0.249464 0.294007 0.684551
H29   H     H_    0.778722 0.724834 0.690848 0.190131
H30   H     H_    0.221231 0.724763 0.309093 0.190153
H31   H     H_    0.278760 0.224807 0.690891 0.190147
H32   H     H_    0.721121 0.224685 0.308972 0.190203
H33   H     H_    0.852149 0.652751 0.774902 0.270876
H34   H     H_    0.147805 0.652676 0.225104 0.270867
H35   H     H_    0.352176 0.152702 0.774901 0.270883
H36   H     H_    0.647729 0.152540 0.225113 0.270820
H37   H     H_    0.855272 0.811377 0.695476 0.028259
H38   H     H_    0.144703 0.811330 0.304476 0.028259
H39   H     H_    0.355315 0.311342 0.695525 0.028259
H40   H     H_    0.644581 0.311234 0.304345 0.028302
H41   H     H_    0.722289 0.116336 0.980420 0.198735
H42   H     H_    0.277745 0.116399 0.019572 0.198742
H43   H     H_    0.222267 0.616343 0.980420 0.198745
H44   H     H_    0.777728 0.616428 0.019563 0.198683
H45   H     H_    0.209336 0.731095 0.823816 0.145886
H46   H     H_    0.790167 0.731397 0.175724 0.145648
H47   H     H_    0.709328 0.231092 0.823809 0.145900
H48   H     H_    0.290443 0.231240 0.175967 0.145784
C81   C     C_2   0.163364 0.767907 0.895554 -0.018442
C82   C     C_2   0.836792 0.767713 0.104781 -0.018560
C83   C     C_2   0.663376 0.267918 0.895572 -0.018427
C84   C     C_2   0.336697 0.267840 0.104575 -0.018415
C85   C     C_2   0.201409 0.719864 0.883758 -0.207924
C86   C     C_2   0.798458 0.719893 0.116242 -0.207728
C87   C     C_2   0.701413 0.219870 0.883767 -0.207925
C88   C     C_2   0.298529 0.219893 0.116226 -0.207848
H49   H     H_    0.837054 0.226230 0.024757 0.171475
H50   H     H_    0.162901 0.226124 0.975291 0.171519
H51   H     H_    0.337050 0.726179 0.024710 0.171506
H52   H     H_    0.662851 0.726098 0.975281 0.171506
C89   C     C_2   0.814640 0.179537 0.040847 -0.050462
C90   C     C_2   0.185344 0.179484 0.959179 -0.050523
C91   C     C_2   0.314631 0.679506 0.040818 -0.050488
C92   C     C_2   0.685309 0.679476 0.959168 -0.050454
C93   C     C_2   0.746384 0.162979 0.968013 -0.064497
C94   C     C_2   0.253611 0.162983 0.031996 -0.064549
C95   C     C_2   0.246370 0.662967 0.967999 -0.064557
C96   C     C_2   0.753575 0.662982 0.031997 -0.064530
H53   H     H_    0.155403 0.756553 0.955369 0.224237
H54   H     H_    0.845088 0.756082 0.045392 0.224224
H55   H     H_    0.655425 0.256572 0.955401 0.224241
H56   H     H_    0.344805 0.256366 0.044948 0.224225
F1    F     F_    0.941764 0.736213 0.793869 -0.604411
F2    F     F_    0.058207 0.736169 0.206152 -0.604488
F3    F     F_    0.441796 0.236153 0.793863 -0.604440
F4    F     F_    0.558117 0.236006 0.206176 -0.604535
F5    F     F_    0.040913 0.873534 0.835351 -0.630931
F6    F     F_    0.959099 0.873466 0.164697 -0.630946
F7    F     F_    0.540914 0.373537 0.835354 -0.630968
F8    F     F_    0.459095 0.373510 0.164672 -0.630998
N33   N     N_R   0.959523 0.104913 0.156461 0.235913
O1    O     O_R   0.953851 0.157316 0.091329 -0.375221
O2    O     O_R   0.988803 0.038595 0.167256 -0.340578
N34   N     N_R   0.040458 0.104902 0.843519 0.235890
O3    O     O_R   0.046075 0.157331 0.908573 -0.375279
O4    O     O_R   0.011204 0.038575 0.832762 -0.340536
N35   N     N_R   0.459525 0.604904 0.156459 0.235912
O5    O     O_R   0.453857 0.657308 0.091332 -0.375225
O6    O     O_R   0.488816 0.538590 0.167272 -0.340611
N36   N     N_R   0.540435 0.604914 0.843486 0.235870
O7    O     O_R   0.545989 0.657379 0.908447 -0.375329
O8    O     O_R   0.511211 0.538574 0.832777 -0.340534
N37   N     N_R   0.233145 0.117336 0.828868 0.211088
O9    O     O_R   0.264307 0.051081 0.846462 -0.433796
O10   O     O_R   0.267805 0.181835 0.853112 -0.427701
N38   N     N_R   0.766853 0.117331 0.171135 0.211122
O11   O     O_R   0.735710 0.051066 0.153562 -0.433772
O12   O     O_R   0.732178 0.181819 0.146892 -0.427763
N39   N     N_R   0.733139 0.617366 0.828868 0.211065
O13   O     O_R   0.764315 0.551117 0.846477 -0.433839
O14   O     O_R   0.767801 0.681870 0.853172 -0.427586
N40   N     N_R   0.266850 0.617317 0.171128 0.211110
O15   O     O_R   0.235712 0.551052 0.153567 -0.433801
O16   O     O_R   0.232173 0.681805 0.146888 -0.427773

loop_
_geom_bond_atom_site_label_1
_geom_bond_atom_site_label_2
_geom_bond_distance
_ccdc_geom_bond_type
C16   C19   1.383851 A    
C39   H19   1.075321 S    
C29   N21   1.345732 A    
C65   C69   1.399627 A    
N6    Ni6   1.852443 S    
C44   C67   1.455315 S    
N19   Ni3   1.851353 S    
C71   C73   1.497800 S    
N33   O1    1.300487 A    
C6    H6    1.060837 S    
N7    Ni7   1.852363 S    
N12   Ni3   1.837437 S    
N10   Ni1   1.837437 S    
C81   H53   1.085814 S    
C68   C72   1.399612 A    
C32   N36   1.430764 S    
N9    Ni2   1.837474 S    
C19   C84   1.455657 S    
C73   H29   1.112044 S    
C37   C41   1.379808 A    
N11   Ni4   1.837475 S    
C2    C18   1.374788 A    
C7    H7    1.060818 S    
N1    N14   1.403819 A    
N8    N12   1.378190 A    
C39   C43   1.379806 A    
C1    H1    1.077893 S    
H47   C87   1.086755 S    
C8    H8    1.060846 S    
N38   O12   1.300188 A    
C14   N14   1.349490 A    
N24   N27   1.375927 A    
C51   C79   1.499728 S    
C10   C22   1.384722 A    
C90   C94   1.334224 D    
N16   Ni7   1.838519 S    
C60   C62   1.397324 A    
N5    N9    1.378192 A    
N2    Ni2   1.851153 S    
N26   Ni1   1.864982 S    
H45   C85   1.086763 S    
C27   C43   1.372136 A    
N25   Ni2   1.865026 S    
N5    Ni5   1.852363 S    
H43   C95   1.082768 S    
C80   H40   1.112164 S    
C4    H4    1.077900 S    
C74   C78   1.502820 S    
C46   C90   1.460330 S    
C14   C17   1.383846 A    
C57   H21   1.081752 S    
C86   C96   1.443666 S    
C25   N17   1.326092 A    
C10   N10   1.339437 A    
N17   N29   1.378189 A    
C27   N19   1.326061 A    
H41   C93   1.082772 S    
C36   N28   1.331286 A    
C28   N20   1.326045 A    
C79   F3    1.384957 S    
C13   F5    1.355308 S    
N31   Ni8   1.866568 S    
C4    N4    1.328201 A    
C50   C54   1.401226 A    
N30   Ni5   1.866651 S    
C77   F1    1.384943 S    
C76   C80   1.502864 S    
C30   N34   1.430775 S    
C7    N7    1.327090 A    
C21   C54   1.455797 S    
C69   C75   1.497814 S    
C79   H39   1.112160 S    
C35   C48   1.389444 A    
C8    N8    1.327082 A    
C17   C82   1.455718 S    
N22   N25   1.375927 A    
C92   C96   1.334196 D    
N33   O2    1.300534 A    
C33   N37   1.425730 S    
N21   N26   1.375931 A    
C2    H2    1.077895 S    
C41   C66   1.455352 S    
C58   C64   1.397316 A    
C87   C93   1.443782 S    
C30   C46   1.391214 A    
C64   H28   1.081145 S    
C29   C45   1.391264 A    
N23   N28   1.375931 A    
C80   F4    1.384965 S    
C59   H23   1.081751 S    
H51   C91   1.087296 S    
N37   O10   1.300190 A    
C9    H9    1.073520 S    
N6    N10   1.378190 A    
H46   C86   1.087046 S    
C48   C92   1.460254 S    
C84   C88   1.341202 D    
N35   O5    1.300495 A    
C52   C70   1.376881 A    
C12   H12   1.073522 S    
C12   N12   1.339444 A    
C1    N1    1.328148 A    
N15   Ni8   1.838440 S    
C28   C44   1.372125 A    
N14   Ni5   1.838517 S    
C25   C41   1.372159 A    
N39   O13   1.301075 A    
H42   C94   1.082753 S    
C89   C93   1.334275 D    
C15   N15   1.349504 A    
C26   N18   1.326016 A    
C3    H3    1.077904 S    
C36   N40   1.425723 S    
N37   O9    1.301041 A    
N23   Ni7   1.852255 S    
C84   H56   1.085926 S    
C56   C60   1.407262 A    
C47   C91   1.460367 S    
C40   H20   1.075309 S    
C76   H36   1.112049 S    
C63   C67   1.406908 A    
C67   C71   1.399613 A    
C43   C68   1.455325 S    
C58   H22   1.081753 S    
C91   C95   1.334271 D    
N39   O14   1.300202 A    
C20   C83   1.455603 S    
C77   H37   1.112146 S    
C40   N32   1.338387 A    
C75   H35   1.112042 S    
C7    C23   1.375620 A    
C35   N39   1.425724 S    
C32   N24   1.345636 A    
C3    N3    1.328180 A    
C61   C65   1.406918 A    
C14   F6    1.355290 S    
C38   C42   1.379810 A    
C5    N5    1.327036 A    
N3    N16   1.403819 A    
C54   C58   1.407244 A    
N38   O11   1.301067 A    
N28   Ni3   1.864982 S    
N40   O16   1.300195 A    
C57   C63   1.397319 A    
N20   Ni4   1.851312 S    
H50   C90   1.087279 S    
C53   C57   1.407245 A    
C59   C61   1.397326 A    
C31   C47   1.391263 A    
C64   C68   1.406920 A    
N34   O4    1.300509 A    
C75   C79   1.502836 S    
C36   C47   1.389392 A    
N36   O8    1.300521 A    
N18   Ni2   1.851313 S    
C11   H11   1.073519 S    
C6    N6    1.327053 A    
C26   H14   1.073228 S    
C5    C21   1.375581 A    
C78   F2    1.384943 S    
N20   N32   1.378191 A    
C39   N31   1.338376 A    
C2    N2    1.328198 A    
N1    Ni1   1.851191 S    
C52   C56   1.401228 A    
H52   C92   1.087299 S    
C31   N35   1.430779 S    
C27   H15   1.073234 S    
C51   C69   1.376874 A    
C4    C20   1.374779 A    
N24   Ni8   1.852338 S    
C24   C55   1.455793 S    
N3    Ni3   1.851191 S    
H48   C88   1.086854 S    
C15   F7    1.355310 S    
C85   C95   1.443775 S    
C81   C85   1.341136 D    
C75   H31   1.112054 S    
C29   N33   1.430772 S    
C34   N38   1.425723 S    
N8    Ni8   1.852444 S    
C26   C42   1.372127 A    
C49   C77   1.499717 S    
C8    C24   1.375609 A    
C72   C74   1.497806 S    
H44   C96   1.082758 S    
C25   H13   1.073231 S    
C66   C70   1.399632 A    
C51   C55   1.401215 A    
C30   N22   1.345703 A    
C88   C94   1.443726 S    
C78   H38   1.112152 S    
C74   H34   1.112038 S    
C49   C53   1.401211 A    
N4    N15   1.403817 A    
C16   F8    1.355310 S    
C82   H54   1.086120 S    
C55   C59   1.407248 A    
C23   C56   1.455825 S    
C38   N30   1.338357 A    
C18   C81   1.455606 S    
C5    H5    1.060798 S    
N29   Ni6   1.866569 S    
C49   C71   1.376869 A    
C22   C53   1.455776 S    
C11   N11   1.339435 A    
C74   H30   1.112046 S    
C63   H27   1.081146 S    
C50   C72   1.376872 A    
C42   C65   1.455332 S    
C37   N29   1.338356 A    
N27   Ni4   1.865025 S    
C1    C17   1.374875 A    
C38   H18   1.075311 S    
C34   C45   1.389385 A    
C52   C80   1.499723 S    
C12   C24   1.384734 A    
C40   C44   1.379825 A    
C73   H33   1.112031 S    
C33   C46   1.389408 A    
C6    C22   1.375591 A    
C83   C87   1.341138 D    
H49   C89   1.087297 S    
N18   N30   1.378191 A    
C3    C19   1.374822 A    
C73   C77   1.502831 S    
C11   C23   1.384730 A    
C31   N23   1.345740 A    
C13   N13   1.349494 A    
N40   O15   1.301053 A    
C83   H55   1.085806 S    
N7    N11   1.378192 A    
C9    C21   1.384717 A    
C82   C86   1.341330 D    
C60   H24   1.081746 S    
C61   H25   1.081154 S    
C16   N16   1.349493 A    
C28   H16   1.073243 S    
N34   O3    1.300495 A    
C62   C66   1.406932 A    
C33   N25   1.331302 A    
C76   H32   1.112058 S    
N36   O7    1.300481 A    
C34   N26   1.331278 A    
N19   N31   1.378189 A    
N35   O6    1.300538 A    
C62   H26   1.081156 S    
N13   Ni6   1.838439 S    
N4    Ni4   1.851153 S    
C70   C76   1.497816 S    
C32   C48   1.391140 A    
C45   C89   1.460355 S    
C13   C18   1.383845 A    
C50   C78   1.499722 S    
N17   Ni1   1.851353 S    
C35   N27   1.331315 A    
C37   H17   1.075302 S    
N22   Ni6   1.852340 S    
N32   Ni7   1.866651 S    
C9    N9    1.339432 A    
C15   C20   1.383857 A    
N2    N13   1.403817 A    
C10   H10   1.073525 S    
N21   Ni5   1.852255 S    
