data_mof_unit_13619.cif
_audit_creation_date              2012-12-10T17:09:32-0500
_audit_creation_method            fapswitch 2.2
_symmetry_space_group_name_H-M    P1
_symmetry_Int_Tables_number       1
_space_group_crystal_system       triclinic
_cell_length_a                    10.506005
_cell_length_b                    10.699816
_cell_length_c                    10.11244
_cell_angle_alpha                 88.686945
_cell_angle_beta                  89.222062
_cell_angle_gamma                 90.054841
_cell_volume                      1136.35868029

loop_
_atom_site_label
_atom_site_type_symbol
_atom_type_description
_atom_site_fract_x
_atom_site_fract_y
_atom_site_fract_z
_atom_type_partial_charge
C1    C     C_R   0.491809 0.263180 0.501493 0.921111
C2    C     C_2   0.478635 0.596528 0.070363 0.158960
C3    C     C_R   0.257831 0.501531 0.501024 0.863792
C4    C     C_R   0.504508 0.736940 0.498419 0.896877
C5    C     C_R   0.742201 0.499267 0.499044 0.874405
C6    C     C_3   0.036067 0.517221 0.624404 0.281252
C7    C     C_3   0.956088 0.405948 0.578804 -0.224340
C8    C     C_3   0.877090 0.499446 0.497293 -0.077677
C9    C     C_3   0.954986 0.610878 0.544303 -0.229220
C10   C     C_3   0.044093 0.596401 0.421890 -0.219915
C11   C     C_3   0.718098 0.698469 0.872697 -0.786871
C12   C     C_3   0.964902 0.484850 0.377905 0.309395
C13   C     C_3   0.419141 0.399287 0.899174 -0.699417
C14   C     C_3   0.405031 0.706322 0.119818 -0.864399
C15   C     C_3   0.075832 0.537260 0.766442 -0.904930
C16   C     C_3   0.021835 0.466047 0.144867 -0.804624
C17   C     C_3   0.636710 0.918389 0.568716 -0.891941
C18   C     C_3   0.045153 0.390616 0.456553 -0.278610
C19   C     C_3   0.122968 0.502372 0.503352 -0.016343
C20   C     C_2   0.455020 0.934211 0.405487 -0.202048
C21   C     C_2   0.525222 0.868196 0.492277 0.076199
C22   C     C_2   0.462162 0.068221 0.395339 -0.163050
C23   C     C_2   0.466587 0.132507 0.506079 -0.341935
C24   C     C_2   0.520068 0.596607 0.927009 0.317654
H1    H     H_    0.916458 0.329475 0.643078 0.149090
H2    H     H_    0.758772 0.781858 0.820204 0.230975
H3    H     H_    0.752242 0.613750 0.821960 0.266351
H4    H     H_    0.752518 0.696323 0.976208 0.229559
H5    H     H_    0.372170 0.356716 0.814035 0.254220
H6    H     H_    0.476157 0.324689 0.947932 0.180994
H7    H     H_    0.340039 0.431407 0.964129 0.191678
H8    H     H_    0.342246 0.743421 0.040678 0.198341
H9    H     H_    0.342534 0.678613 0.204725 0.271867
H10   H     H_    0.471945 0.781094 0.148035 0.238605
H11   H     H_    0.989811 0.551858 0.828879 0.230589
H12   H     H_    0.453080 0.087324 0.602612 0.169657
H13   H     H_    0.128041 0.454052 0.804312 0.244886
H14   H     H_    0.137803 0.621060 0.771052 0.249006
H15   H     H_    0.862078 0.389467 0.238302 0.228418
H16   H     H_    0.979633 0.450548 0.046628 0.235901
H17   H     H_    0.091377 0.390181 0.165851 0.240361
H18   H     H_    0.071676 0.557671 0.141428 0.252880
H19   H     H_    0.712152 0.846056 0.577224 0.222417
H20   H     H_    0.681410 0.000573 0.517684 0.251636
H21   H     H_    0.605563 0.942613 0.670237 0.239475
H22   H     H_    0.561347 0.434789 0.109647 0.152701
H23   H     H_    0.914268 0.699494 0.581072 0.140094
H24   H     H_    0.083769 0.673031 0.357870 0.135618
H25   H     H_    0.085589 0.301982 0.419507 0.144908
H26   H     H_    0.386567 0.888721 0.342818 0.133656
H27   H     H_    0.464344 0.112681 0.297661 0.174163
H28   H     H_    0.547584 0.787818 0.908902 0.211488
N1    N     N_2   0.501360 0.501330 0.852150 -0.070569
N2    N     N_2   0.501400 0.501360 0.147810 -0.196950
N3    N     N_2   0.580662 0.704947 0.871553 -0.268129
N4    N     N_2   0.921933 0.465455 0.244551 -0.289805
O1    O     O_R   0.499980 0.319060 0.613040 -0.624897
O2    O     O_R   0.500020 0.319100 0.386900 -0.617806
O3    O     O_R   0.313930 0.499950 0.613050 -0.619808
O4    O     O_R   0.313970 0.499990 0.386910 -0.622835
O5    O     O_R   0.499980 0.680900 0.613100 -0.580504
O6    O     O_R   0.500020 0.680940 0.386960 -0.624951
O7    O     O_R   0.686030 0.500010 0.613090 -0.608741
O8    O     O_R   0.686070 0.500050 0.386950 -0.614224
Zn1   Zn    Zn3+2 0.499970 0.499970 0.650990 0.947697
Zn2   Zn    Zn3+2 0.500030 0.500030 0.349010 0.927664

loop_
_geom_bond_atom_site_label_1
_geom_bond_atom_site_label_2
_ccdc_geom_bond_type
C14   H10   S    
C5    C8    S    
C16   N4    S    
C15   H14   S    
C3    C19   S    
C6    C7    S    
C4    C21   S    
C1    O1    A    
N1    Zn1   S    
C9    C10   S    
H15   N4    S    
C7    H1    S    
H28   N3    S    
C11   H3    S    
C10   C19   S    
C8    C12   S    
C7    C18   S    
O1    Zn1   S    
O7    Zn1   S    
H22   N2    S    
C6    C9    S    
C17   H19   S    
C24   N1    D    
C17   H20   S    
O4    Zn2   S    
C7    C8    S    
C1    O2    A    
O3    Zn1   S    
C24   N3    S    
C2    C24   S    
C6    C19   S    
C5    O8    A    
C12   N4    S    
C10   C12   S    
C11   H4    S    
C14   H9    S    
C3    O4    A    
N2    Zn2   S    
C16   H17   S    
C15   H11   S    
C16   H16   S    
C1    C23   S    
C13   N1    S    
O5    Zn1   S    
C10   H24   S    
C2    C14   S    
C17   C21   S    
C9    H23   S    
O6    Zn2   S    
C4    O6    A    
C13   H6    S    
C11   N3    S    
C20   C21   D    
C5    O7    A    
C8    C9    S    
C3    O3    A    
C23   H12   S    
C2    N2    D    
C12   C18   S    
C13   H7    S    
C22   C23   D    
C18   C19   S    
C20   H26   S    
C11   H2    S    
C6    C15   S    
C16   H18   S    
C14   H8    S    
C4    O5    A    
O2    Zn2   S    
C13   H5    S    
C15   H13   S    
C17   H21   S    
C18   H25   S    
C20   C22   S    
C22   H27   S    
O8    Zn2   S    
