data_mof_unit_62244.cif
_audit_creation_date              2012-10-26T19:37:45-0400
_audit_creation_method            fapswitch 2.2
_symmetry_space_group_name_H-M    P1
_symmetry_Int_Tables_number       1
_space_group_crystal_system       triclinic
_cell_length_a                    11.715004
_cell_length_b                    15.865504
_cell_length_c                    17.136523
_cell_angle_alpha                 97.166358
_cell_angle_beta                  90.872098
_cell_angle_gamma                 92.770979
_cell_volume                      3155.76805955

loop_
_atom_site_label
_atom_site_type_symbol
_atom_type_description
_atom_site_fract_x
_atom_site_fract_y
_atom_site_fract_z
_atom_type_partial_charge
C1    C     C_R   0.500729 0.488895 0.348455 0.568054
C2    C     C_R   0.475658 0.109435 0.490064 0.185784
C3    C     C_R   0.590094 0.851972 0.563592 0.235693
C4    C     C_R   0.409905 0.148028 0.436409 0.235672
C5    C     C_R   0.585788 0.762644 0.561328 0.365134
C6    C     C_R   0.414207 0.237357 0.438676 0.365094
C7    C     C_R   0.283851 0.499951 0.499961 0.552046
C8    C     C_R   0.716149 0.500049 0.500040 0.552047
C9    C     C_1   0.162243 0.499872 0.499977 0.018420
C10   C     C_1   0.837757 0.500128 0.500024 0.018432
C11   C     C_1   0.059848 0.499935 0.499992 -0.000598
C12   C     C_R   0.499273 0.511104 0.651544 0.568035
C13   C     C_1   0.940151 0.500066 0.500009 -0.000595
C14   C     C_R   0.503649 0.481769 0.262036 -0.024779
C15   C     C_R   0.496363 0.518231 0.737961 -0.024757
C16   C     C_R   0.490927 0.555139 0.225527 -0.203598
C17   C     C_R   0.509261 0.444887 0.774476 -0.203583
C18   C     C_R   0.491591 0.551083 0.144264 -0.123695
C19   C     C_R   0.508610 0.448948 0.855740 -0.123691
C20   C     C_R   0.503888 0.472836 0.097071 0.198947
C21   C     C_R   0.496143 0.527175 0.902926 0.198942
C22   C     C_R   0.516371 0.399020 0.132980 0.267295
C23   C     C_R   0.519536 0.403217 0.215281 0.277110
C24   C     C_R   0.483492 0.600967 0.867009 0.267317
C25   C     C_3   0.649501 0.320211 0.262957 -0.053038
C26   C     C_3   0.350134 0.679563 0.736993 -0.053048
C27   C     C_3   0.604570 0.924342 0.686047 -0.006419
C28   C     C_3   0.395420 0.075666 0.313950 -0.006448
C29   C     C_R   0.480319 0.596759 0.784709 0.277120
C30   C     C_R   0.446396 0.748291 0.458588 0.000237
C31   C     C_R   0.553613 0.251708 0.541407 0.000237
C32   C     C_R   0.450797 0.836892 0.456497 0.178058
C33   C     C_R   0.549215 0.163107 0.543495 0.178056
C34   C     C_R   0.524350 0.890564 0.509932 0.185789
Cl1   Cl    Cl    0.527796 0.300151 0.074557 -0.497231
Cl2   Cl    Cl    0.471843 0.699814 0.925423 -0.497200
Cl3   Cl    Cl    0.631743 0.125069 0.617075 -0.536609
Cl4   Cl    Cl    0.368283 0.874930 0.382911 -0.536598
Cl5   Cl    Cl    0.677816 0.717896 0.625200 -0.454552
Cl6   Cl    Cl    0.322164 0.282104 0.374814 -0.454437
Cu1   Cu    Cu3+1 0.494550 0.415220 0.496180 1.040017
Cu2   Cu    Cu3+1 0.505450 0.584780 0.503820 1.040053
H1    H     H_    0.520818 0.383873 0.740197 0.173449
H2    H     H_    0.302891 0.687716 0.793045 0.160453
H3    H     H_    0.311294 0.624695 0.696909 0.102578
H4    H     H_    0.340276 0.737561 0.707939 0.152520
H5    H     H_    0.528942 0.961526 0.675281 0.151498
H6    H     H_    0.662824 0.965229 0.728048 0.200003
H7    H     H_    0.577666 0.867333 0.714341 0.159707
H8    H     H_    0.337166 0.034775 0.271952 0.200026
H9    H     H_    0.471057 0.038490 0.324710 0.151459
H10   H     H_    0.422306 0.132679 0.285656 0.159684
H11   H     H_    0.479504 0.616172 0.259810 0.173468
H12   H     H_    0.519019 0.390675 0.881320 0.199247
H13   H     H_    0.481329 0.609377 0.118690 0.199252
H14   H     H_    0.609411 0.292332 0.582497 0.179887
H15   H     H_    0.390601 0.707667 0.417495 0.179901
H16   H     H_    0.688496 0.375036 0.303017 0.102637
H17   H     H_    0.696702 0.311967 0.206892 0.160474
H18   H     H_    0.659208 0.262203 0.292022 0.152403
N1    N     N_2   0.503801 0.465638 0.013685 -0.180071
N2    N     N_2   0.496228 0.534376 0.986312 -0.180068
N3    N     N_R   0.513630 0.712130 0.509560 -0.286609
N4    N     N_R   0.486370 0.287870 0.490440 -0.286629
N5    N     N_2   0.542706 0.980869 0.509039 -0.115111
N6    N     N_2   0.457303 0.019130 0.490957 -0.115103
O1    O     O_R   0.494910 0.420530 0.382500 -0.416501
O2    O     O_3   0.467689 0.670507 0.750764 -0.490793
O3    O     O_3   0.663820 0.901685 0.616077 -0.485015
O4    O     O_3   0.336177 0.098314 0.383926 -0.484998
O5    O     O_R   0.505090 0.579470 0.617500 -0.416455
O6    O     O_R   0.504100 0.563720 0.388950 -0.528636
O7    O     O_R   0.495900 0.436280 0.611050 -0.528636
O8    O     O_R   0.332600 0.428410 0.496780 -0.442458
O9    O     O_R   0.667400 0.571590 0.503220 -0.442480
O10   O     O_R   0.341800 0.571600 0.503230 -0.520536
O11   O     O_R   0.658200 0.428400 0.496770 -0.520550
O12   O     O_3   0.531979 0.329442 0.249216 -0.490714

loop_
_geom_bond_atom_site_label_1
_geom_bond_atom_site_label_2
_ccdc_geom_bond_type
C27   H6    S    
C11   C13   S    
Cu1   Cu2   S    
C4    O4    S    
C26   H2    S    
Cu1   O1    S    
C22   Cl1   S    
Cu2   O9    S    
C24   Cl2   S    
C19   C21   A    
Cu1   O11   S    
C28   H9    S    
C30   H15   S    
C5    N3    A    
C15   C17   A    
C6    N4    A    
C20   N1    S    
C24   C29   A    
C26   H3    S    
C17   C19   A    
Cu1   O8    S    
C16   H11   S    
C28   H8    S    
C31   C33   A    
C25   H18   S    
C32   Cl4   S    
C31   H14   S    
C18   C20   A    
C27   O3    S    
C30   N3    A    
C34   N5    S    
C15   C29   A    
C7    O8    A    
C1    O6    A    
C25   O12   S    
C4    C6    A    
C3    C34   A    
C3    C5    A    
C8    O9    A    
C33   Cl3   S    
C32   C34   A    
C14   C23   A    
C2    C4    A    
C17   H1    S    
C29   O2    S    
C12   C15   S    
Cu2   O6    S    
C9    C11   T    
C21   N2    S    
C18   H13   S    
C19   H12   S    
C8    C10   S    
C12   O5    A    
C20   C22   A    
C5    Cl5   S    
C8    O11   A    
C14   C16   A    
C25   H16   S    
C2    C33   A    
C27   H5    S    
C7    C9    S    
C3    O3    S    
C31   N4    A    
C28   O4    S    
C2    N6    S    
C10   C13   T    
C7    O10   A    
Cu2   O10   S    
C26   O2    S    
C30   C32   A    
C28   H10   S    
Cu2   O5    S    
C1    O1    A    
C6    Cl6   S    
C23   O12   S    
N1    N2    D    
C26   H4    S    
Cu1   O7    S    
C16   C18   A    
N5    N6    D    
C21   C24   A    
C22   C23   A    
C1    C14   S    
C25   H17   S    
Cu1   N4    S    
C12   O7    A    
Cu2   N3    S    
C27   H7    S    
