data_mof_unit_29715.cif
_audit_creation_date              2013-03-05T16:10:34-0500
_audit_creation_method            fapswitch 2.2
_symmetry_space_group_name_H-M    P1
_symmetry_Int_Tables_number       1
_space_group_crystal_system       triclinic
_cell_length_a                    15.698368
_cell_length_b                    14.707806
_cell_length_c                    9.562725
_cell_angle_alpha                 90.494807
_cell_angle_beta                  89.997154
_cell_angle_gamma                 90.000335
_cell_volume                      2207.84138296

loop_
_atom_site_label
_atom_site_type_symbol
_atom_site_description
_atom_site_fract_x
_atom_site_fract_y
_atom_site_fract_z
_atom_type_partial_charge
O1    O     O_R   0.091250 0.408820 0.620260 -0.571025
O2    O     O_R   0.091250 0.408820 0.379740 -0.551563
O3    O     O_R   0.091250 0.591180 0.620260 -0.551580
O4    O     O_R   0.091250 0.591180 0.379740 -0.571112
O5    O     O_R   0.591250 0.908820 0.620260 -0.571133
O6    O     O_R   0.591250 0.908820 0.379740 -0.551544
O7    O     O_R   0.591250 0.091180 0.620260 -0.551543
O8    O     O_R   0.591250 0.091180 0.379740 -0.571292
C1    C     C_R   0.119914 0.380215 0.499824 0.770784
C2    C     C_R   0.119874 0.619834 0.500167 0.771172
C3    C     C_R   0.619876 0.880167 0.499829 0.771258
C4    C     C_R   0.619932 0.119765 0.500177 0.770361
O9    O     O_R   0.908940 0.408800 0.620260 -0.580780
O10   O     O_R   0.908940 0.408800 0.379740 -0.573610
O11   O     O_R   0.908940 0.591200 0.620260 -0.573363
O12   O     O_R   0.908940 0.591200 0.379740 -0.580445
O13   O     O_R   0.408940 0.908800 0.620260 -0.580383
O14   O     O_R   0.408940 0.908800 0.379740 -0.573252
O15   O     O_R   0.408940 0.091200 0.620260 -0.573725
O16   O     O_R   0.408940 0.091200 0.379740 -0.581182
C5    C     C_R   0.880648 0.379286 0.499850 0.771695
C6    C     C_R   0.880637 0.620697 0.500162 0.772147
C7    C     C_R   0.380635 0.879305 0.499840 0.772307
C8    C     C_R   0.380631 0.120694 0.500160 0.771218
Cu1   Cu    Cu3+1 0.000100 0.500000 0.642410 0.995667
Cu2   Cu    Cu3+1 0.000100 0.500000 0.357590 0.995592
Cu3   Cu    Cu3+1 0.500100 0.000000 0.642410 0.995473
Cu4   Cu    Cu3+1 0.500100 1.000000 0.357590 0.995484
C9    C     C_3   0.823577 0.241476 0.620789 -0.300392
C10   C     C_3   0.810492 0.255664 0.361031 -0.304008
C11   C     C_3   0.809665 0.743412 0.639782 -0.304600
C12   C     C_3   0.824191 0.759228 0.380477 -0.299577
C13   C     C_3   0.324128 0.740827 0.619598 -0.299572
C14   C     C_3   0.309719 0.756536 0.360269 -0.304488
C15   C     C_3   0.310375 0.244216 0.639079 -0.304111
C16   C     C_3   0.323610 0.258544 0.379364 -0.300244
H1    H     H_    0.823798 0.277946 0.723129 0.218404
H2    H     H_    0.798148 0.302690 0.272823 0.216028
H3    H     H_    0.797454 0.695824 0.727333 0.215063
H4    H     H_    0.824387 0.723367 0.277640 0.219217
H5    H     H_    0.324317 0.776726 0.722401 0.219222
H6    H     H_    0.297486 0.804087 0.272685 0.215159
H7    H     H_    0.298112 0.197135 0.727250 0.215863
H8    H     H_    0.323708 0.222110 0.276999 0.218619
H9    H     H_    0.885193 0.205234 0.606729 0.199272
H10   H     H_    0.873374 0.222204 0.345465 0.211937
H11   H     H_    0.872271 0.777298 0.656111 0.213049
H12   H     H_    0.885988 0.794993 0.395323 0.198336
H13   H     H_    0.385905 0.705017 0.604795 0.198447
H14   H     H_    0.372345 0.722689 0.343965 0.213014
H15   H     H_    0.373206 0.277782 0.654639 0.211957
H16   H     H_    0.385292 0.294661 0.393391 0.199109
C17   C     C_3   0.252160 0.670055 0.620969 -0.394295
C18   C     C_3   0.239368 0.684267 0.360676 -0.378024
C19   C     C_3   0.240331 0.316846 0.638331 -0.379175
C20   C     C_3   0.251429 0.329045 0.377553 -0.392975
C21   C     C_3   0.751295 0.171095 0.622757 -0.392805
C22   C     C_3   0.740552 0.182917 0.361885 -0.379509
C23   C     C_3   0.739276 0.815636 0.639417 -0.377889
C24   C     C_3   0.752250 0.830035 0.379151 -0.394343
H17   H     H_    0.279440 0.600443 0.610315 0.150500
H18   H     H_    0.267896 0.615545 0.345677 0.158407
H19   H     H_    0.269252 0.385552 0.651237 0.157869
H20   H     H_    0.278569 0.398833 0.386144 0.150668
H21   H     H_    0.778352 0.101247 0.614629 0.150616
H22   H     H_    0.769588 0.114231 0.349421 0.157804
H23   H     H_    0.767762 0.884365 0.654632 0.158415
H24   H     H_    0.779555 0.899630 0.390003 0.150474
H25   H     H_    0.218808 0.673740 0.723614 0.213656
H26   H     H_    0.196298 0.696758 0.270751 0.237981
H27   H     H_    0.197850 0.305460 0.729386 0.237331
H28   H     H_    0.217468 0.324250 0.275540 0.215038
H29   H     H_    0.717217 0.176173 0.724649 0.215393
H30   H     H_    0.698197 0.194044 0.270602 0.237291
H31   H     H_    0.696148 0.803031 0.729254 0.237962
H32   H     H_    0.718965 0.826466 0.276432 0.213418
H33   H     H_    0.721805 0.395315 0.619444 0.173374
H34   H     H_    0.713185 0.407100 0.433423 0.163310
H35   H     H_    0.712669 0.592702 0.564061 0.163372
H36   H     H_    0.722616 0.604974 0.378302 0.173326
H37   H     H_    0.222545 0.895046 0.621539 0.173345
H38   H     H_    0.212707 0.907296 0.435767 0.163372
H39   H     H_    0.213076 0.092905 0.566442 0.163412
H40   H     H_    0.221882 0.104614 0.380433 0.173284
H41   H     H_    0.114682 0.790343 0.617607 0.211328
H42   H     H_    0.106593 0.800063 0.431401 0.192112
H43   H     H_    0.107269 0.200461 0.572207 0.193609
H44   H     H_    0.113690 0.209003 0.385647 0.209699
H45   H     H_    0.613474 0.291081 0.613717 0.209398
H46   H     H_    0.607477 0.299442 0.427086 0.193638
H47   H     H_    0.606518 0.699892 0.568243 0.191953
H48   H     H_    0.614795 0.709717 0.382058 0.211466
C25   C     C_3   0.723503 0.357096 0.518495 -0.409470
C26   C     C_3   0.723603 0.642929 0.479508 -0.409878
C27   C     C_3   0.223589 0.857082 0.520348 -0.409904
C28   C     C_3   0.223485 0.142872 0.481349 -0.409556
C29   C     C_3   0.811139 0.310075 0.500102 0.071948
C30   C     C_3   0.811105 0.689875 0.499941 0.071885
C31   C     C_3   0.311100 0.810130 0.500059 0.071776
C32   C     C_3   0.311107 0.189886 0.499937 0.071938
C33   C     C_3   0.189029 0.688436 0.500205 0.121264
C34   C     C_3   0.189072 0.311623 0.499769 0.121659
C35   C     C_3   0.689102 0.188342 0.500252 0.121920
C36   C     C_3   0.689034 0.811567 0.499788 0.121267
C37   C     C_3   0.151429 0.785386 0.518512 -0.337580
C38   C     C_3   0.151330 0.214575 0.483794 -0.337754
C39   C     C_3   0.651340 0.285407 0.515797 -0.337861
C40   C     C_3   0.651447 0.714626 0.481259 -0.337502
C41   C     C_3   0.962673 0.584836 0.086802 0.221138
C42   C     C_3   0.950349 0.577919 0.921706 0.206446
C43   C     C_3   0.950558 0.421928 0.078352 0.206270
C44   C     C_3   0.962818 0.415084 0.913228 0.221246
C45   C     C_3   0.462827 0.084924 0.086743 0.221290
C46   C     C_3   0.450628 0.078113 0.921612 0.206415
C47   C     C_3   0.450298 0.922111 0.078297 0.206395
C48   C     C_3   0.462622 0.915190 0.913197 0.221047
H49   H     H_    0.897381 0.592020 0.130630 0.077251
H50   H     H_    0.881585 0.562677 0.903205 0.013013
H51   H     H_    0.881762 0.436966 0.096945 0.013442
H52   H     H_    0.897508 0.407830 0.869506 0.076893
H53   H     H_    0.397494 0.092147 0.130403 0.076778
H54   H     H_    0.381824 0.063155 0.902958 0.013526
H55   H     H_    0.381542 0.937392 0.096808 0.012999
H56   H     H_    0.397330 0.908041 0.869368 0.077267
H57   H     H_    0.133155 0.541752 0.133693 0.191595
H58   H     H_    0.118520 0.573005 0.893339 0.220814
H59   H     H_    0.118730 0.427331 0.106581 0.220659
H60   H     H_    0.133260 0.458646 0.866225 0.191514
H61   H     H_    0.633321 0.041155 0.133823 0.191574
H62   H     H_    0.618810 0.072559 0.893471 0.220635
H63   H     H_    0.618430 0.926858 0.106626 0.220811
H64   H     H_    0.633128 0.958136 0.866305 0.191561
C49   C     C_3   0.088986 0.493312 0.082280 -0.225526
C50   C     C_3   0.088965 0.506931 0.917682 -0.225338
C51   C     C_3   0.588956 0.992975 0.082314 -0.225142
C52   C     C_3   0.588994 0.006611 0.917725 -0.225508
N1    N     N_3   0.001260 0.500000 0.143650 -0.260998
N2    N     N_3   0.001260 0.500000 0.856350 -0.260828
N3    N     N_3   0.501260 0.000000 0.143650 -0.260845
N4    N     N_3   0.501260 1.000000 0.856350 -0.261126
N5    N     N_R   0.011463 0.666682 0.130530 0.197489
O17   O     O_R   0.976627 0.726563 0.212631 -0.387723
O18   O     O_R   0.084454 0.687325 0.074823 -0.373613
N6    N     N_R   0.963213 0.668321 0.860129 0.174033
O19   O     O_R   0.911577 0.732802 0.899768 -0.387993
O20   O     O_R   0.035101 0.692612 0.805354 -0.344035
N7    N     N_R   0.963718 0.331566 0.139953 0.174192
O21   O     O_R   0.912092 0.266987 0.100689 -0.387634
O22   O     O_R   0.035840 0.307367 0.194019 -0.344037
N8    N     N_R   0.011627 0.333299 0.869371 0.197738
O23   O     O_R   0.976479 0.273043 0.788242 -0.387599
O24   O     O_R   0.084887 0.312963 0.924380 -0.373603
N9    N     N_R   0.511553 0.166741 0.130621 0.197893
O25   O     O_R   0.475885 0.227565 0.210166 -0.387031
O26   O     O_R   0.585081 0.186802 0.076320 -0.373833
N10   N     N_R   0.463926 0.168453 0.860000 0.174352
O27   O     O_R   0.412251 0.233045 0.899011 -0.387207
O28   O     O_R   0.536215 0.192657 0.806487 -0.344108
N11   N     N_R   0.463102 0.831691 0.139848 0.173992
O29   O     O_R   0.411489 0.767222 0.100088 -0.387870
O30   O     O_R   0.534917 0.807393 0.194853 -0.344090
N12   N     N_R   0.511388 0.833323 0.869480 0.197466
O31   O     O_R   0.476554 0.773474 0.787290 -0.387678
O32   O     O_R   0.584329 0.812601 0.925278 -0.373658

loop_
_geom_bond_atom_site_label_1
_geom_bond_atom_site_label_2
_geom_bond_distance
_ccdc_geom_bond_type
C7    C31   1.492225 S    
C49   N1    1.499861 S    
C6    C30   1.492220 S    
C25   C29   1.549116 S    
C18   C33   1.551449 S    
C43   C44   1.593028 S    
C14   H6    1.112477 S    
C52   N4    1.499980 S    
Cu2   N1    2.045930 S    
C17   H25   1.113356 S    
C47   N11   1.472743 S    
C42   H50   1.116317 S    
C41   H49   1.112027 S    
C51   C52   1.588358 S    
C51   N3    1.499612 S    
C19   C34   1.551593 S    
C26   C40   1.547595 S    
O13   C7    1.305027 A    
C23   C36   1.551527 S    
O10   C5    1.308996 A    
C48   N12   1.483892 S    
N10   O27   1.301390 A    
N7    O22   1.295801 A    
H46   C39   1.113321 S    
C45   C46   1.592979 S    
H63   C51   1.103496 S    
N5    O18   1.300621 A    
H37   C27   1.113140 S    
C27   C31   1.549018 S    
O11   Cu1   1.974080 S    
C26   C30   1.549027 S    
H34   C25   1.113231 S    
C21   H29   1.113479 S    
C47   C48   1.592993 S    
H61   C51   1.106255 S    
O7    Cu3   1.973738 S    
C10   H2    1.112442 S    
C43   H51   1.116326 S    
H40   C28   1.113171 S    
C11   C30   1.546158 S    
C11   C23   1.532799 S    
C27   C37   1.547622 S    
N7    O21   1.301457 A    
C23   H23   1.113748 S    
O5    Cu3   1.971263 S    
C17   H17   1.113658 S    
H48   C40   1.111324 S    
O11   C6    1.308914 A    
O6    Cu4   1.973766 S    
O16   C8    1.305008 A    
C17   C33   1.547395 S    
C1    C34   1.482039 S    
C20   H28   1.113422 S    
C19   H19   1.113711 S    
N11   O30   1.295645 A    
C34   C38   1.551769 S    
C3    C36   1.482120 S    
C46   N4    1.526021 S    
N9    O26   1.300607 A    
C15   H7    1.112439 S    
C16   H16   1.112011 S    
H64   C52   1.106362 S    
C11   H11   1.112357 S    
O1    Cu1   1.971263 S    
C12   H12   1.112074 S    
O9    Cu1   1.971582 S    
C45   N3    1.494001 S    
Cu4   N3    2.045930 S    
H41   C37   1.111223 S    
C46   N10   1.472972 S    
C22   H22   1.113758 S    
N12   O32   1.300625 A    
C13   C17   1.536320 S    
O7    C4    1.306298 A    
C21   C35   1.547633 S    
C14   H14   1.112344 S    
C33   C37   1.551775 S    
C47   H55   1.116313 S    
C9    C21   1.536163 S    
C15   C19   1.533103 S    
O14   C7    1.308893 A    
O13   Cu3   1.971582 S    
C44   N2    1.493840 S    
C42   N2    1.526530 S    
O14   Cu4   1.974054 S    
H35   C26   1.113210 S    
O2    Cu2   1.973766 S    
C21   H21   1.113764 S    
O6    C3    1.306414 A    
C44   H52   1.112033 S    
C10   C22   1.533126 S    
O16   Cu4   1.971577 S    
Cu1   Cu2   2.723654 S    
C24   H32   1.113465 S    
C43   N7    1.472940 S    
C9    H9    1.112012 S    
C13   C31   1.551669 S    
C16   C20   1.536155 S    
H60   C50   1.106317 S    
H44   C38   1.111515 S    
N11   O29   1.301501 A    
C18   H26   1.110483 S    
O3    Cu1   1.973738 S    
O8    C4    1.302917 A    
H45   C39   1.111627 S    
C20   H20   1.113719 S    
C14   C31   1.546139 S    
O1    C1    1.302869 A    
C16   C32   1.551692 S    
O10   Cu2   1.974054 S    
C42   N6    1.472730 S    
H58   C50   1.103514 S    
C4    C35   1.482015 S    
N6    O20   1.295663 A    
C47   N3    1.526630 S    
C14   C18   1.532833 S    
N5    O17   1.295819 A    
C15   H15   1.112426 S    
C49   C50   1.588415 S    
O8    Cu4   1.971266 S    
C44   N8    1.483629 S    
C16   H8    1.111897 S    
H42   C37   1.113152 S    
C12   C24   1.536366 S    
O4    C2    1.302843 A    
C15   C32   1.546195 S    
C23   H31   1.110615 S    
C36   C40   1.551807 S    
O15   Cu3   1.974080 S    
C22   H30   1.110581 S    
C35   C39   1.551753 S    
N12   O31   1.296018 A    
H57   C49   1.106367 S    
C28   C38   1.547686 S    
O12   C6    1.305013 A    
H38   C27   1.113171 S    
C48   H56   1.112016 S    
C41   N5    1.483889 S    
C8    C32   1.492281 S    
H47   C40   1.113278 S    
C10   H10   1.112446 S    
C2    C33   1.482103 S    
H62   C52   1.103421 S    
H59   C49   1.103481 S    
C45   N9    1.483417 S    
N6    O19   1.301513 A    
O12   Cu2   1.971577 S    
C50   N2    1.499689 S    
O4    Cu2   1.971266 S    
O5    C3    1.302844 A    
C18   H18   1.113660 S    
Cu3   N4    2.045931 S    
C9    C29   1.551832 S    
C41   N1    1.493684 S    
C13   H5    1.111877 S    
N10   O28   1.295949 A    
Cu1   N2    2.045931 S    
C20   C34   1.547531 S    
O3    C2    1.306400 A    
C41   C42   1.592964 S    
O9    C5    1.304969 A    
H43   C38   1.113244 S    
C43   N1    1.526302 S    
H39   C28   1.113212 S    
C28   C32   1.549088 S    
H33   C25   1.113191 S    
C12   C30   1.551720 S    
O15   C8    1.308945 A    
N8    O24   1.300623 A    
C12   H4    1.111898 S    
C19   H27   1.110591 S    
C5    C29   1.492285 S    
C46   H54   1.116328 S    
C45   H53   1.112062 S    
C24   H24   1.113736 S    
C13   H13   1.112042 S    
C9    H1    1.111933 S    
Cu3   Cu4   2.723654 S    
C11   H3    1.112513 S    
N8    O23   1.296112 A    
C10   C29   1.546211 S    
C22   C35   1.551634 S    
N9    O25   1.296398 A    
C24   C36   1.547484 S    
O2    C1    1.306355 A    
H36   C26   1.113181 S    
C25   C39   1.547658 S    
C48   N4    1.493654 S    
