data_mof_unit_65394.cif
_audit_creation_date              2012-12-10T18:50:18-0500
_audit_creation_method            fapswitch 2.2
_symmetry_space_group_name_H-M    P1
_symmetry_Int_Tables_number       1
_space_group_crystal_system       triclinic
_cell_length_a                    15.880723
_cell_length_b                    19.394522
_cell_length_c                    18.177416
_cell_angle_alpha                 90.84597
_cell_angle_beta                  90.625773
_cell_angle_gamma                 91.150848
_cell_volume                      5596.53464629

loop_
_atom_site_label
_atom_site_type_symbol
_atom_type_description
_atom_site_fract_x
_atom_site_fract_y
_atom_site_fract_z
_atom_type_partial_charge
C1    C     C_R   0.501653 0.367572 0.499482 0.838086
C2    C     C_R   0.498347 0.632429 0.500518 0.838083
C3    C     C_R   0.542239 0.815004 0.443889 0.229657
C4    C     C_R   0.457712 0.184994 0.556072 0.229721
C5    C     C_R   0.501297 0.852525 0.499125 0.078031
C6    C     C_R   0.498704 0.147477 0.500862 0.078023
C7    C     C_R   0.457887 0.817857 0.554487 -0.187968
C8    C     C_R   0.542164 0.182150 0.445532 -0.188008
C9    C     C_R   0.455631 0.745993 0.556165 0.167132
C10   C     C_R   0.544417 0.254014 0.443859 0.167106
C11   C     C_R   0.497906 0.708051 0.501398 -0.112795
C12   C     C_R   0.502094 0.291951 0.498600 -0.112767
C13   C     C_R   0.427632 0.961731 0.479753 -0.339648
C14   C     C_R   0.572371 0.038269 0.520227 -0.339679
C15   C     C_R   0.425586 0.034015 0.479839 0.475184
C16   C     C_R   0.574418 0.965986 0.520141 0.475176
C17   C     C_R   0.498458 0.071980 0.500643 0.033530
C18   C     C_R   0.501545 0.928021 0.499339 0.033523
C19   C     C_R   0.445570 0.456097 0.718363 0.073279
C20   C     C_R   0.554428 0.543904 0.281637 0.073273
C21   C     C_R   0.442761 0.453664 0.795802 -0.216854
C22   C     C_R   0.557237 0.546338 0.204199 -0.216855
C23   C     C_R   0.339738 0.499991 0.499664 0.836029
C24   C     C_R   0.660262 0.500008 0.500336 0.836043
C25   C     C_R   0.496780 0.496492 0.838859 0.096963
C26   C     C_R   0.503219 0.503510 0.161141 0.096965
C27   C     C_R   0.551215 0.541540 0.802310 -0.259820
C28   C     C_R   0.448785 0.458461 0.197689 -0.259827
C29   C     C_R   0.552591 0.542840 0.725216 0.371614
C30   C     C_R   0.447410 0.457160 0.274784 0.371599
C31   C     C_R   0.483431 0.559014 0.960001 -0.214008
C32   C     C_R   0.516568 0.440988 0.040000 -0.214010
C33   C     C_R   0.486351 0.562729 0.037375 0.178636
C34   C     C_R   0.513648 0.437274 0.962625 0.178638
C35   C     C_R   0.503581 0.503337 0.078566 0.026307
C36   C     C_R   0.496418 0.496666 0.921434 0.026307
C37   C     C_3   0.970594 0.437675 0.513331 0.414159
C38   C     C_3   0.029405 0.562323 0.486669 0.414154
C39   C     C_3   0.025547 0.456062 0.447049 0.121393
C40   C     C_3   0.974453 0.543935 0.552951 0.121410
C41   C     C_1   0.250195 0.499856 0.499077 -0.116280
C42   C     C_1   0.749805 0.500143 0.500923 -0.116269
C43   C     C_3   0.028838 0.479465 0.566659 -0.333551
C44   C     C_3   0.971162 0.520533 0.433340 -0.333568
C45   C     C_3   0.083237 0.499122 0.499719 -0.003718
C46   C     C_3   0.916763 0.500876 0.500281 -0.003716
C47   C     C_1   0.174761 0.499616 0.499192 0.093893
C48   C     C_1   0.825239 0.500383 0.500808 0.093898
C49   C     C_R   0.540269 0.743195 0.445370 -0.237966
C50   C     C_R   0.459683 0.256803 0.554598 -0.237974
Cu1   Cu    Cu3+1 0.499980 0.500000 0.573360 1.006958
Cu2   Cu    Cu3+1 0.500020 0.500000 0.426640 1.006955
H1    H     H_    0.403814 0.422618 0.686021 0.136111
H2    H     H_    0.596185 0.577383 0.313979 0.136110
H3    H     H_    0.398429 0.418865 0.821800 0.168945
H4    H     H_    0.601569 0.581138 0.178200 0.168945
H5    H     H_    0.593369 0.575530 0.833834 0.171524
H6    H     H_    0.406631 0.424471 0.166166 0.171524
H7    H     H_    0.470013 0.605213 0.929594 0.184172
H8    H     H_    0.529986 0.394790 0.070406 0.184169
H9    H     H_    0.947339 0.538385 0.379382 0.193129
H10   H     H_    0.052661 0.461613 0.620617 0.193130
H11   H     H_    0.572430 0.714741 0.402710 0.173549
H12   H     H_    0.427484 0.285255 0.597236 0.173525
H13   H     H_    0.425179 0.846979 0.596303 0.180627
H14   H     H_    0.574910 0.153032 0.403736 0.180632
H15   H     H_    0.371963 0.931559 0.463993 0.170187
H16   H     H_    0.628041 0.068441 0.535987 0.170184
N1    N     N_R   0.499990 0.500020 0.683620 -0.194631
N2    N     N_R   0.500010 0.499980 0.316380 -0.194630
O1    O     O_R   0.499960 0.400180 0.561980 -0.594962
O2    O     O_R   0.500040 0.599820 0.438020 -0.594970
O3    O     O_R   0.500000 0.400190 0.438070 -0.543523
O4    O     O_R   0.500000 0.599810 0.561930 -0.543518
O5    O     O_R   0.379060 0.499990 0.561940 -0.583720
O6    O     O_R   0.620940 0.500010 0.438060 -0.583713
O7    O     O_R   0.379100 0.500000 0.438040 -0.554535
O8    O     O_R   0.620900 0.500000 0.561960 -0.554537
I1    I     I_    0.066220 0.385162 0.364398 -0.222464
I2    I     I_    0.933780 0.614836 0.635601 -0.222456
I3    I     I_    0.640013 0.614614 0.680636 -0.232933
I4    I     I_    0.359990 0.385383 0.319363 -0.232940
I5    I     I_    0.457755 0.658756 0.087677 -0.283253
I6    I     I_    0.542244 0.341247 0.912323 -0.283266
O9    O     O_3   0.937150 0.371980 0.527168 -0.670611
H17   H     H_    0.986547 0.342476 0.535247 0.341920
O10   O     O_3   0.062850 0.628018 0.472832 -0.670616
H18   H     H_    0.013453 0.657517 0.464731 0.341917
I7    I     I_    0.605253 0.863475 0.355567 -0.252963
I8    I     I_    0.394620 0.136518 0.644351 -0.252972
I9    I     I_    0.381371 0.700356 0.639878 -0.257521
I10   I     I_    0.618740 0.299665 0.360197 -0.257511
O11   O     O_3   0.353938 0.068550 0.459539 -0.687827
H19   H     H_    0.308721 0.034304 0.446750 0.340582
O12   O     O_3   0.646066 0.931450 0.540439 -0.687833
H20   H     H_    0.691277 0.965696 0.553245 0.340576

loop_
_geom_bond_atom_site_label_1
_geom_bond_atom_site_label_2
_ccdc_geom_bond_type
O10   H18   S    
C20   H2    S    
C8    H14   S    
O11   H19   S    
C49   H11   S    
C27   C29   A    
C24   C42   S    
O12   H20   S    
Cu1   O4    S    
C9    I9    S    
C3    C49   A    
O9    H17   S    
C40   C46   S    
C1    O1    A    
Cu1   O1    S    
C13   C18   A    
C11   C49   A    
C37   O9    S    
C19   C21   A    
Cu1   O5    S    
C50   H12   S    
C15   C17   A    
C31   H7    S    
C38   C45   S    
C40   C43   S    
C40   I2    S    
C29   N1    A    
C2    O4    A    
C39   C45   S    
C19   H1    S    
C10   I10   S    
C14   C17   A    
C20   N2    A    
C1    C12   S    
C34   I6    S    
C2    O2    A    
C2    C11   S    
C30   N2    A    
C44   C46   S    
C4    I8    S    
C45   C47   S    
C46   C48   S    
Cu1   Cu2   S    
C32   C35   A    
C4    C6    A    
Cu2   O3    S    
C27   H5    S    
C21   H3    S    
C24   O6    A    
C6    C8    A    
C5    C18   S    
C3    C5    A    
C4    C50   A    
C39   I1    S    
C30   I4    S    
C38   C44   S    
Cu2   O2    S    
C7    H13   S    
C33   I5    S    
C31   C33   A    
C41   C47   T    
C16   C18   A    
C42   C48   T    
C23   O7    A    
C43   C45   S    
C10   C12   A    
C24   O8    A    
C20   C22   A    
C29   I3    S    
C9    C11   A    
C14   C16   A    
C37   C43   S    
C19   N1    A    
C32   H8    S    
Cu2   O7    S    
C5    C7    A    
C13   H15   S    
C7    C9    A    
C6    C17   S    
C21   C25   A    
C16   O12   S    
C23   O5    A    
Cu2   O6    S    
C15   O11   S    
C12   C50   A    
C39   C44   S    
C28   H6    S    
C44   H9    S    
C25   C27   A    
C26   C28   A    
C23   C41   S    
C22   H4    S    
C38   O10   S    
C3    I7    S    
C1    O3    A    
C13   C15   A    
Cu1   O8    S    
C37   C39   S    
C38   C40   S    
C28   C30   A    
C33   C35   A    
C34   C36   A    
Cu2   N2    S    
C25   C36   S    
C26   C35   S    
C8    C10   A    
C22   C26   A    
C14   H16   S    
C31   C36   A    
Cu1   N1    S    
C37   C46   S    
C43   H10   S    
C32   C34   A    
