data_mof_unit_9370.cif
_audit_creation_date              2013-03-05T16:00:57-0500
_audit_creation_method            fapswitch 2.2
_symmetry_space_group_name_H-M    P1
_symmetry_Int_Tables_number       1
_space_group_crystal_system       triclinic
_cell_length_a                    10.62194
_cell_length_b                    14.679829
_cell_length_c                    14.630198
_cell_angle_alpha                 64.764343
_cell_angle_beta                  103.921109
_cell_angle_gamma                 103.240283
_cell_volume                      1982.04561124

loop_
_atom_site_label
_atom_site_type_symbol
_atom_site_description
_atom_site_fract_x
_atom_site_fract_y
_atom_site_fract_z
_atom_type_partial_charge
O1    O     O_R   0.454850 0.022100 0.338110 -0.603291
O2    O     O_R   0.545150 0.977900 0.661890 -0.594263
O3    O     O_R   0.512700 0.160150 0.379180 -0.539658
O4    O     O_R   0.487300 0.839850 0.620820 -0.580364
C1    C     C_R   0.480482 0.119812 0.311755 0.850739
C2    C     C_R   0.525855 0.880125 0.688274 0.836122
O5    O     O_R   0.287930 0.931000 0.479440 -0.599375
O6    O     O_R   0.712070 0.069000 0.520560 -0.609643
O7    O     O_R   0.345780 0.069050 0.520520 -0.578859
O8    O     O_R   0.654220 0.930950 0.479480 -0.550410
C3    C     C_R   0.259713 0.999781 0.500332 0.862687
C4    C     C_R   0.740232 0.000309 0.499200 0.850846
Cu1   Cu    Cu3+1 0.465750 0.918270 0.475680 0.961677
Cu2   Cu    Cu3+1 0.534250 0.081730 0.524320 0.965201
C5    C     C_3   0.011926 0.914297 0.490004 -0.239597
C6    C     C_3   0.987838 0.085065 0.508591 -0.280589
C7    C     C_3   0.929099 0.997481 0.411227 0.118790
C8    C     C_3   0.070493 0.001889 0.587546 0.113241
H1    H     H_    0.023519 0.844480 0.482777 0.168190
H2    H     H_    0.975789 0.155665 0.513391 0.150182
C9    C     C_3   0.876328 0.999725 0.499017 -0.072797
C10   C     C_3   0.123303 0.999807 0.499755 -0.094923
C11   C     C_3   0.958399 0.917513 0.577710 0.037628
C12   C     C_3   0.041250 0.081709 0.421026 0.020126
C13   C     C_R   0.473842 0.187566 0.203032 -0.089205
C14   C     C_R   0.559224 0.812850 0.796227 -0.077431
C15   C     C_R   0.387146 0.223591 0.023213 0.193879
C16   C     C_R   0.676195 0.786121 0.968683 0.191622
C17   C     C_R   0.400859 0.155606 0.126387 -0.182418
C18   C     C_R   0.632039 0.851560 0.868305 -0.186417
C19   C     C_R   0.535395 0.287500 0.177339 -0.186467
C20   C     C_R   0.532366 0.708161 0.823672 -0.208808
C21   C     C_R   0.523035 0.358907 0.075743 0.048145
C22   C     C_R   0.573472 0.640010 0.923146 0.050537
C23   C     C_R   0.461414 0.323462 0.996414 0.086287
C24   C     C_R   0.631133 0.679270 0.999990 0.080924
C25   C     C_R   0.566071 0.465027 0.051481 0.077036
C26   C     C_R   0.550330 0.533447 0.947982 0.076094
C27   C     C_R   0.518002 0.493544 0.871545 -0.289479
C28   C     C_R   0.612829 0.505629 0.127478 -0.247645
C29   C     C_R   0.478244 0.389780 0.894647 -0.027345
C30   C     C_R   0.638055 0.610147 0.103768 -0.059045
H3    H     H_    0.474189 0.680573 0.766748 0.149812
H4    H     H_    0.594750 0.306971 0.238924 0.169239
H5    H     H_    0.659919 0.933029 0.844961 0.162703
H6    H     H_    0.349522 0.078580 0.147674 0.149827
H7    H     H_    0.530991 0.541946 0.793365 0.133859
H8    H     H_    0.623179 0.458005 0.207651 0.182969
N1    N     N_R   0.585750 0.204560 0.560800 -0.211096
N2    N     N_R   0.414250 0.795440 0.439200 -0.208146
C31   C     C_R   0.756892 0.306887 0.630593 0.117744
C32   C     C_R   0.278809 0.720327 0.325354 0.119058
C33   C     C_R   0.706510 0.216588 0.615229 0.035913
C34   C     C_R   0.316635 0.800186 0.359100 0.037233
C35   C     C_R   0.508409 0.279353 0.520848 0.087250
C36   C     C_R   0.481711 0.714633 0.487185 0.067004
C37   C     C_R   0.554890 0.375830 0.527189 -0.062767
C38   C     C_R   0.453207 0.632861 0.454218 -0.039805
C39   C     C_R   0.674440 0.383613 0.594715 0.118941
C40   C     C_R   0.337525 0.629747 0.382643 0.112512
C41   C     C_R   0.483720 0.462129 0.473926 0.044371
C42   C     C_R   0.531018 0.551780 0.495368 0.053090
C43   C     C_R   0.656820 0.558528 0.555397 -0.134446
C44   C     C_R   0.369127 0.464104 0.398337 -0.123761
C45   C     C_R   0.709529 0.469436 0.620903 -0.103771
C46   C     C_R   0.285997 0.537215 0.370151 -0.078296
H9    H     H_    0.556756 0.714637 0.551694 0.154774
H10   H     H_    0.410609 0.262153 0.484279 0.161218
H11   H     H_    0.270270 0.868239 0.319474 0.137514
H12   H     H_    0.766390 0.156638 0.643676 0.139083
C47   C     C_3   0.845323 0.994960 0.311067 -0.370074
C48   C     C_3   0.925275 0.981181 0.245128 -0.780412
H13   H     H_    0.007692 0.044390 0.225383 0.255051
H14   H     H_    0.964901 0.907763 0.286135 0.254216
H15   H     H_    0.861492 0.980772 0.172991 0.245731
H16   H     H_    0.763514 0.930967 0.328871 0.264377
H17   H     H_    0.802931 0.067073 0.267742 0.175444
C49   C     C_3   0.156093 0.005986 0.686591 -0.390342
C50   C     C_3   0.075184 0.006051 0.759772 -0.827972
H18   H     H_    0.017355 0.070256 0.722056 0.248195
H19   H     H_    0.007405 0.933661 0.785666 0.260694
H20   H     H_    0.141489 0.014124 0.828093 0.247592
H21   H     H_    0.209869 0.939258 0.725008 0.184469
H22   H     H_    0.228852 0.076317 0.667211 0.224734
C51   C     C_3   0.902575 0.322822 0.672913 -0.364852
C52   C     C_3   0.988722 0.316564 0.606477 -0.883224
H23   H     H_    0.978229 0.237614 0.612826 0.233243
H24   H     H_    0.961781 0.367623 0.525103 0.288717
H25   H     H_    0.093283 0.339983 0.633102 0.251934
H26   H     H_    0.935944 0.398856 0.675377 0.228545
H27   H     H_    0.922692 0.264728 0.752019 0.221520
C53   C     C_3   0.189571 0.740269 0.222304 -0.360701
C54   C     C_3   0.249329 0.831388 0.135968 -0.862017
H28   H     H_    0.252461 0.903532 0.144378 0.232802
H29   H     H_    0.350109 0.822041 0.135679 0.295552
H30   H     H_    0.188653 0.836788 0.061030 0.247867
H31   H     H_    0.172412 0.675148 0.199353 0.227853
H32   H     H_    0.093182 0.754473 0.226598 0.218492
C55   C     C_2   0.749545 0.655634 0.533207 0.366488
H33   H     H_    0.834611 0.663584 0.588920 0.049860
O9    O     O_2   0.737185 0.725554 0.449125 -0.532482
C56   C     C_2   0.349145 0.409689 0.329112 0.355152
H34   H     H_    0.252703 0.391056 0.290407 0.090224
O10   O     O_2   0.442452 0.390699 0.308897 -0.552660
C57   C     C_2   0.915021 0.823702 0.665599 0.308040
H35   H     H_    0.983921 0.771211 0.714214 0.059795
O11   O     O_2   0.803388 0.805815 0.683170 -0.563199
C58   C     C_2   0.084927 0.174838 0.332688 0.296885
H36   H     H_    0.017852 0.229392 0.285838 0.065990
O12   O     O_2   0.194655 0.189493 0.312481 -0.548752
C59   C     C_2   0.474982 0.354220 0.812949 0.373236
H37   H     H_    0.456118 0.405355 0.732982 0.055449
O13   O     O_2   0.500499 0.269868 0.833863 -0.526334
C60   C     C_2   0.644888 0.640659 0.189761 0.371326
H38   H     H_    0.686989 0.594194 0.266911 0.113226
O14   O     O_2   0.596154 0.713901 0.176583 -0.544604
C61   C     C_3   0.281479 0.190236 0.947863 -0.368974
C62   C     C_3   0.146670 0.156809 0.981666 -0.859775
H39   H     H_    0.144601 0.084901 0.051009 0.243544
H40   H     H_    0.120263 0.217146 0.997370 0.276766
H41   H     H_    0.071514 0.143097 0.919661 0.245755
H42   H     H_    0.266929 0.252786 0.871522 0.209840
H43   H     H_    0.309920 0.126339 0.939306 0.227916
C63   C     C_3   0.780649 0.832507 0.034666 -0.348063
C64   C     C_3   0.900948 0.890564 0.983208 -0.896605
H44   H     H_    0.941240 0.840341 0.961657 0.265407
H45   H     H_    0.876810 0.959384 0.914154 0.256088
H46   H     H_    0.977690 0.915823 0.037488 0.252686
H47   H     H_    0.738060 0.884959 0.051567 0.229806
H48   H     H_    0.819353 0.773851 0.107903 0.215026
C65   C     C_2   0.777756 0.462956 0.724894 0.298815
H49   H     H_    0.815960 0.531287 0.739740 0.070085
O15   O     O_2   0.784635 0.380866 0.797118 -0.511073
C66   C     C_2   0.141457 0.506456 0.347893 0.273856
H50   H     H_    0.101728 0.442939 0.325366 0.059702
O16   O     O_2   0.064092 0.547988 0.361165 -0.559824

loop_
_geom_bond_atom_site_label_1
_geom_bond_atom_site_label_2
_geom_bond_distance
_ccdc_geom_bond_type
C38   C42   1.436129 A    
C43   C45   1.396744 A    
C13   C19   1.389095 A    
C54   H28   1.109450 S    
C15   C17   1.404265 A    
C18   H5    1.082955 S    
C24   C30   1.416709 A    
C59   H37   1.086108 S    
C61   H42   1.105401 S    
C31   C51   1.526211 S    
C60   H38   1.086108 S    
C51   H27   1.111424 S    
C53   H32   1.111563 S    
C27   C29   1.395669 A    
C65   O15   1.221256 D    
C51   C52   1.527433 S    
C44   C56   1.489163 S    
C57   O11   1.219654 D    
C6    C9    1.543392 S    
O1    C1    1.296266 A    
C25   C26   1.409926 A    
C25   C28   1.414877 A    
C47   H16   1.109852 S    
C52   H24   1.111072 S    
C37   C39   1.423976 A    
Cu2   N1    2.015842 S    
C38   C40   1.415786 A    
C11   C57   1.498895 S    
C58   H36   1.084944 S    
C5    C7    1.548440 S    
O4    Cu1   1.920688 S    
C62   H39   1.109479 S    
C43   C55   1.491179 S    
C32   C40   1.427446 A    
C46   C66   1.494766 S    
C49   H21   1.110902 S    
C30   C60   1.486729 S    
C5    C10   1.544954 S    
C37   C41   1.448137 A    
C36   C38   1.422032 A    
C64   H46   1.110749 S    
C19   C21   1.402116 A    
C12   C58   1.498648 S    
C28   C30   1.395998 A    
N2    C36   1.360397 A    
C41   C42   1.433930 A    
O6    C4    1.286779 A    
C5    C11   1.544987 S    
C40   C46   1.414608 A    
C54   H29   1.111179 S    
C22   C26   1.421878 A    
Cu1   Cu2   2.683434 S    
O2    C2    1.296933 A    
C48   H15   1.110130 S    
O2    Cu2   1.934006 S    
C33   H12   1.081193 S    
C45   C65   1.492184 S    
C32   C34   1.400651 A    
C53   H31   1.106470 S    
C35   H10   1.075535 S    
C15   C61   1.525762 S    
C13   C17   1.393612 A    
C7    C12   1.537118 S    
C19   H4    1.074583 S    
C8    C11   1.538361 S    
C48   H14   1.110678 S    
C50   H19   1.108431 S    
C52   H23   1.103761 S    
C66   O16   1.221448 D    
C15   C23   1.433306 A    
N1    C35   1.362688 A    
C4    C9    1.448239 S    
C52   H25   1.111101 S    
C21   C25   1.429043 A    
C50   H18   1.108502 S    
C31   C33   1.401879 A    
C62   H41   1.111021 S    
C44   C46   1.408228 A    
C41   C44   1.430568 A    
C5    H1    1.110504 S    
O7    Cu2   1.957036 S    
C42   C43   1.419710 A    
O5    C3    1.283980 A    
C55   H33   1.082979 S    
C6    H2    1.105690 S    
C2    C14   1.468464 S    
C63   H48   1.105446 S    
C59   O13   1.221128 D    
C6    C8    1.548037 S    
N2    C34   1.353527 A    
C56   O10   1.218757 D    
O7    C3    1.287372 A    
O3    Cu2   1.920689 S    
O8    C4    1.285365 A    
C1    C13   1.467488 S    
O4    C2    1.297424 A    
C8    C49   1.531466 S    
C55   O9    1.221226 D    
C7    C47   1.531094 S    
C54   H30   1.110394 S    
C35   C37   1.424034 A    
C64   H44   1.110771 S    
C10   C12   1.532317 S    
C32   C53   1.523259 S    
O1    Cu1   1.934006 S    
C65   H49   1.083951 S    
C47   H17   1.110871 S    
C27   H7    1.081765 S    
C28   H8    1.072652 S    
O6    Cu2   1.955999 S    
C8    C10   1.534039 S    
C48   H13   1.109876 S    
O3    C1    1.297553 A    
O8    Cu1   1.957036 S    
C50   H20   1.110505 S    
C60   O14   1.221200 D    
C51   H26   1.104396 S    
C16   C63   1.525013 S    
C14   C18   1.396531 A    
C66   H50   1.082112 S    
C14   C20   1.390158 A    
C36   H9    1.078964 S    
C57   H35   1.084338 S    
C3    C10   1.447015 S    
C17   H6    1.082547 S    
C9    C11   1.534979 S    
C61   H43   1.111269 S    
C47   C48   1.527106 S    
C61   C62   1.532241 S    
C39   C45   1.414471 A    
C49   C50   1.526058 S    
C26   C27   1.411816 A    
C34   H11   1.082031 S    
N1    C33   1.354731 A    
C16   C18   1.404102 A    
C53   C54   1.530938 S    
C21   C23   1.428120 A    
C20   H3    1.079257 S    
C58   O12   1.220175 D    
C63   H47   1.111026 S    
C22   C24   1.425008 A    
C56   H34   1.081421 S    
C23   C29   1.417345 A    
C62   H40   1.111004 S    
Cu1   N2    2.015842 S    
C49   H22   1.110829 S    
O5    Cu1   1.955999 S    
C31   C39   1.427482 A    
C16   C24   1.431159 A    
C6    C12   1.543308 S    
C29   C59   1.485311 S    
C64   H45   1.109393 S    
C20   C22   1.400839 A    
C63   C64   1.530638 S    
C7    C9    1.534881 S    
