data_mof_unit_20650.cif
_audit_creation_date              2012-12-10T19:12:20-0500
_audit_creation_method            fapswitch 2.2
_symmetry_space_group_name_H-M    P1
_symmetry_Int_Tables_number       1
_space_group_crystal_system       triclinic
_cell_length_a                    7.865863
_cell_length_b                    9.086948
_cell_length_c                    17.043717
_cell_angle_alpha                 89.600885
_cell_angle_beta                  91.641101
_cell_angle_gamma                 89.977493
_cell_volume                      1217.69900271

loop_
_atom_site_label
_atom_site_type_symbol
_atom_type_description
_atom_site_fract_x
_atom_site_fract_y
_atom_site_fract_z
_atom_type_partial_charge
C1    C     C_R   0.499999 0.220352 0.500023 0.853186
C2    C     C_R   0.612621 0.431674 0.137555 -0.036328
C3    C     C_R   0.544656 0.546397 0.902230 0.228078
C4    C     C_R   0.455343 0.453594 0.097771 0.228081
C5    C     C_R   0.692032 0.540471 0.858088 -0.109168
C6    C     C_R   0.307967 0.459520 0.141913 -0.109175
C7    C     C_R   0.679591 0.566049 0.776834 -0.101485
C8    C     C_R   0.320409 0.433942 0.223167 -0.101481
C9    C     C_1   0.500018 0.065458 0.500004 -0.122909
C10   C     C_1   0.499982 0.934542 0.499996 -0.122910
C11   C     C_1   0.780872 0.534979 0.247515 0.322342
C12   C     C_R   0.500001 0.779648 0.499977 0.853186
C13   C     C_1   0.219132 0.465005 0.752485 0.322337
C14   C     C_2   0.748938 0.348318 0.099137 0.426766
C15   C     C_2   0.251060 0.651671 0.900863 0.426768
C16   C     C_1   0.849414 0.488441 0.893607 0.303304
C17   C     C_1   0.150585 0.511548 0.106393 0.303302
C18   C     C_2   0.818528 0.647158 0.738384 0.466367
C19   C     C_2   0.181474 0.352830 0.261616 0.466353
C20   C     C_R   0.517827 0.508203 0.651258 0.829263
C21   C     C_R   0.482173 0.491795 0.348742 0.829266
C22   C     C_R   0.523425 0.534148 0.737424 -0.133123
C23   C     C_R   0.476575 0.465845 0.262576 -0.133121
C24   C     C_R   0.374870 0.530647 0.782542 -0.069568
C25   C     C_R   0.625130 0.469342 0.217458 -0.069573
C26   C     C_R   0.387378 0.568316 0.862445 -0.036328
Cu1   Cu    Cu3+1 0.669080 0.500010 0.500000 1.071664
Cu2   Cu    Cu3+1 0.330920 0.499990 0.500000 1.071667
H1    H     H_    0.750030 0.337319 0.035992 0.124245
H2    H     H_    0.249971 0.662676 0.964008 0.124242
H3    H     H_    0.945477 0.643673 0.762991 0.135266
H4    H     H_    0.054529 0.356300 0.237005 0.135270
N1    N     N_1   0.076820 0.499970 0.500010 -0.020657
N2    N     N_1   0.923180 0.500030 0.499990 -0.020658
N3    N     N_2   0.558345 0.536747 0.985356 -0.258388
N4    N     N_2   0.441653 0.463244 0.014644 -0.258387
N5    N     N_1   0.902880 0.591656 0.271909 -0.280453
N6    N     N_1   0.097127 0.408322 0.728091 -0.280455
N7    N     N_1   0.973758 0.441419 0.921545 -0.263740
N8    N     N_1   0.026240 0.558569 0.078455 -0.263743
O1    O     O_R   0.642760 0.288400 0.500000 -0.580990
O2    O     O_2   0.145483 0.720502 0.861891 -0.567611
O3    O     O_2   0.789460 0.729696 0.682752 -0.523860
O4    O     O_2   0.210541 0.270305 0.317254 -0.523861
O5    O     O_R   0.357240 0.711600 0.500000 -0.580989
O6    O     O_R   0.357190 0.288380 0.500000 -0.552914
O7    O     O_R   0.642810 0.711620 0.500000 -0.552917
O8    O     O_R   0.658410 0.498660 0.613920 -0.547460
O9    O     O_R   0.341590 0.501340 0.386080 -0.547452
O10   O     O_R   0.372840 0.498650 0.613930 -0.591819
O11   O     O_R   0.627160 0.501350 0.386070 -0.591820
O12   O     O_2   0.854510 0.279481 0.138108 -0.567613

loop_
_geom_bond_atom_site_label_1
_geom_bond_atom_site_label_2
_ccdc_geom_bond_type
Cu1   O8    S    
C2    C4    A    
C4    N4    S    
C11   N5    T    
C7    C22   A    
C9    C10   T    
Cu1   O1    S    
N3    N4    D    
C3    N3    S    
C7    C18   S    
C21   O9    A    
N1    N2    T    
C18   O3    D    
Cu2   O6    S    
C13   N6    T    
C20   O8    A    
C10   C12   S    
C12   O7    A    
C6    C8    A    
C19   H4    S    
C1    O1    A    
C20   C22   S    
Cu2   N1    S    
C2    C25   A    
C21   C23   S    
Cu1   N2    S    
C2    C14   S    
C22   C24   A    
Cu2   O5    S    
C8    C19   S    
C11   C25   S    
C16   N7    T    
C21   O11   A    
C8    C23   A    
C1    C9    S    
C19   O4    D    
C13   C24   S    
C15   H2    S    
C4    C6    A    
C23   C25   A    
Cu2   O9    S    
Cu1   O7    S    
Cu1   Cu2   S    
C5    C7    A    
C6    C17   S    
C5    C16   S    
C20   O10   A    
C18   H3    S    
C14   H1    S    
C1    O6    A    
C3    C5    A    
Cu2   O10   S    
C3    C26   A    
C14   O12   D    
C24   C26   A    
C15   O2    D    
Cu1   O11   S    
C12   O5    A    
C15   C26   S    
C17   N8    T    
