data_mof_unit_14278.cif
_audit_creation_date              2012-12-11T17:00:16-0500
_audit_creation_method            fapswitch 2.2
_symmetry_space_group_name_H-M    P1
_symmetry_Int_Tables_number       1
_space_group_crystal_system       triclinic
_cell_length_a                    6.975773
_cell_length_b                    13.600046
_cell_length_c                    20.217909
_cell_angle_alpha                 102.92863
_cell_angle_beta                  89.643695
_cell_angle_gamma                 90.687614
_cell_volume                      1869.31846485

loop_
_atom_site_label
_atom_site_type_symbol
_atom_type_description
_atom_site_fract_x
_atom_site_fract_y
_atom_site_fract_z
_atom_type_partial_charge
O1    O     O_R   0.506770 0.599700 0.449550 -0.537472
O2    O     O_R   0.179980 0.595740 0.587960 -0.547014
O3    O     O_R   0.004580 0.400300 0.550450 -0.534208
C1    C     C_R   0.348170 0.617967 0.614881 0.685282
O4    O     O_R   0.177380 0.611700 0.452380 -0.542333
O5    O     O_R   0.001970 0.416370 0.413900 -0.541901
C2    C     C_R   0.347966 0.638353 0.435752 0.695328
O6    O     O_R   0.509390 0.583630 0.586100 -0.541719
O7    O     O_3   0.337530 0.435890 0.487530 -0.368827
V1    V     V_3+5 0.064660 0.511890 0.502310 1.394354
O8    O     O_R   0.671950 0.404260 0.412040 -0.545074
C3    C     C_R   0.840728 0.383505 0.384670 0.686128
O9    O     O_R   0.674540 0.388300 0.547620 -0.543113
C4    C     C_R   0.842927 0.361496 0.564058 0.696169
V2    V     V_3+5 0.564030 0.488110 0.497690 1.396891
O10   O     O_3   0.841030 0.564110 0.512470 -0.376427
C5    C     C_R   0.945599 0.116937 0.612038 -0.167545
H1    H     H_    0.935757 0.166036 0.518444 0.101519
H2    H     H_    0.011715 0.998287 0.696578 0.121270
H3    H     H_    0.991068 0.041775 0.587071 0.111459
C6    C     C_R   0.854029 0.284285 0.603737 -0.033609
C7    C     C_R   0.801841 0.313190 0.930570 -0.164755
C8    C     C_R   0.770664 0.388964 0.894964 0.195927
C9    C     C_R   0.794259 0.366132 0.824279 -0.226965
C10   C     C_R   0.847767 0.268694 0.787883 0.057543
C11   C     C_R   0.883745 0.193778 0.825334 0.067990
C12   C     C_R   0.865477 0.242911 0.715501 0.085193
C13   C     C_R   0.924116 0.143996 0.682855 0.142733
C14   C     C_R   0.963145 0.072964 0.721004 -0.208020
C15   C     C_R   0.941359 0.096857 0.790939 -0.193034
C16   C     C_R   0.828809 0.311869 0.674119 -0.214856
C17   C     C_R   0.912705 0.187053 0.572821 -0.174860
C18   C     C_R   0.858773 0.216801 0.896584 -0.123168
H4    H     H_    0.785670 0.388427 0.694744 0.093821
H5    H     H_    0.780915 0.327634 0.984944 0.112941
H6    H     H_    0.768617 0.426750 0.799245 0.105909
H7    H     H_    0.971656 0.038514 0.817909 0.114833
C19   C     C_R   0.724376 0.173333 0.231770 0.056220
C20   C     C_R   0.865683 0.184053 0.184132 -0.095760
C21   C     C_R   0.013867 0.255057 0.207056 -0.177733
H8    H     H_    0.130863 0.264097 0.173439 0.120747
C22   C     C_R   0.006870 0.319445 0.272406 -0.168627
H9    H     H_    0.118536 0.376012 0.286958 0.118257
C23   C     C_R   0.852606 0.313817 0.317074 -0.125356
C24   C     C_R   0.719475 0.235561 0.296191 0.040579
C25   C     C_3   0.506454 0.230838 0.301278 -0.026895
C26   C     C_3   0.510308 0.164839 0.228980 -0.408898
H10   H     H_    0.438579 0.305485 0.305188 0.141671
H11   H     H_    0.449614 0.202793 0.190667 0.156651
H12   H     H_    0.457113 0.086735 0.225181 0.174379
C27   C     C_R   0.514424 0.695641 0.724215 0.086854
C28   C     C_R   0.352044 0.684476 0.683854 -0.090185
C29   C     C_R   0.192266 0.741366 0.710622 -0.196388
H13   H     H_    0.073120 0.741513 0.678023 0.129018
C30   C     C_R   0.194583 0.805515 0.775817 -0.187169
H14   H     H_    0.075015 0.854574 0.792157 0.130372
C31   C     C_R   0.357098 0.812478 0.817284 -0.095620
C32   C     C_R   0.515613 0.754169 0.790640 0.065711
C33   C     C_3   0.714774 0.790667 0.783177 -0.412647
C34   C     C_3   0.707487 0.733356 0.709436 -0.040210
H15   H     H_    0.814756 0.757113 0.814403 0.149331
H16   H     H_    0.727082 0.874055 0.791272 0.174914
H17   H     H_    0.807492 0.668843 0.697914 0.108698
C35   C     C_R   0.542805 0.863027 0.379711 -0.164367
H18   H     H_    0.525260 0.818123 0.474507 0.108763
H19   H     H_    0.666689 0.961940 0.288718 0.120844
H20   H     H_    0.630706 0.928642 0.400951 0.108653
C36   C     C_R   0.369436 0.715174 0.395817 -0.040849
C37   C     C_R   0.241726 0.695019 0.073195 -0.163402
C38   C     C_R   0.192706 0.624428 0.110712 -0.118599
C39   C     C_R   0.239096 0.641507 0.179262 -0.159596
C40   C     C_R   0.342583 0.729098 0.211631 0.079567
C41   C     C_R   0.406189 0.797020 0.171280 0.071915
C42   C     C_R   0.383838 0.752110 0.282668 0.069857
C43   C     C_R   0.498403 0.838571 0.310404 0.148496
C44   C     C_R   0.571596 0.898966 0.268631 -0.211575
C45   C     C_R   0.523828 0.879667 0.200526 -0.217360
C46   C     C_R   0.317912 0.691875 0.327203 -0.221060
C47   C     C_R   0.480561 0.801139 0.421880 -0.169896
C48   C     C_R   0.347482 0.781632 0.102706 -0.094691
H21   H     H_    0.234740 0.623819 0.309731 0.097914
H22   H     H_    0.194983 0.682661 0.020926 0.111517
H23   H     H_    0.192624 0.584392 0.205270 0.104213
H24   H     H_    0.113451 0.557034 0.086951 0.115269
H25   H     H_    0.582695 0.929796 0.170882 0.138863
O11   O     O_R   0.203450 0.916320 0.913910 -0.543415
O12   O     O_R   0.535520 0.888300 0.047620 -0.544609
O13   O     O_R   0.710860 0.083650 0.086100 -0.540557
C49   C     C_R   0.365439 0.861518 0.064391 0.690242
O14   O     O_R   0.532860 0.904250 0.912040 -0.541115
O15   O     O_R   0.708190 0.099710 0.949550 -0.536223
C50   C     C_R   0.364690 0.883059 0.884733 0.691883
O16   O     O_R   0.206120 0.900260 0.050460 -0.534231
O17   O     O_3   0.375280 0.064080 0.012470 -0.370454
V3    V     V_3+5 0.648180 0.988110 0.997690 1.407031
O18   O     O_R   0.038220 0.111740 0.952370 -0.542075
C51   C     C_R   0.869817 0.138450 0.935841 0.695153
O19   O     O_R   0.040880 0.095790 0.087940 -0.542825
C52   C     C_R   0.872120 0.117479 0.115110 0.689975
V4    V     V_3+5 0.148800 0.011950 0.002300 1.409293
O20   O     O_3   0.871820 0.935920 0.987530 -0.371018
C53   C     C_3   0.444664 0.175788 0.356903 -0.310598
C54   C     C_3   0.229021 0.156857 0.357246 -0.736634
H26   H     H_    0.154084 0.229438 0.374300 0.232883
H27   H     H_    0.177722 0.118088 0.306050 0.237488
H28   H     H_    0.193951 0.108662 0.393429 0.204416
H29   H     H_    0.519015 0.102654 0.350435 0.174226
H30   H     H_    0.486625 0.222452 0.407261 0.186278
C55   C     C_3   0.716062 0.801694 0.656744 -0.305643
C56   C     C_3   0.559805 0.881673 0.661428 -0.717450
H31   H     H_    0.425093 0.847609 0.637521 0.209208
H32   H     H_    0.531240 0.921872 0.714505 0.235617
H33   H     H_    0.607445 0.938549 0.632849 0.203731
H34   H     H_    0.854418 0.843133 0.662419 0.157243
H35   H     H_    0.714877 0.753008 0.604749 0.183585
C57   C     C_3   0.710011 0.495306 0.929106 -0.362478
C58   C     C_3   0.671477 0.514300 0.005463 -0.757841
H36   H     H_    0.553821 0.464265 0.016186 0.227273
H37   H     H_    0.803155 0.501927 0.032881 0.216604
H38   H     H_    0.627238 0.593813 0.024571 0.229908
H39   H     H_    0.823460 0.549071 0.920256 0.174590
H40   H     H_    0.576792 0.513112 0.904423 0.177760

loop_
_geom_bond_atom_site_label_1
_geom_bond_atom_site_label_2
_ccdc_geom_bond_type
C30   H14   S    
H18   C47   S    
C31   C50   S    
C1    O6    A    
O14   V3    S    
C26   H11   S    
C29   H13   S    
C23   C24   A    
C7    H5    S    
C6    C16   A    
C9    H6    S    
C57   H40   S    
C1    C28   S    
C34   H17   S    
C4    C6    S    
C13   C14   A    
C58   H37   S    
O5    C3    A    
C19   C20   A    
V2    O10   S    
C5    H3    S    
C57   C58   S    
C48   C49   S    
C56   H31   S    
C19   C24   A    
C34   C55   S    
C53   C54   S    
C2    C36   S    
O14   C50   A    
C35   C43   A    
O12   V3    S    
C8    C9    A    
C53   H30   S    
C38   C39   A    
C37   H22   S    
C38   H24   S    
O7    V1    S    
C36   C47   A    
C21   C22   A    
C8    C57   S    
O13   V3    S    
C45   H25   S    
C33   C34   S    
O9    C4    A    
C49   O16   A    
C37   C38   A    
C22   C23   A    
C26   H12   S    
C39   H23   S    
C29   C30   A    
C36   C46   A    
C6    C17   A    
C25   H10   S    
C33   H15   S    
C42   C43   A    
C12   C16   A    
C27   C28   A    
C35   H20   S    
C9    C10   A    
C40   C42   A    
C57   H39   S    
C58   H38   S    
C20   C21   A    
O4    C2    A    
C10   C11   A    
C24   C25   S    
O15   C51   A    
C15   H7    S    
O2    C1    A    
C43   C44   A    
C30   C31   A    
C14   C15   A    
C25   C53   S    
C11   C18   A    
C20   C52   S    
O16   V4    S    
O17   V4    S    
H19   C44   S    
O18   C51   A    
C16   H4    S    
C53   H29   S    
C54   H27   S    
C27   C32   A    
C44   C45   A    
C56   H33   S    
C19   C26   S    
O3    C4    A    
C55   H34   S    
O1    V2    S    
C21   H8    S    
C11   C15   A    
O6    V2    S    
O8    V2    S    
O9    V2    S    
C35   C47   A    
H1    C17   S    
C22   H9    S    
O2    V1    S    
C54   H26   S    
O11   V4    S    
C28   C29   A    
C7    C18   A    
C25   C26   S    
C33   H16   S    
O1    C2    A    
C5    C13   A    
C40   C41   A    
O5    V1    S    
O8    C3    A    
C10   C12   A    
O19   V4    S    
O12   C49   A    
C32   C33   S    
O4    V1    S    
C3    C23   S    
O3    V1    S    
V1    O10   S    
C58   H36   S    
C46   H21   S    
C31   C32   A    
O18   V4    S    
V4    O20   S    
C41   C48   A    
C54   H28   S    
C18   C51   S    
O7    V2    S    
O17   V3    S    
C56   H32   S    
O13   C52   A    
C55   H35   S    
O15   V3    S    
C39   C40   A    
O19   C52   A    
C42   C46   A    
C12   C13   A    
C5    C17   A    
C41   C45   A    
C7    C8    A    
C37   C48   A    
O11   C50   A    
C27   C34   S    
C55   C56   S    
V3    O20   S    
H2    C14   S    
