data_mof_unit_58880.cif
_audit_creation_date              2012-12-11T16:28:25-0500
_audit_creation_method            fapswitch 2.2
_symmetry_space_group_name_H-M    P1
_symmetry_Int_Tables_number       1
_space_group_crystal_system       triclinic
_cell_length_a                    16.600992
_cell_length_b                    7.251638
_cell_length_c                    15.152938
_cell_angle_alpha                 90.005483
_cell_angle_beta                  94.734094
_cell_angle_gamma                 89.989982
_cell_volume                      1817.95381294

loop_
_atom_site_label
_atom_site_type_symbol
_atom_type_description
_atom_site_fract_x
_atom_site_fract_y
_atom_site_fract_z
_atom_type_partial_charge
O1    O     O_R   0.663460 0.361760 0.165970 -0.533707
O2    O     O_R   0.336540 0.638240 0.834030 -0.533706
O3    O     O_R   0.836540 0.861760 0.334030 -0.533532
O4    O     O_R   0.163460 0.138240 0.665970 -0.533532
O5    O     O_R   0.827100 0.689870 0.163730 -0.533435
O6    O     O_R   0.172900 0.310130 0.836270 -0.533435
O7    O     O_R   0.672900 0.189870 0.336270 -0.533831
O8    O     O_R   0.327100 0.810130 0.663730 -0.533831
H1    H     H_    0.210406 0.036395 0.496628 0.135123
H2    H     H_    0.789594 0.963605 0.503372 0.135123
H3    H     H_    0.290167 0.554858 0.001508 0.136893
H4    H     H_    0.709833 0.445142 0.998492 0.136893
C1    C     C_R   0.853334 0.522968 0.143642 0.703067
C2    C     C_R   0.146666 0.477032 0.856358 0.703066
C3    C     C_R   0.646663 0.022998 0.356356 0.702291
C4    C     C_R   0.353337 0.977001 0.643644 0.702290
O9    O     O_R   0.663490 0.691370 0.155500 -0.535388
O10   O     O_R   0.336510 0.308630 0.844500 -0.535388
O11   O     O_R   0.836510 0.191370 0.344500 -0.535261
O12   O     O_R   0.163490 0.808630 0.655500 -0.535261
O13   O     O_R   0.671770 0.863320 0.325740 -0.528052
O14   O     O_R   0.328230 0.136680 0.674260 -0.528052
O15   O     O_R   0.828230 0.363320 0.174260 -0.527462
O16   O     O_R   0.171770 0.636680 0.825740 -0.527461
C5    C     C_R   0.636377 0.522800 0.133462 0.663243
C6    C     C_R   0.363623 0.477200 0.866538 0.663243
C7    C     C_R   0.863528 0.022807 0.366654 0.663606
C8    C     C_R   0.136472 0.977193 0.633346 0.663605
O17   O     O_3   0.752910 0.528800 0.305860 -0.373369
O18   O     O_3   0.247090 0.471200 0.694140 -0.373369
O19   O     O_3   0.747090 0.028800 0.194140 -0.372793
O20   O     O_3   0.252910 0.971200 0.805860 -0.372792
V1    V     V_3+5 0.749460 0.803010 0.239640 1.474975
V2    V     V_3+5 0.250540 0.196990 0.760360 1.474975
V3    V     V_3+5 0.750540 0.303010 0.260360 1.474833
V4    V     V_3+5 0.249460 0.696990 0.739640 1.474833
C9    C     C_1   0.468914 0.994578 0.530206 0.166389
C10   C     C_1   0.531086 0.005422 0.469794 0.166389
C11   C     C_1   0.031082 0.494646 0.969788 0.161557
C12   C     C_1   0.968918 0.505354 0.030212 0.161556
C13   C     C_R   0.028126 0.066531 0.321085 -0.129003
C14   C     C_R   0.971874 0.933469 0.678915 -0.129003
C15   C     C_R   0.472126 0.581991 0.177540 -0.129458
C16   C     C_R   0.527874 0.418009 0.822460 -0.129458
C17   C     C_R   0.106820 0.086658 0.294717 -0.066573
C18   C     C_R   0.893180 0.913342 0.705283 -0.066573
C19   C     C_R   0.393609 0.610373 0.203106 -0.068869
C20   C     C_R   0.606391 0.389627 0.796894 -0.068869
C21   C     C_R   0.173135 0.077513 0.359394 -0.047339
C22   C     C_R   0.826865 0.922486 0.640606 -0.047340
C23   C     C_R   0.327486 0.603010 0.138138 -0.048439
C24   C     C_R   0.672514 0.396990 0.861862 -0.048439
C25   C     C_R   0.158869 0.043511 0.448118 -0.119259
C26   C     C_R   0.841131 0.956489 0.551882 -0.119259
C27   C     C_R   0.341617 0.561191 0.050148 -0.120781
C28   C     C_R   0.658383 0.438808 0.949852 -0.120781
C29   C     C_R   0.079925 0.021593 0.474926 0.033452
C30   C     C_R   0.920074 0.978407 0.525074 0.033452
C31   C     C_R   0.420323 0.530387 0.024215 0.033956
C32   C     C_R   0.579677 0.469613 0.975785 0.033956
C33   C     C_R   0.013258 0.034417 0.410248 0.033672
C34   C     C_R   0.986742 0.965583 0.589752 0.033672
C35   C     C_R   0.486917 0.542682 0.089002 0.033938
C36   C     C_R   0.513083 0.457318 0.910998 0.033938
C37   C     C_R   0.066843 0.987072 0.564882 -0.145710
C38   C     C_R   0.933157 0.012928 0.435118 -0.145710
C39   C     C_R   0.433209 0.487245 0.935049 -0.146272
C40   C     C_R   0.566791 0.512755 0.064951 -0.146272
C41   C     C_1   0.416127 0.985964 0.581623 -0.100248
C42   C     C_1   0.583873 0.014036 0.418377 -0.100247
C43   C     C_1   0.083870 0.486057 0.918373 -0.100718
C44   C     C_1   0.916130 0.513942 0.081627 -0.100717
H5    H     H_    0.978182 0.073513 0.270571 0.148765
H6    H     H_    0.021818 0.926487 0.729429 0.148765
H7    H     H_    0.521941 0.587936 0.228234 0.149169
H8    H     H_    0.478059 0.412064 0.771766 0.149169
C45   C     C_2   0.117935 0.110463 0.198867 0.407249
H9    H     H_    0.176448 0.091430 0.173513 0.037402
O21   O     O_2   0.060885 0.149224 0.146032 -0.520763
C46   C     C_2   0.882065 0.889537 0.801133 0.407249
H10   H     H_    0.823552 0.908570 0.826487 0.037402
O22   O     O_2   0.939115 0.850776 0.853968 -0.520763
C47   C     C_2   0.382332 0.640293 0.298536 0.407085
H11   H     H_    0.323185 0.631079 0.323391 0.045508
O23   O     O_2   0.439921 0.672860 0.351685 -0.522814
C48   C     C_2   0.617668 0.359707 0.701464 0.407085
H12   H     H_    0.676815 0.368921 0.676609 0.045508
O24   O     O_2   0.560079 0.327140 0.648314 -0.522814
C49   C     C_2   0.742398 0.891352 0.663253 0.321064
H13   H     H_    0.729801 0.825853 0.724829 0.039393
O25   O     O_2   0.685047 0.936539 0.612217 -0.531872
C50   C     C_2   0.257602 0.108647 0.336747 0.321064
H14   H     H_    0.270199 0.174147 0.275170 0.039394
O26   O     O_2   0.314953 0.063461 0.387783 -0.531872
C51   C     C_2   0.756568 0.356372 0.840347 0.332421
H15   H     H_    0.768371 0.284677 0.780072 0.031209
O27   O     O_2   0.814415 0.400397 0.890950 -0.531311
C52   C     C_2   0.243432 0.643628 0.159653 0.332421
H16   H     H_    0.231629 0.715324 0.219928 0.031208
O28   O     O_2   0.185585 0.599603 0.109050 -0.531311

loop_
_geom_bond_atom_site_label_1
_geom_bond_atom_site_label_2
_ccdc_geom_bond_type
C30   C34   A    
C16   C20   A    
C10   C42   T    
C27   C31   A    
C2    C43   S    
C51   H15   S    
O10   C6    A    
C13   C33   A    
C15   C35   A    
C45   H9    S    
C16   C36   A    
C22   C26   A    
C6    C39   S    
C9    C41   T    
C14   C18   A    
C48   O24   D    
O13   V1    S    
O3    V1    S    
C1    O15   A    
C24   C51   S    
O8    V4    S    
C2    O16   A    
C16   H8    S    
C31   C39   A    
C33   C38   A    
C30   C38   A    
O5    V1    S    
O19   V1    S    
C19   C47   S    
C49   O25   D    
O11   C7    A    
C14   C34   A    
O5    C1    A    
C23   C52   S    
O7    C3    A    
O8    C4    A    
C11   C43   T    
O1    C5    A    
C5    C40   S    
O9    V1    S    
O4    C8    A    
C45   O21   D    
C15   H7    S    
O14   V2    S    
O4    V2    S    
C14   H6    S    
C36   C39   A    
C46   O22   D    
C11   C12   S    
C25   C29   A    
C48   H12   S    
C19   C23   A    
O12   C8    A    
C28   C32   A    
O20   V2    S    
C9    C10   S    
O6    C2    A    
C22   C49   S    
C47   H11   S    
C17   C21   A    
C50   O26   D    
O2    C6    A    
O16   V4    S    
O10   V2    S    
H4    C28   S    
C47   O23   D    
C52   O28   D    
C20   C48   S    
H1    C25   S    
C21   C50   S    
H3    C27   S    
O1    V3    S    
C26   C30   A    
O2    V4    S    
C3    C42   S    
O17   V3    S    
C35   C40   A    
C4    O14   A    
C12   C44   T    
C34   C37   A    
O7    V3    S    
C4    C41   S    
C29   C37   A    
C46   H10   S    
C51   O27   D    
C29   C33   A    
C1    C44   S    
C18   C22   A    
C31   C35   A    
O18   V4    S    
C32   C36   A    
O9    C5    A    
O3    C7    A    
C8    C37   S    
C7    C38   S    
O11   V3    S    
C18   C46   S    
C3    O13   A    
C21   C25   A    
C50   H14   S    
C23   C27   A    
H2    C26   S    
O15   V3    S    
C13   H5    S    
O12   V4    S    
O6    V2    S    
C20   C24   A    
C32   C40   A    
C52   H16   S    
C13   C17   A    
C17   C45   S    
C49   H13   S    
C15   C19   A    
C24   C28   A    
