data_mof_unit_48308.cif
_audit_creation_date              2013-03-05T16:26:55-0500
_audit_creation_method            fapswitch 2.2
_symmetry_space_group_name_H-M    P1
_symmetry_Int_Tables_number       1
_space_group_crystal_system       triclinic
_cell_length_a                    19.320216
_cell_length_b                    18.454328
_cell_length_c                    15.059275
_cell_angle_alpha                 89.388824
_cell_angle_beta                  91.812219
_cell_angle_gamma                 89.83786
_cell_volume                      5366.24029459

loop_
_atom_site_label
_atom_site_type_symbol
_atom_site_description
_atom_site_fract_x
_atom_site_fract_y
_atom_site_fract_z
_atom_type_partial_charge
O1    O     O_R   0.400190 0.561980 0.499990 -0.583083
O2    O     O_R   0.599810 0.438020 0.500010 -0.588900
O3    O     O_R   0.599810 0.561980 0.500010 -0.583552
O4    O     O_R   0.400190 0.438020 0.499990 -0.586363
C1    C     C_R   0.368134 0.500194 0.498288 0.829746
C2    C     C_R   0.631790 0.500018 0.499951 0.829828
O5    O     O_R   0.499980 0.561960 0.370260 -0.579296
O6    O     O_R   0.500020 0.438040 0.629740 -0.584734
O7    O     O_R   0.500020 0.561960 0.629740 -0.584981
O8    O     O_R   0.499980 0.438040 0.370260 -0.589594
C3    C     C_R   0.502128 0.500231 0.329299 0.819216
C4    C     C_R   0.499160 0.499439 0.670501 0.829419
Cu1   Cu    Cu3+1 0.500000 0.573360 0.500000 0.927210
Cu2   Cu    Cu3+1 0.500000 0.426640 0.500000 0.926006
C5    C     C_R   0.561440 0.488751 0.814668 0.110351
C6    C     C_R   0.444963 0.519441 0.182949 0.099214
C7    C     C_R   0.498231 0.496696 0.767001 -0.073879
C8    C     C_R   0.504932 0.499747 0.232435 -0.076103
C9    C     C_R   0.434559 0.495504 0.810284 0.069808
C10   C     C_R   0.565043 0.475411 0.189976 0.073084
C11   C     C_R   0.435293 0.499538 0.904544 -0.031870
C12   C     C_R   0.565555 0.476631 0.095175 -0.028150
C13   C     C_R   0.499276 0.488212 0.952680 -0.101983
C14   C     C_R   0.501815 0.489176 0.046768 -0.100990
C15   C     C_R   0.560656 0.474738 0.906876 0.052722
C16   C     C_R   0.440277 0.502586 0.092200 0.055356
C17   C     C_R   0.374031 0.509741 0.952932 0.444058
C18   C     C_R   0.625737 0.460365 0.046549 0.444779
C19   C     C_R   0.376041 0.500322 0.045071 0.077101
C20   C     C_R   0.619538 0.448613 0.954991 0.082503
C21   C     C_R   0.747231 0.464161 0.559264 -0.335233
C22   C     C_R   0.257154 0.546790 0.548853 -0.329412
C23   C     C_R   0.257563 0.460781 0.428940 -0.339907
C24   C     C_R   0.737019 0.541003 0.428448 -0.346493
H1    H     H_    0.722102 0.435595 0.612217 0.144401
H2    H     H_    0.285715 0.577581 0.598260 0.153903
H3    H     H_    0.286872 0.428999 0.383300 0.144663
H4    H     H_    0.704190 0.568158 0.378945 0.157188
C25   C     C_R   0.819799 0.466200 0.556137 0.449895
C26   C     C_R   0.184936 0.551808 0.542199 0.430847
C27   C     C_R   0.184932 0.463180 0.421740 0.451822
C28   C     C_R   0.809177 0.545268 0.424128 0.432944
C29   C     C_R   0.850639 0.506696 0.487637 0.045306
C30   C     C_R   0.148548 0.508404 0.479581 0.041820
C31   C     C_R   0.706575 0.500890 0.495474 -0.120266
C32   C     C_R   0.293008 0.501396 0.493095 -0.128337
C33   C     C_R   0.963083 0.573529 0.480521 0.331431
C34   C     C_R   0.036185 0.442203 0.487569 0.323827
C35   C     C_R   0.034566 0.573127 0.466228 0.324868
C36   C     C_R   0.963626 0.441664 0.478802 0.324916
C37   C     C_R   0.072010 0.507958 0.476956 -0.137808
C38   C     C_R   0.926854 0.507486 0.481951 -0.140464
C39   C     C_R   0.442011 0.724634 0.474479 0.336779
C40   C     C_R   0.527182 0.276451 0.571583 0.344712
C41   C     C_R   0.558817 0.722134 0.526210 0.343734
C42   C     C_R   0.473645 0.277925 0.427849 0.345007
C43   C     C_R   0.441532 0.800723 0.483272 -0.275965
C44   C     C_R   0.521193 0.200243 0.574445 -0.278137
C45   C     C_R   0.562528 0.797979 0.513822 -0.283882
C46   C     C_R   0.482055 0.202099 0.423378 -0.280888
H5    H     H_    0.393123 0.829881 0.474253 0.158646
H6    H     H_    0.534911 0.171508 0.635479 0.161198
H7    H     H_    0.611845 0.824757 0.523736 0.159637
H8    H     H_    0.468926 0.174962 0.361834 0.162230
C47   C     C_R   0.502765 0.839410 0.497607 0.075282
C48   C     C_R   0.502117 0.161154 0.498527 0.072336
N1    N     N_R   0.500000 0.683620 0.500000 -0.167530
N2    N     N_R   0.500000 0.316380 0.500000 -0.167926
C49   C     C_R   0.547052 0.961811 0.557269 0.139667
C50   C     C_R   0.451156 0.038564 0.449794 0.140645
C51   C     C_R   0.460231 0.963033 0.436828 0.137273
C52   C     C_R   0.555088 0.037790 0.545138 0.139590
C53   C     C_R   0.502801 0.078538 0.497812 0.031152
C54   C     C_R   0.503671 0.922047 0.497030 0.029487
C55   C     C_3   0.628641 0.501003 0.767033 -0.888336
H9    H     H_    0.672015 0.515215 0.813218 0.236924
H10   H     H_    0.641855 0.452313 0.728564 0.221586
H11   H     H_    0.623653 0.547956 0.720853 0.222523
C56   C     C_3   0.390920 0.566438 0.225476 -0.876564
H12   H     H_    0.351426 0.588405 0.177728 0.237092
H13   H     H_    0.365121 0.536254 0.279333 0.222016
H14   H     H_    0.416987 0.615203 0.252379 0.239585
C57   C     C_3   0.582313 0.926338 0.637933 -0.872249
H15   H     H_    0.578861 0.962335 0.696252 0.238420
H16   H     H_    0.556436 0.875370 0.657662 0.238972
H17   H     H_    0.637775 0.915955 0.625616 0.227072
C58   C     C_3   0.384069 0.073260 0.415843 -0.874795
H18   H     H_    0.339970 0.036551 0.428662 0.237078
H19   H     H_    0.372236 0.123975 0.451211 0.237769
H20   H     H_    0.385701 0.083942 0.343281 0.229372
C59   C     C_3   0.425704 0.929242 0.355591 -0.870524
H21   H     H_    0.430628 0.965950 0.297237 0.238334
H22   H     H_    0.451037 0.877846 0.337001 0.239092
H23   H     H_    0.369884 0.919879 0.366482 0.227066
C60   C     C_3   0.621628 0.072391 0.579457 -0.873799
H24   H     H_    0.666273 0.036424 0.566458 0.237478
H25   H     H_    0.632649 0.124067 0.544509 0.238417
H26   H     H_    0.619788 0.081438 0.652075 0.228180
C61   C     C_3   0.367782 0.485148 0.755633 -0.774657
H27   H     H_    0.376304 0.459539 0.690729 0.209307
H28   H     H_    0.332705 0.447095 0.789581 0.262487
H29   H     H_    0.342153 0.538031 0.742172 0.215773
C62   C     C_3   0.627057 0.448106 0.245730 -0.776279
H30   H     H_    0.616658 0.438455 0.316441 0.220775
H31   H     H_    0.644733 0.394986 0.220878 0.262044
H32   H     H_    0.669192 0.488497 0.245235 0.220511
O9    O     O_3   0.310551 0.525816 0.911971 -0.611476
C63   C     C_3   0.305731 0.601329 0.894378 0.058744
H33   H     H_    0.267587 0.608684 0.838517 0.168326
H34   H     H_    0.355404 0.625271 0.872276 0.129821
C64   C     C_3   0.278897 0.642638 0.974155 -0.363482
H35   H     H_    0.230125 0.617399 0.996266 0.228026
H36   H     H_    0.318026 0.640350 0.029684 0.210958
C65   C     C_3   0.264545 0.721962 0.950482 -0.920557
H37   H     H_    0.312199 0.748452 0.926743 0.256742
H38   H     H_    0.247217 0.750818 0.010213 0.257849
H39   H     H_    0.223012 0.726169 0.897989 0.259115
O10   O     O_3   0.690528 0.450692 0.087204 -0.615047
C66   C     C_3   0.725856 0.518013 0.091500 0.042580
H40   H     H_    0.762589 0.515035 0.149722 0.178923
H41   H     H_    0.690611 0.564817 0.103053 0.123747
C67   C     C_3   0.768021 0.531708 0.008424 -0.352341
H42   H     H_    0.799690 0.482978 0.994644 0.232229
H43   H     H_    0.732324 0.543024 0.950825 0.209034
C68   C     C_3   0.816222 0.596470 0.019675 -0.927675
H44   H     H_    0.786137 0.645883 0.035184 0.258298
H45   H     H_    0.843659 0.606241 0.956986 0.258446
H46   H     H_    0.855474 0.585478 0.073638 0.257614
C69   C     C_3   0.310031 0.476980 0.088943 -0.802180
H47   H     H_    0.285276 0.432611 0.050219 0.242756
H48   H     H_    0.320435 0.454783 0.156753 0.225564
H49   H     H_    0.272681 0.522429 0.092058 0.228234
C70   C     C_3   0.669643 0.396047 0.914296 -0.814870
H50   H     H_    0.681045 0.350410 0.961245 0.245193
H51   H     H_    0.646949 0.371196 0.853277 0.235647
H52   H     H_    0.719117 0.422497 0.898653 0.224556
O11   O     O_3   0.862151 0.436446 0.623791 -0.617658
C71   C     C_3   0.842037 0.365451 0.648681 0.122198
H53   H     H_    0.888826 0.330366 0.648073 0.164607
H54   H     H_    0.803698 0.339909 0.601781 0.137760
C72   C     C_3   0.815561 0.365636 0.743443 -0.384244
H55   H     H_    0.858277 0.381906 0.790176 0.226080
H56   H     H_    0.772955 0.405655 0.748718 0.219627
C73   C     C_3   0.789289 0.290983 0.770566 -0.936587
H57   H     H_    0.744240 0.275363 0.727319 0.255579
H58   H     H_    0.772741 0.292169 0.840449 0.265454
H59   H     H_    0.830976 0.249817 0.765315 0.257108
O12   O     O_3   0.149011 0.593105 0.602282 -0.612932
C74   C     C_3   0.168629 0.667184 0.597968 0.132318
H60   H     H_    0.120684 0.699977 0.588008 0.179810
H61   H     H_    0.202301 0.681141 0.541291 0.130377
C75   C     C_3   0.203612 0.690202 0.685702 -0.397514
H62   H     H_    0.168631 0.678593 0.741267 0.228663
H63   H     H_    0.252280 0.659257 0.697491 0.203737
C76   C     C_3   0.220947 0.770830 0.684521 -0.932260
H64   H     H_    0.256427 0.783389 0.629820 0.257804
H65   H     H_    0.246984 0.785772 0.748466 0.261855
H66   H     H_    0.172936 0.803688 0.675424 0.255132
O13   O     O_3   0.148471 0.428723 0.353109 -0.617535
C77   C     C_3   0.168468 0.355256 0.343944 0.123606
H67   H     H_    0.120623 0.321989 0.343763 0.172631
H68   H     H_    0.202100 0.333650 0.399831 0.137660
C78   C     C_3   0.203058 0.344942 0.254883 -0.380323
H69   H     H_    0.166324 0.361222 0.199906 0.231227
H70   H     H_    0.249481 0.379882 0.251222 0.213923
C79   C     C_3   0.224819 0.266268 0.242390 -0.932920
H71   H     H_    0.262207 0.249123 0.296164 0.254673
H72   H     H_    0.250062 0.260716 0.177577 0.262116
H73   H     H_    0.178855 0.230265 0.243036 0.256039
O14   O     O_3   0.840123 0.580522 0.353653 -0.616442
C80   C     C_3   0.816323 0.653070 0.343270 0.127809
H74   H     H_    0.862441 0.688887 0.343119 0.179576
H75   H     H_    0.783816 0.672528 0.398299 0.131889
C81   C     C_3   0.777643 0.662392 0.253734 -0.403558
H76   H     H_    0.813743 0.650542 0.199941 0.228813
H77   H     H_    0.733829 0.623801 0.248645 0.208239
C82   C     C_3   0.749675 0.739299 0.241058 -0.919656
H78   H     H_    0.712125 0.751817 0.293169 0.259160
H79   H     H_    0.722791 0.744330 0.174998 0.258279
H80   H     H_    0.792733 0.779038 0.244377 0.253971
O15   O     O_3   0.927856 0.638576 0.487148 -0.607510
C83   C     C_3   0.940631 0.668780 0.572098 0.061031
H81   H     H_    0.930780 0.728003 0.566014 0.159287
H82   H     H_    0.995479 0.662475 0.596386 0.163922
C84   C     C_3   0.891412 0.636813 0.640146 -0.367221
H83   H     H_    0.837122 0.640603 0.613607 0.225193
H84   H     H_    0.904412 0.578830 0.652372 0.241753
C85   C     C_3   0.897271 0.676554 0.728350 -0.914326
H85   H     H_    0.951236 0.673405 0.756017 0.258372
H86   H     H_    0.862179 0.651037 0.776591 0.259285
H87   H     H_    0.882120 0.734339 0.718990 0.252199
O16   O     O_3   0.072373 0.377820 0.500146 -0.607007
C86   C     C_3   0.067514 0.353527 0.589226 0.064844
H88   H     H_    0.076072 0.293973 0.589919 0.161000
H89   H     H_    0.015360 0.362539 0.616895 0.163984
C87   C     C_3   0.123507 0.388715 0.648792 -0.371133
H90   H     H_    0.174946 0.381796 0.618839 0.230048
H91   H     H_    0.112555 0.447559 0.654330 0.239232
C88   C     C_3   0.125656 0.355264 0.741895 -0.900727
H92   H     H_    0.074898 0.362370 0.773415 0.255987
H93   H     H_    0.166188 0.382453 0.783392 0.269253
H94   H     H_    0.138221 0.296585 0.738941 0.251018
O17   O     O_3   0.068662 0.637328 0.448948 -0.613885
C89   C     C_3   0.057232 0.658024 0.358899 0.060665
H95   H     H_    0.063560 0.717760 0.354696 0.161479
H96   H     H_    0.003656 0.646311 0.333150 0.159747
C90   C     C_3   0.110823 0.622384 0.300208 -0.366591
H97   H     H_    0.163739 0.631767 0.328893 0.226797
H98   H     H_    0.101510 0.563096 0.297951 0.243893
C91   C     C_3   0.106497 0.652620 0.205507 -0.915167
H99   H     H_    0.054197 0.642993 0.175223 0.258169
H100  H     H_    0.145494 0.625176 0.164790 0.257919
H101  H     H_    0.117311 0.711705 0.205252 0.252684
O18   O     O_3   0.928352 0.376486 0.474750 -0.603864
C92   C     C_3   0.930899 0.348193 0.387877 0.064845
H102  H     H_    0.922098 0.288864 0.393087 0.162537
H103  H     H_    0.982488 0.355151 0.357653 0.157174
C93   C     C_3   0.873659 0.381442 0.327138 -0.375165
H104  H     H_    0.823007 0.376851 0.359767 0.232674
H105  H     H_    0.884760 0.439688 0.315372 0.237852
C94   C     C_3   0.868896 0.343797 0.237490 -0.900414
H106  H     H_    0.918825 0.348455 0.203294 0.254144
H107  H     H_    0.827592 0.369809 0.195085 0.276685
H108  H     H_    0.855961 0.285637 0.246573 0.253090
C95   C     C_3   0.377127 0.693299 0.433413 -0.805523
H109  H     H_    0.389659 0.649314 0.387736 0.257811
H110  H     H_    0.341581 0.675975 0.485989 0.231614
H111  H     H_    0.348638 0.734211 0.391541 0.184682
C96   C     C_3   0.566855 0.309796 0.648252 -0.801831
H112  H     H_    0.598375 0.356031 0.626328 0.254781
H113  H     H_    0.531087 0.324919 0.701249 0.238020
H114  H     H_    0.604662 0.270433 0.678361 0.180073
C97   C     C_3   0.618946 0.689012 0.577880 -0.796704
H115  H     H_    0.601821 0.643925 0.620505 0.256691
H116  H     H_    0.660250 0.672811 0.532427 0.228359
H117  H     H_    0.642244 0.728903 0.624787 0.185945
C98   C     C_3   0.431814 0.312069 0.352441 -0.794141
H118  H     H_    0.401479 0.358963 0.374274 0.255416
H119  H     H_    0.465909 0.326465 0.297025 0.235856
H120  H     H_    0.392704 0.273245 0.325800 0.183784

loop_
_geom_bond_atom_site_label_1
_geom_bond_atom_site_label_2
_geom_bond_distance
_ccdc_geom_bond_type
C44   H6    1.081497 S    
O5    Cu1   1.967302 S    
C5    C55   1.519361 S    
O17   C89   1.415303 S    
C25   O11   1.393488 S    
C3    C8    1.461530 S    
C2    C31   1.448694 S    
C41   C45   1.412405 A    
C16   C19   1.410980 A    
C17   C19   1.395861 A    
C60   H24   1.110448 S    
C24   C28   1.400082 A    
C33   O15   1.384335 S    
O3    C2    1.298203 A    
C56   H14   1.106831 S    
C35   O17   1.383504 S    
C65   H37   1.110900 S    
C93   H104  1.111867 S    
C60   H26   1.109673 S    
C33   C35   1.404446 A    
C10   C62   1.522602 S    
O15   C83   1.415694 S    
O5    C3    1.302412 A    
C80   H75   1.117184 S    
C94   H106  1.110883 S    
C85   H87   1.111368 S    
O1    C1    1.299211 A    
C22   H2    1.079726 S    
C12   C14   1.428128 A    
C63   C64   1.532955 S    
C9    C11   1.421850 A    
C14   C16   1.412910 A    
C94   H108  1.110725 S    
C92   H103  1.115922 S    
C40   C44   1.411748 A    
C81   H76   1.108674 S    
C29   C38   1.477784 S    
C5    C15   1.410304 A    
C40   N2    1.387764 A    
O14   C80   1.419804 S    
C36   O18   1.385085 S    
C92   C93   1.535035 S    
C95   H111  1.111829 S    
C63   H33   1.107671 S    
C85   H86   1.111220 S    
C87   H90   1.111877 S    
O7    Cu1   1.962839 S    
O10   C66   1.420305 S    
C28   O14   1.390935 S    
C39   C95   1.500334 S    
C27   O13   1.392583 S    
C52   C60   1.515646 S    
C58   H19   1.108602 S    
C44   C48   1.398464 A    
C34   C37   1.408789 A    
C19   C69   1.516194 S    
C64   H35   1.111190 S    
C63   H34   1.116449 S    
C82   H79   1.110461 S    
C4    C7    1.454245 S    
C88   H94   1.110760 S    
C36   C38   1.407453 A    
O9    C63   1.417979 S    
C89   C90   1.533699 S    
C50   C51   1.420677 A    
Cu1   Cu2   2.707617 S    
C80   H74   1.110963 S    
C64   C65   1.525513 S    
C97   H115  1.103358 S    
C40   C96   1.503698 S    
O3    Cu1   1.939155 S    
C69   H49   1.107221 S    
C20   C70   1.516104 S    
C34   C36   1.403983 A    
C11   C17   1.422515 A    
C46   C48   1.397959 A    
C88   H92   1.110960 S    
C94   H107  1.110898 S    
C12   C18   1.426463 A    
C98   H118  1.102671 S    
C76   H66   1.110795 S    
C79   H72   1.110398 S    
C23   C32   1.393063 A    
O2    C2    1.301839 A    
C41   C97   1.502420 S    
C73   H59   1.110799 S    
O2    Cu2   1.940337 S    
C50   C58   1.515831 S    
C97   H117  1.111925 S    
C81   H77   1.109099 S    
C66   H41   1.116837 S    
C11   C13   1.426844 A    
C6    C16   1.404991 A    
C95   H110  1.109481 S    
C80   C81   1.528624 S    
C26   O12   1.390197 S    
C90   H97   1.111960 S    
C65   H39   1.110407 S    
C77   C78   1.530700 S    
C42   C98   1.504515 S    
C78   C79   1.525596 S    
O12   C74   1.421054 S    
C73   H58   1.109924 S    
O8    Cu2   1.962839 S    
C72   C73   1.525616 S    
C43   C47   1.395638 A    
C59   H21   1.110463 S    
C56   H13   1.110868 S    
C39   C43   1.411828 A    
O18   C92   1.415995 S    
O4    C1    1.301936 A    
C84   C85   1.525377 S    
C25   C29   1.415134 A    
O6    Cu2   1.967302 S    
C35   C37   1.406899 A    
C55   H11   1.107336 S    
C42   N2    1.388143 A    
C48   C53   1.524797 S    
C23   H3    1.080905 S    
C47   C54   1.525088 S    
C42   C46   1.410823 A    
C85   H85   1.111599 S    
C72   H56   1.109621 S    
C77   H68   1.116391 S    
C58   H18   1.110405 S    
C55   H9    1.105917 S    
C96   H112  1.103398 S    
C49   C57   1.515389 S    
C59   H22   1.108713 S    
C70   H50   1.110900 S    
C97   H116  1.110087 S    
C93   H105  1.110153 S    
O13   C77   1.418037 S    
C75   C76   1.526117 S    
C17   O9    1.385238 S    
O6    C4    1.294729 A    
C82   H80   1.110836 S    
C61   H29   1.106962 S    
C50   C53   1.425694 A    
C86   H89   1.115205 S    
C95   H109  1.100896 S    
C49   C54   1.426009 A    
C64   H36   1.109804 S    
C24   C31   1.391702 A    
C89   H95   1.110835 S    
C76   H65   1.110041 S    
C55   H10   1.107844 S    
C81   C82   1.525161 S    
C1    C32   1.451170 S    
C71   H54   1.116090 S    
C90   C91   1.525576 S    
C70   H52   1.105362 S    
C74   C75   1.529706 S    
C30   C37   1.478046 S    
C87   H91   1.110275 S    
C61   H28   1.109382 S    
C75   H63   1.107243 S    
C91   H99   1.110926 S    
C91   H100  1.110774 S    
C22   C26   1.398436 A    
C98   H119  1.109940 S    
C68   H44   1.110896 S    
C62   H31   1.109811 S    
C21   H1    1.080036 S    
C57   H15   1.110377 S    
O1    Cu1   1.940341 S    
C28   C29   1.413102 A    
C10   C12   1.427913 A    
C67   H43   1.108664 S    
C62   H30   1.102588 S    
C49   C52   1.421633 A    
C93   C94   1.525188 S    
C88   H93   1.110604 S    
C69   H47   1.110849 S    
Cu1   N1    2.034774 S    
C66   C67   1.533470 S    
C15   C20   1.410296 A    
C5    C7    1.403372 A    
C98   H120  1.111427 S    
C9    C61   1.521820 S    
C57   H16   1.108597 S    
C24   H4    1.081412 S    
C22   C32   1.391113 A    
C89   H96   1.116329 S    
C52   C53   1.425696 A    
C71   C72   1.531139 S    
C51   C54   1.425494 A    
C65   H38   1.110407 S    
C66   H40   1.111213 S    
C60   H25   1.108724 S    
C43   H5    1.081803 S    
C33   C38   1.407504 A    
C96   H114  1.111680 S    
C91   H101  1.110771 S    
O11   C71   1.417626 S    
C45   H7    1.081466 S    
C61   H27   1.106964 S    
C46   H8    1.081613 S    
C6    C56   1.517078 S    
C23   C27   1.404554 A    
C77   H67   1.111068 S    
C67   C68   1.524779 S    
C74   H61   1.117778 S    
C90   H98   1.110024 S    
C96   H113  1.109485 S    
C18   O10   1.386217 S    
C74   H60   1.110357 S    
O16   C86   1.415890 S    
C59   H23   1.109702 S    
C84   H83   1.112338 S    
C79   H71   1.110815 S    
C41   N1    1.390846 A    
C68   H46   1.110535 S    
C18   C20   1.399487 A    
C27   C30   1.414311 A    
C21   C25   1.404900 A    
C62   H32   1.105452 S    
C8    C10   1.417539 A    
C13   C15   1.413381 A    
C92   H102  1.110800 S    
O4    Cu2   1.939159 S    
C39   N1    1.391960 A    
O7    C4    1.301504 A    
C83   H82   1.115391 S    
C34   O16   1.385103 S    
C78   H69   1.111628 S    
C84   H84   1.110557 S    
O8    C3    1.298539 A    
C82   H78   1.111040 S    
C13   C14   1.416489 A    
C56   H12   1.104951 S    
C7    C9    1.410383 A    
C86   C87   1.533514 S    
C73   H57   1.111015 S    
C26   C30   1.415064 A    
C57   H17   1.109719 S    
C51   C59   1.515753 S    
C75   H62   1.111579 S    
C79   H73   1.110805 S    
C6    C8    1.402530 A    
C86   H88   1.110813 S    
C21   C31   1.390897 A    
C58   H20   1.109753 S    
C76   H64   1.111191 S    
C68   H45   1.110537 S    
C70   H51   1.109782 S    
Cu2   N2    2.034774 S    
C78   H70   1.108549 S    
C67   H42   1.111316 S    
C72   H55   1.111617 S    
C83   C84   1.534378 S    
C45   C47   1.396645 A    
C71   H53   1.110782 S    
C83   H81   1.111154 S    
C87   C88   1.525223 S    
C69   H48   1.108432 S    
