data_mof_unit_7030.cif
_audit_creation_date              2012-12-11T17:14:01-0500
_audit_creation_method            fapswitch 2.2
_symmetry_space_group_name_H-M    P1
_symmetry_Int_Tables_number       1
_space_group_crystal_system       triclinic
_cell_length_a                    18.162378
_cell_length_b                    7.121129
_cell_length_c                    13.135699
_cell_angle_alpha                 90.000478
_cell_angle_beta                  71.637387
_cell_angle_gamma                 89.999564
_cell_volume                      1612.42078182

loop_
_atom_site_label
_atom_site_type_symbol
_atom_type_description
_atom_site_fract_x
_atom_site_fract_y
_atom_site_fract_z
_atom_type_partial_charge
O1    O     O_R   0.453880 0.506200 0.150010 -0.517948
O2    O     O_R   0.546120 0.006200 0.849990 -0.517950
O3    O     O_R   0.604080 0.177770 0.007280 -0.529241
O4    O     O_R   0.395920 0.677770 0.992720 -0.529319
C1    C     C_R   0.635862 0.344507 0.001834 0.763355
C2    C     C_R   0.364138 0.844507 0.998166 0.763417
O5    O     O_R   0.458010 0.176640 0.159130 -0.546569
O6    O     O_R   0.541990 0.676640 0.840870 -0.546609
O7    O     O_R   0.399010 0.004010 0.002930 -0.533702
O8    O     O_R   0.600990 0.504010 0.997070 -0.533721
C3    C     C_R   0.440671 0.344753 0.201053 0.745228
C4    C     C_R   0.559323 0.844753 0.798947 0.745309
O9    O     O_3   0.480810 0.338440 0.948570 -0.365476
O10   O     O_3   0.519190 0.838440 0.051430 -0.365397
V1    V     V_3+5 0.503560 0.064490 0.009540 1.603544
V2    V     V_3+5 0.496440 0.564490 0.990460 1.603400
C5    C     C_R   0.587969 0.774640 0.507762 -0.120316
C6    C     C_R   0.411993 0.274147 0.492196 -0.120261
H1    H     H_    0.493629 0.745041 0.652918 0.151858
H2    H     H_    0.506327 0.244615 0.347036 0.151902
H3    H     H_    0.551592 0.732586 0.460541 0.181554
H4    H     H_    0.448348 0.231824 0.539389 0.181559
C7    C     C_R   0.596496 0.848756 0.682595 -0.063700
C8    C     C_R   0.403502 0.348733 0.317407 -0.063716
C9    C     C_R   0.961444 0.858792 0.379182 0.195032
C10   C     C_R   0.038546 0.358807 0.620842 0.195121
C11   C     C_R   0.930160 0.851781 0.492907 0.059244
C12   C     C_R   0.069819 0.352091 0.507110 0.059150
C13   C     C_R   0.848738 0.844911 0.539436 -0.174193
C14   C     C_R   0.151244 0.345318 0.460555 -0.174134
C15   C     C_R   0.797014 0.857520 0.478881 0.086284
C16   C     C_R   0.202978 0.357620 0.521115 0.086164
C17   C     C_R   0.829118 0.853104 0.365992 -0.039397
C18   C     C_R   0.170876 0.352995 0.634004 -0.039595
C19   C     C_R   0.714235 0.856621 0.526721 0.010504
C20   C     C_R   0.285760 0.356598 0.473276 0.010589
C21   C     C_R   0.667410 0.811905 0.460634 0.044387
C22   C     C_R   0.332566 0.311543 0.539339 0.044387
C23   C     C_R   0.700788 0.805445 0.348628 0.244154
C24   C     C_R   0.299186 0.304881 0.651338 0.244210
C25   C     C_R   0.779796 0.834003 0.302666 -0.202922
C26   C     C_R   0.220191 0.333582 0.697317 -0.202959
C27   C     C_R   0.675354 0.897903 0.637020 0.184835
C28   C     C_R   0.324661 0.398023 0.363002 0.184891
C29   C     C_R   0.554112 0.783684 0.617956 -0.197524
C30   C     C_R   0.445859 0.283377 0.382014 -0.197523
C31   C     C_R   0.910362 0.859885 0.317587 -0.160353
C32   C     C_R   0.089636 0.359840 0.682418 -0.160129
H5    H     H_    0.826593 0.816740 0.624270 0.190077
H6    H     H_    0.173379 0.317369 0.375693 0.190114
H7    H     H_    0.802561 0.830778 0.215998 0.145673
H8    H     H_    0.197425 0.330180 0.783983 0.145703
C33   C     C_1   0.216298 0.858788 0.000138 -0.096825
C34   C     C_1   0.783702 0.358789 0.999862 -0.096828
C35   C     C_1   0.283675 0.852593 0.999012 -0.078136
C36   C     C_1   0.716325 0.352592 0.000988 -0.078144
O11   O     O_R   0.899030 0.205490 0.002790 -0.532641
O12   O     O_R   0.100970 0.705490 0.997210 -0.532670
O13   O     O_R   0.042000 0.536370 0.840840 -0.544087
O14   O     O_R   0.958000 0.036370 0.159160 -0.544174
C37   C     C_R   0.057188 0.368255 0.799135 0.764198
C38   C     C_R   0.942821 0.868262 0.200867 0.764209
O15   O     O_R   0.895930 0.535070 0.992690 -0.533026
O16   O     O_R   0.104070 0.035070 0.007310 -0.533025
O17   O     O_R   0.953870 0.707520 0.150040 -0.542630
O18   O     O_R   0.046130 0.207520 0.849960 -0.542700
C39   C     C_R   0.864182 0.366783 0.998930 0.773136
C40   C     C_R   0.135818 0.866782 0.001071 0.773106
O19   O     O_3   0.019200 0.374340 0.051340 -0.375710
O20   O     O_3   0.980800 0.874340 0.948660 -0.375727
V3    V     V_3+5 0.996440 0.648350 0.990470 1.491588
V4    V     V_3+5 0.003560 0.148350 0.009530 1.491487
Br1   Br    Br    0.641600 0.762058 0.252233 -0.607022
Br2   Br    Br    0.358354 0.260980 0.747707 -0.607159
Br3   Br    Br    0.720365 0.057849 0.721268 -0.553721
Br4   Br    Br    0.279715 0.558319 0.278837 -0.553703
Br5   Br    Br    0.071465 0.852382 0.298812 -0.635093
Br6   Br    Br    0.928532 0.352011 0.701249 -0.635054
C41   C     C_3   0.975194 0.849567 0.573860 -0.349762
C42   C     C_3   0.064073 0.857717 0.534316 -0.273045
C43   C     C_3   0.097234 0.866520 0.627318 -0.722920
H9    H     H_    0.070753 0.982910 0.682326 0.245907
H10   H     H_    0.085306 0.734465 0.673249 0.242789
H11   H     H_    0.160993 0.887864 0.596140 0.229393
H12   H     H_    0.088037 0.730869 0.486757 0.256267
H13   H     H_    0.083753 0.984725 0.485307 0.242930
H14   H     H_    0.954169 0.970214 0.628645 0.229538
H15   H     H_    0.958128 0.722064 0.623834 0.214662
C44   C     C_3   0.024761 0.350031 0.426183 -0.349759
C45   C     C_3   0.935869 0.357383 0.465787 -0.273043
C46   C     C_3   0.902663 0.365953 0.372830 -0.723383
H16   H     H_    0.928558 0.483406 0.318339 0.245676
H17   H     H_    0.915271 0.234563 0.326327 0.243143
H18   H     H_    0.838800 0.385405 0.404093 0.229522
H19   H     H_    0.912127 0.230283 0.513231 0.256308
H20   H     H_    0.915980 0.484182 0.514910 0.242919
H21   H     H_    0.045596 0.471049 0.371633 0.229574
H22   H     H_    0.041997 0.222852 0.375954 0.214645

loop_
_geom_bond_atom_site_label_1
_geom_bond_atom_site_label_2
_ccdc_geom_bond_type
C22   C24   A    
C7    C29   A    
C11   C13   A    
C1    C36   S    
O1    C3    A    
C2    C35   S    
O16   V4    S    
O2    C4    A    
C2    O7    A    
C41   H14   S    
C43   H9    S    
C32   C37   S    
C45   H19   S    
C23   C25   A    
C13   H5    S    
O5    C3    A    
C4    C7    S    
C10   Br6   S    
C9    Br5   S    
C16   C20   A    
C19   C21   A    
C5    C29   A    
C11   C41   S    
O12   V3    S    
O14   V4    S    
C3    C8    S    
C7    C27   A    
O14   C38   A    
O19   V3    S    
C33   C40   S    
C42   H13   S    
C37   O18   A    
O18   V4    S    
C18   C26   A    
C15   C17   A    
O20   V3    S    
C19   C27   A    
C9    C31   A    
C10   C32   A    
C31   C38   S    
O5    V1    S    
C14   H6    S    
O6    V2    S    
O11   C39   A    
C6    C30   A    
C41   H15   S    
C43   H10   S    
C34   C36   T    
C33   C35   T    
C27   Br3   S    
O15   C39   A    
O13   C37   A    
O4    C2    A    
C46   H16   S    
C34   C39   S    
O17   V3    S    
C5    H3    S    
C44   H21   S    
C16   C18   A    
O4    V2    S    
O19   V4    S    
C42   H12   S    
C46   H17   S    
O6    C4    A    
O1    V2    S    
C5    C21   A    
O2    V1    S    
C12   C44   S    
O12   C40   A    
O15   V3    S    
C17   C31   A    
C15   C19   A    
C20   C28   A    
C18   C32   A    
C20   C22   A    
O16   C40   A    
C43   H11   S    
O3    V1    S    
C38   O17   A    
C6    H4    S    
C42   C43   S    
O3    C1    A    
H1    C29   S    
C45   H20   S    
C9    C11   A    
C10   C12   A    
C44   H22   S    
C8    C30   A    
C12   C14   A    
C6    C22   A    
C17   C25   A    
C1    O8    A    
C21   C23   A    
O8    V2    S    
C46   H18   S    
C14   C16   A    
C45   C46   S    
C8    C28   A    
C24   C26   A    
C24   Br2   S    
C23   Br1   S    
O11   V4    S    
O7    V1    S    
C41   C42   S    
C13   C15   A    
O9    V2    S    
C26   H8    S    
O10   V1    S    
O20   V4    S    
C28   Br4   S    
C44   C45   S    
C25   H7    S    
H2    C30   S    
O13   V3    S    
