data_mof_unit_21215.cif
_audit_creation_date              2012-12-10T19:46:54-0500
_audit_creation_method            fapswitch 2.2
_symmetry_space_group_name_H-M    P1
_symmetry_Int_Tables_number       1
_space_group_crystal_system       triclinic
_cell_length_a                    10.948089
_cell_length_b                    10.942034
_cell_length_c                    13.113484
_cell_angle_alpha                 89.557065
_cell_angle_beta                  91.65639
_cell_angle_gamma                 89.054955
_cell_volume                      1569.99850677

loop_
_atom_site_label
_atom_site_type_symbol
_atom_type_description
_atom_site_fract_x
_atom_site_fract_y
_atom_site_fract_z
_atom_type_partial_charge
C1    C     C_R   0.493741 0.259629 0.500003 0.813483
C2    C     C_R   0.508903 0.740248 0.500303 0.810714
C3    C     C_R   0.872626 0.510302 0.504031 -0.187502
C4    C     C_R   0.126620 0.496877 0.497745 -0.194672
C5    C     C_R   0.938796 0.438679 0.577556 -0.032363
C6    C     C_R   0.059683 0.564485 0.421648 -0.031054
C7    C     C_R   0.243255 0.247244 0.232191 -0.193838
C8    C     C_R   0.740139 0.755120 0.781630 -0.162150
C9    C     C_R   0.284918 0.182550 0.319574 0.208440
C10   C     C_R   0.706420 0.822092 0.693129 0.180850
C11   C     C_R   0.400425 0.121508 0.318619 0.076426
C12   C     C_R   0.588805 0.878694 0.686432 0.040885
C13   C     C_R   0.465371 0.118537 0.227689 -0.254534
C14   C     C_R   0.514715 0.877919 0.772179 -0.231824
C15   C     C_R   0.420895 0.180620 0.139703 0.173470
C16   C     C_R   0.552672 0.816448 0.862339 0.183431
C17   C     C_R   0.311409 0.248518 0.144159 -0.142869
C18   C     C_R   0.663996 0.751274 0.864673 -0.163396
C19   C     C_R   0.471526 0.935319 0.412181 -0.267970
C20   C     C_R   0.527170 0.064882 0.589570 -0.251806
C21   C     C_R   0.509775 0.873059 0.501286 -0.095045
C22   C     C_R   0.490378 0.126970 0.500049 -0.095635
C23   C     C_R   0.259479 0.497256 0.498796 0.833265
C24   C     C_R   0.740110 0.505653 0.501371 0.824485
C25   C     C_R   0.540180 0.938500 0.590981 0.014327
C26   C     C_R   0.456045 0.061559 0.411523 0.041415
C27   C     C_1   0.499793 0.500145 0.173552 0.143127
C28   C     C_1   0.499750 0.499362 0.826431 0.140313
C29   C     C_1   0.499548 0.499947 0.050677 -0.098984
C30   C     C_1   0.499642 0.499142 0.949291 -0.102242
C31   C     C_R   0.222616 0.788891 0.254333 -0.270467
C32   C     C_R   0.788689 0.171390 0.705069 -0.262338
C33   C     C_R   0.187531 0.725879 0.341663 -0.151921
C34   C     C_R   0.842857 0.243539 0.631318 -0.217869
C35   C     C_R   0.120218 0.618320 0.332112 0.188115
C36   C     C_R   0.874123 0.364210 0.653639 0.158579
C37   C     C_R   0.098044 0.569178 0.234932 -0.261341
C38   C     C_R   0.846813 0.412952 0.749048 -0.200698
C39   C     C_R   0.136869 0.630037 0.147984 -0.137314
C40   C     C_R   0.791743 0.340876 0.822531 -0.135590
C41   C     C_R   0.195820 0.742013 0.156707 0.487544
C42   C     C_R   0.763440 0.219273 0.801653 0.483885
C43   C     C_R   0.932493 0.580234 0.429586 0.093112
C44   C     C_R   0.066732 0.433091 0.576154 0.089201
Cu1   Cu    Cu3+1 0.499990 0.499990 0.592680 0.977558
Cu2   Cu    Cu3+1 0.500010 0.500010 0.407320 0.973090
H1    H     H_    0.552301 0.069787 0.226279 0.137337
H2    H     H_    0.426224 0.923896 0.767925 0.139082
H3    H     H_    0.449678 0.884892 0.343636 0.158061
H4    H     H_    0.548959 0.115339 0.658287 0.166121
H5    H     H_    0.265842 0.876468 0.262245 0.134919
H6    H     H_    0.766517 0.078368 0.686960 0.152860
H7    H     H_    0.205308 0.764737 0.416180 0.126596
H8    H     H_    0.862762 0.204822 0.557730 0.142066
H9    H     H_    0.045511 0.486761 0.226333 0.130668
H10   H     H_    0.870671 0.505810 0.767009 0.127423
H11   H     H_    0.116209 0.592758 0.073325 0.143520
H12   H     H_    0.772426 0.379186 0.896342 0.138741
H13   H     H_    0.276765 0.300662 0.078789 0.147586
H14   H     H_    0.693791 0.699241 0.931603 0.147441
H15   H     H_    0.156445 0.295893 0.231550 0.130397
H16   H     H_    0.827694 0.708411 0.787970 0.141791
N1    N     N_1   0.500030 0.500030 0.268070 -0.134353
N2    N     N_1   0.499970 0.499970 0.731930 -0.131648
O1    O     O_R   0.499980 0.319630 0.578260 -0.580252
O2    O     O_R   0.500020 0.680370 0.421740 -0.588207
O3    O     O_R   0.500000 0.319650 0.421740 -0.568702
O4    O     O_R   0.500000 0.680350 0.578260 -0.568151
O5    O     O_R   0.319630 0.500000 0.578260 -0.574211
O6    O     O_R   0.680370 0.500000 0.421740 -0.592338
O7    O     O_R   0.319650 0.500020 0.421740 -0.569630
O8    O     O_R   0.680350 0.499980 0.578260 -0.564335
O9    O     O_3   0.222059 0.805186 0.068972 -0.765403
H17   H     H_    0.255324 0.885852 0.088165 0.315578
O10   O     O_3   0.712795 0.149534 0.876954 -0.768016
H18   H     H_    0.699800 0.065887 0.850619 0.321446
C45   C     C_3   0.493044 0.177192 0.043121 -0.346169
C46   C     C_3   0.412420 0.160383 0.947062 -0.816917
H19   H     H_    0.340773 0.092018 0.960416 0.241488
H20   H     H_    0.367604 0.248460 0.924251 0.234985
H21   H     H_    0.468884 0.129363 0.882981 0.265604
H22   H     H_    0.545171 0.262374 0.035905 0.223962
H23   H     H_    0.561776 0.101909 0.047573 0.220757
C47   C     C_3   0.471598 0.817304 0.953597 -0.353934
C48   C     C_3   0.542536 0.833515 0.054911 -0.828290
H24   H     H_    0.586223 0.745781 0.080108 0.243511
H25   H     H_    0.614963 0.902331 0.047248 0.249984
H26   H     H_    0.479453 0.863334 0.114986 0.244849
H27   H     H_    0.402880 0.892337 0.945143 0.212819
H28   H     H_    0.419971 0.731237 0.956076 0.236488
C49   C     C_3   0.861437 0.671339 0.358446 -0.362433
C50   C     C_3   0.909930 0.802102 0.361305 -0.859292
H29   H     H_    0.970260 0.816484 0.429173 0.265644
H30   H     H_    0.960959 0.821843 0.291372 0.261848
H31   H     H_    0.833110 0.869677 0.363351 0.234934
H32   H     H_    0.861348 0.637010 0.278985 0.204064
H33   H     H_    0.764567 0.682012 0.378112 0.209441
C51   C     C_3   0.137492 0.351569 0.654167 -0.358362
C52   C     C_3   0.165668 0.418682 0.753880 -0.765658
H34   H     H_    0.201782 0.511145 0.739343 0.262973
H35   H     H_    0.082813 0.428348 0.799643 0.231951
H36   H     H_    0.234921 0.365500 0.799894 0.223772
H37   H     H_    0.087257 0.267059 0.671392 0.197327
H38   H     H_    0.223740 0.315434 0.623358 0.191853
C53   C     C_3   0.203242 0.179084 0.410726 -0.411161
C54   C     C_3   0.143772 0.055011 0.422322 -0.864059
H39   H     H_    0.094711 0.029681 0.350420 0.261014
H40   H     H_    0.213552 0.983760 0.442664 0.257935
H41   H     H_    0.076998 0.059617 0.484297 0.238548
H42   H     H_    0.255370 0.200589 0.481419 0.177058
H43   H     H_    0.129171 0.249542 0.402659 0.196951
C55   C     C_3   0.797087 0.832414 0.608402 -0.432292
C56   C     C_3   0.925585 0.864886 0.648261 -0.846905
H44   H     H_    0.921794 0.931971 0.711152 0.258455
H45   H     H_    0.975355 0.781435 0.676365 0.250922
H46   H     H_    0.978692 0.905479 0.586309 0.237394
H47   H     H_    0.801865 0.744024 0.568338 0.212973
H48   H     H_    0.767265 0.903143 0.551521 0.207288

loop_
_geom_bond_atom_site_label_1
_geom_bond_atom_site_label_2
_ccdc_geom_bond_type
C38   C40   A    
C53   H42   S    
C20   C25   A    
C27   C29   S    
O9    H17   S    
C23   O5    A    
C24   O6    A    
C39   C41   A    
C45   C46   S    
C3    C43   A    
C42   O10   S    
C35   C37   A    
Cu2   O2    S    
C2    O4    A    
C48   H24   S    
C55   H47   S    
C46   H20   S    
C54   H39   S    
C45   H23   S    
C9    C53   S    
C51   H37   S    
C39   H11   S    
C5    C36   S    
C16   C47   S    
C6    C35   S    
C15   C17   A    
C19   C26   A    
C32   H6    S    
C20   H4    S    
C33   C35   A    
C49   H32   S    
C44   C51   S    
C7    H15   S    
C7    C17   A    
C1    O1    A    
C31   C33   A    
C10   C55   S    
C56   H46   S    
C40   C42   A    
C53   H43   S    
C1    C22   S    
Cu1   O8    S    
C3    C24   S    
C47   H28   S    
Cu1   O4    S    
C10   C12   A    
C55   C56   S    
C48   H25   S    
C33   H7    S    
C40   H12   S    
Cu1   O5    S    
C23   O7    A    
C47   C48   S    
C4    C6    A    
C31   H5    S    
C49   C50   S    
C13   H1    S    
C4    C23   S    
C46   H19   S    
C14   H2    S    
C4    C44   A    
C11   C26   S    
C3    C5    A    
Cu1   Cu2   S    
C50   H31   S    
C8    C18   A    
C32   C34   A    
O10   H18   S    
C29   C30   T    
C19   H3    S    
C52   H34   S    
C2    C21   S    
C50   H30   S    
C16   C18   A    
C49   H33   S    
C9    C11   A    
Cu2   O7    S    
C27   N1    T    
C17   H13   S    
C28   N2    T    
C18   H14   S    
C52   H35   S    
C5    C44   A    
C12   C14   A    
C34   H8    S    
C6    C43   A    
C13   C15   A    
Cu1   O1    S    
C14   C16   A    
C47   H27   S    
C24   O8    A    
C56   H44   S    
C48   H26   S    
C7    C9    A    
C21   C25   A    
C31   C41   A    
C19   C21   A    
C20   C22   A    
C2    O2    A    
C53   C54   S    
Cu2   N1    S    
Cu1   N2    S    
C12   C25   S    
C28   C30   S    
Cu2   O3    S    
C37   C39   A    
C55   H48   S    
C11   C13   A    
C46   H21   S    
C15   C45   S    
C54   H40   S    
C45   H22   S    
C51   H38   S    
C36   C38   A    
C50   H29   S    
C1    O3    A    
C34   C36   A    
C43   C49   S    
Cu2   O6    S    
C41   O9    S    
C37   H9    S    
C52   H36   S    
C38   H10   S    
C8    C10   A    
C51   C52   S    
C22   C26   A    
C32   C42   A    
C8    H16   S    
C56   H45   S    
C54   H41   S    
