data_mof_unit_55563.cif
_audit_creation_date              2013-03-05T16:06:20-0500
_audit_creation_method            fapswitch 2.2
_symmetry_space_group_name_H-M    P1
_symmetry_Int_Tables_number       1
_space_group_crystal_system       triclinic
_cell_length_a                    10.842481
_cell_length_b                    9.583703
_cell_length_c                    27.701127
_cell_angle_alpha                 90.731676
_cell_angle_beta                  92.330134
_cell_angle_gamma                 90.000915
_cell_volume                      2875.84009748

loop_
_atom_site_label
_atom_site_type_symbol
_atom_site_description
_atom_site_fract_x
_atom_site_fract_y
_atom_site_fract_z
_atom_type_partial_charge
O1    O     O_R   0.319640 0.618740 0.500000 -0.550987
O2    O     O_R   0.680360 0.381260 0.500000 -0.550342
O3    O     O_R   0.680360 0.618740 0.500000 -0.550984
O4    O     O_R   0.319640 0.381260 0.500000 -0.550053
C1    C     C_R   0.262230 0.499997 0.499929 0.822793
C2    C     C_R   0.737770 0.500004 0.500071 0.822879
O5    O     O_R   0.500020 0.618770 0.430260 -0.545533
O6    O     O_R   0.499980 0.381230 0.569740 -0.546552
O7    O     O_R   0.499980 0.618770 0.569740 -0.548708
O8    O     O_R   0.500020 0.381230 0.430260 -0.550040
C3    C     C_R   0.499144 0.499020 0.407380 0.827721
C4    C     C_R   0.500935 0.501011 0.592619 0.827869
Cu1   Cu    Cu3+1 0.500000 0.640660 0.500000 1.053039
Cu2   Cu    Cu3+1 0.500000 0.359340 0.500000 1.052810
C5    C     C_R   0.393674 0.458688 0.174293 0.570898
C6    C     C_R   0.623636 0.518603 0.824500 0.583512
O9    O     O_2   0.285847 0.452076 0.196817 -0.501259
O10   O     O_2   0.728795 0.508598 0.800291 -0.485737
N1    N     N_R   0.500557 0.478929 0.201181 -0.470714
N2    N     N_R   0.513356 0.521730 0.798997 -0.474091
C7    C     C_R   0.612525 0.485941 0.180473 0.548844
C8    C     C_R   0.404010 0.537914 0.821172 0.549616
C9    C     C_R   0.488563 0.362015 0.278883 -0.112658
C10   C     C_R   0.519202 0.386836 0.723029 -0.102582
C11   C     C_R   0.489347 0.366730 0.329164 -0.167033
C12   C     C_R   0.514810 0.381332 0.672568 -0.170680
C13   C     C_R   0.503813 0.619312 0.327694 -0.172502
C14   C     C_R   0.497610 0.633684 0.670606 -0.164458
C15   C     C_R   0.503640 0.614174 0.277270 -0.097510
C16   C     C_R   0.501517 0.638763 0.720911 -0.101442
C17   C     C_R   0.496219 0.485446 0.252818 0.349054
C18   C     C_R   0.512364 0.515584 0.747244 0.347704
C19   C     C_R   0.509433 0.467648 0.101298 -0.144781
C20   C     C_R   0.514086 0.533015 0.899124 -0.145673
C21   C     C_R   0.395793 0.448793 0.123513 -0.091453
C22   C     C_R   0.627130 0.526775 0.875439 -0.091735
C23   C     C_R   0.289677 0.414487 0.094331 0.190545
C24   C     C_R   0.738967 0.538537 0.903368 0.189831
C25   C     C_R   0.620664 0.473996 0.129752 -0.088768
C26   C     C_R   0.401553 0.548451 0.872066 -0.074202
C27   C     C_R   0.497315 0.495391 0.354127 -0.050411
C28   C     C_R   0.504039 0.504899 0.645881 -0.051524
H1    H     H_    0.510025 0.719860 0.345915 0.188012
H2    H     H_    0.489149 0.730726 0.651150 0.189892
H3    H     H_    0.509989 0.709920 0.257187 0.140256
H4    H     H_    0.495779 0.738449 0.739536 0.137733
C29   C     C_R   0.400618 0.519243 0.973341 0.039423
C30   C     C_R   0.625795 0.490494 0.027858 0.030294
C31   C     C_R   0.626745 0.519049 0.977505 -0.027602
C32   C     C_R   0.399761 0.479261 0.022513 -0.028119
C33   C     C_R   0.513854 0.522529 0.950052 -0.043971
C34   C     C_R   0.511690 0.480695 0.050519 -0.048677
C35   C     C_R   0.294167 0.570667 0.947877 0.270959
C36   C     C_R   0.733836 0.454120 0.055447 0.279969
C37   C     C_R   0.292987 0.580648 0.897093 0.185153
C38   C     C_R   0.734404 0.461589 0.106299 0.185827
O11   O     O_2   0.298673 0.540333 0.793669 -0.540105
O12   O     O_2   0.714317 0.506683 0.209207 -0.540955
C39   C     C_R   0.293356 0.425129 0.043766 0.339754
C40   C     C_R   0.735352 0.554272 0.953725 0.349487
H5    H     H_    0.520016 0.280723 0.654543 0.196615
H6    H     H_    0.484244 0.269421 0.348407 0.198352
H7    H     H_    0.527095 0.291228 0.743330 0.142009
H8    H     H_    0.483379 0.262269 0.260093 0.137762
C41   C     C_R   0.063816 0.373243 0.499837 -0.134621
C42   C     C_R   0.936182 0.626764 0.500165 -0.134852
C43   C     C_R   0.936149 0.373245 0.499862 -0.134616
C44   C     C_R   0.063851 0.626762 0.500136 -0.134868
H9    H     H_    0.111710 0.274071 0.499741 0.192910
H10   H     H_    0.888286 0.725935 0.500265 0.192405
H11   H     H_    0.888228 0.274071 0.499710 0.192662
H12   H     H_    0.111774 0.725934 0.500284 0.192390
C45   C     C_R   0.871721 0.500005 0.500046 -0.041653
C46   C     C_R   0.128279 0.500000 0.499953 -0.041784
C47   C     C_R   0.421617 0.073087 0.469337 0.346340
C48   C     C_R   0.578275 0.926898 0.530705 0.346447
C49   C     C_R   0.578536 0.075153 0.530624 0.349333
C50   C     C_R   0.421541 0.924830 0.469345 0.349839
N3    N     N_R   0.500000 0.852070 0.500000 -0.274365
N4    N     N_R   0.500000 0.147930 0.500000 -0.273094
Cl1   Cl    Cl    0.318873 0.159744 0.428933 -0.544705
Cl2   Cl    Cl    0.680511 0.840196 0.571303 -0.536944
Cl3   Cl    Cl    0.682506 0.164196 0.570728 -0.542043
Cl4   Cl    Cl    0.317973 0.835737 0.429086 -0.537892
N5    N     N_2   0.181740 0.361848 0.115481 -0.373558
H13   H     H_    0.100256 0.389466 0.097831 0.283749
C51   C     C_3   0.186694 0.214964 0.126898 -0.546431
H14   H     H_    0.102915 0.185960 0.146278 0.224316
H15   H     H_    0.269103 0.191819 0.150622 0.225648
H16   H     H_    0.190032 0.150870 0.093244 0.232370
N6    N     N_2   0.854988 0.534729 0.881131 -0.367360
H17   H     H_    0.912022 0.618197 0.889736 0.290993
C52   C     C_3   0.917226 0.401679 0.885783 -0.550558
H18   H     H_    0.997347 0.398521 0.862235 0.226807
H19   H     H_    0.854001 0.315071 0.874256 0.228074
H20   H     H_    0.950370 0.385894 0.923817 0.255419
N7    N     N_2   0.184680 0.633702 0.872930 -0.439400
H21   H     H_    0.141640 0.567669 0.848031 0.304810
C53   C     C_3   0.190999 0.777893 0.858390 -0.585657
H22   H     H_    0.098932 0.811687 0.843935 0.235508
H23   H     H_    0.259078 0.790841 0.829915 0.241259
H24   H     H_    0.217716 0.845840 0.889820 0.220836
N8    N     N_2   0.848782 0.442376 0.132514 -0.444298
H25   H     H_    0.848073 0.375837 0.161413 0.298645
C54   C     C_3   0.921087 0.568298 0.140186 -0.575739
H26   H     H_    0.007995 0.543722 0.160902 0.254919
H27   H     H_    0.869084 0.647201 0.160863 0.257648
H28   H     H_    0.944973 0.613093 0.104966 0.234641
N9    N     N_2   0.191663 0.622555 0.973597 -0.374426
H29   H     H_    0.107928 0.621890 0.954659 0.325720
C55   C     C_3   0.214040 0.750763 0.000750 -0.618436
H30   H     H_    0.130965 0.777949 0.021051 0.257810
H31   H     H_    0.233839 0.837341 0.975990 0.221300
H32   H     H_    0.292815 0.738833 0.027224 0.216559
N10   N     N_2   0.835920 0.391345 0.032417 -0.382273
H33   H     H_    0.920773 0.404630 0.049831 0.312704
C56   C     C_3   0.815092 0.249237 0.015849 -0.638053
H34   H     H_    0.896739 0.211623 0.996556 0.262000
H35   H     H_    0.733399 0.243243 0.990379 0.223839
H36   H     H_    0.800720 0.180394 0.047112 0.225770
Cl5   Cl    Cl    0.176976 0.338689 0.007647 -0.683743
Cl6   Cl    Cl    0.856031 0.650253 0.983839 -0.679074

loop_
_geom_bond_atom_site_label_1
_geom_bond_atom_site_label_2
_geom_bond_distance
_ccdc_geom_bond_type
C39   Cl5   1.776439 S    
C42   C44   1.384281 A    
C51   H14   1.110880 S    
Cu1   N3    2.026091 S    
C52   H18   1.107545 S    
C13   C15   1.396971 A    
C55   H30   1.110371 S    
C48   N3    1.372497 A    
O3    C2    1.297050 A    
N1    C17   1.433654 S    
C8    O11   1.347264 S    
N7    H21   1.027930 S    
N5    H13   1.028521 S    
C19   C34   1.414973 A    
C30   C36   1.418406 A    
C54   H27   1.110397 S    
C20   C33   1.415736 A    
C19   C25   1.414550 A    
C31   C40   1.415375 A    
O1    C1    1.297045 A    
C32   C39   1.417668 A    
C23   N5    1.425012 S    
N1    C7    1.365653 A    
C12   H5    1.082676 S    
C10   C12   1.397034 A    
N9    C55   1.447719 S    
C41   C43   1.384264 A    
C49   Cl3   1.762683 S    
C44   C46   1.401432 A    
N10   H33   1.028433 S    
C14   C28   1.406972 A    
C1    C46   1.452390 S    
O7    Cu1   1.945904 S    
C4    C28   1.474419 S    
C5    N1    1.364375 A    
C53   H22   1.110186 S    
N10   C56   1.446395 S    
C32   C34   1.413512 A    
C43   C45   1.401423 A    
Cu2   N4    2.026092 S    
O6    C4    1.304016 A    
C47   N4    1.372570 A    
C20   C22   1.414460 A    
O3    Cu1   1.966804 S    
C44   H12   1.083075 S    
C29   C35   1.419626 A    
N5    C51   1.447234 S    
C52   H19   1.111863 S    
Cu1   Cu2   2.696087 S    
C7    O12   1.347487 S    
O2    C2    1.297053 A    
C5    C21   1.409770 A    
N7    C53   1.446711 S    
C29   C32   1.420068 A    
C35   C37   1.410761 A    
C54   H28   1.111077 S    
C36   C38   1.409339 A    
C48   C49   1.420863 A    
C55   H31   1.109711 S    
O8    Cu2   1.945904 S    
C56   H36   1.111346 S    
C48   Cl2   1.762507 S    
N6    H17   1.030657 S    
C50   N3    1.373827 A    
C47   Cl1   1.762336 S    
C29   C33   1.410502 A    
C31   C33   1.415127 A    
C47   C50   1.420850 A    
C42   C45   1.401420 A    
C24   N6    1.423262 S    
C14   H2    1.082880 S    
C41   C46   1.401412 A    
C15   H3    1.082777 S    
C9    C17   1.397936 A    
O5    C3    1.303775 A    
C10   C18   1.400281 A    
C50   Cl4   1.762835 S    
N6    C52   1.447424 S    
C13   C27   1.406394 A    
C25   C38   1.421357 A    
C7    C25   1.414533 A    
C30   C34   1.413572 A    
C6    N2    1.364378 A    
C26   C37   1.422104 A    
C8    C26   1.413467 A    
C36   N10   1.428867 S    
C37   N7    1.424916 S    
N8    C54   1.447756 S    
C40   Cl6   1.773602 S    
C23   C39   1.407897 A    
C24   C40   1.403276 A    
C9    H8    1.082967 S    
C53   H23   1.110070 S    
N2    C8    1.365215 A    
C52   H20   1.111480 S    
C51   H15   1.111514 S    
C20   C26   1.414531 A    
O1    Cu1   1.966798 S    
C11   C27   1.406914 A    
C12   C28   1.406376 A    
C2    C45   1.452384 S    
N2    C18   1.433689 S    
C49   N4    1.373899 A    
C35   N9    1.430194 S    
C5    O9    1.349238 S    
C30   C31   1.425297 A    
O6    Cu2   1.940578 S    
C21   C23   1.415247 A    
C16   H4    1.082959 S    
C38   N8    1.424568 S    
O4    C1    1.297061 A    
C10   H7    1.082770 S    
C54   H26   1.110043 S    
C56   H35   1.110784 S    
C14   C16   1.392647 A    
C15   C17   1.400527 A    
C56   H34   1.110315 S    
C6    C22   1.411223 A    
C16   C18   1.398065 A    
C42   H10   1.083085 S    
C41   H9    1.083075 S    
C22   C24   1.415321 A    
C19   C21   1.412090 A    
C3    C27   1.474461 S    
C55   H32   1.109785 S    
C43   H11   1.083067 S    
C11   H6    1.082586 S    
C9    C11   1.392676 A    
O4    Cu2   1.966804 S    
O2    Cu2   1.966798 S    
O7    C4    1.301224 A    
O8    C3    1.301499 A    
C13   H1    1.082902 S    
O5    Cu1   1.940578 S    
C53   H24   1.109500 S    
C6    O10   1.348872 S    
C51   H16   1.111667 S    
N8    H25   1.030098 S    
N9    H29   1.029898 S    
