data_mof_unit_29818.cif
_audit_creation_date              2012-12-10T18:20:29-0500
_audit_creation_method            fapswitch 2.2
_symmetry_space_group_name_H-M    P1
_symmetry_Int_Tables_number       1
_space_group_crystal_system       triclinic
_cell_length_a                    14.144202
_cell_length_b                    13.521379
_cell_length_c                    14.90102
_cell_angle_alpha                 89.330772
_cell_angle_beta                  88.438601
_cell_angle_gamma                 84.678946
_cell_volume                      2836.35267938

loop_
_atom_site_label
_atom_site_type_symbol
_atom_type_description
_atom_site_fract_x
_atom_site_fract_y
_atom_site_fract_z
_atom_type_partial_charge
C1    C     C_R   0.501575 0.497030 0.327467 0.902314
C2    C     C_R   0.561994 0.325170 0.949448 -0.015407
C3    C     C_R   0.802604 0.433350 0.551512 -0.072522
C4    C     C_R   0.198578 0.557066 0.439773 -0.070341
C5    C     C_R   0.794663 0.565033 0.443770 0.038265
C6    C     C_R   0.205028 0.437847 0.558722 0.042156
C7    C     C_R   0.896674 0.559724 0.435145 -0.075239
C8    C     C_R   0.104819 0.428079 0.553568 -0.073318
C9    C     C_R   0.950125 0.494610 0.493609 0.064487
C10   C     C_R   0.051371 0.493010 0.494994 0.063684
C11   C     C_R   0.902462 0.431083 0.551123 0.009602
C12   C     C_R   0.498642 0.503217 0.672578 0.902277
C13   C     C_R   0.099044 0.556799 0.437799 0.009300
C14   C     C_R   0.948279 0.617713 0.372586 -0.000693
C15   C     C_R   0.054738 0.358359 0.605411 0.000430
C16   C     C_R   0.515692 0.314586 0.502350 0.914038
C17   C     C_R   0.484099 0.685484 0.498057 0.911816
C18   C     C_R   0.047262 0.617259 0.376975 -0.257692
C19   C     C_R   0.955197 0.363342 0.605335 -0.259470
C20   C     C_1   0.473159 0.788851 0.490052 -0.137218
C21   C     C_1   0.524998 0.211617 0.513667 -0.176629
C22   C     C_2   0.463608 0.980517 0.481759 -0.195619
C23   C     C_R   0.503691 0.502216 0.953066 0.028141
C24   C     C_2   0.528679 0.020812 0.527799 -0.191193
C25   C     C_1   0.529777 0.124301 0.522707 -0.008650
C26   C     C_1   0.465324 0.876570 0.484006 0.005121
C27   C     C_R   0.527903 0.418038 0.811459 -0.277272
C28   C     C_R   0.476817 0.583332 0.188585 -0.306926
C29   C     C_R   0.496813 0.505436 0.767838 -0.078797
C30   C     C_R   0.505169 0.495295 0.232279 -0.100267
C31   C     C_R   0.470363 0.593629 0.813950 -0.068874
C32   C     C_R   0.536330 0.408208 0.186215 -0.066727
C33   C     C_R   0.473726 0.592229 0.907914 0.064941
C34   C     C_R   0.504835 0.499875 0.046933 0.033609
C35   C     C_R   0.534938 0.409926 0.092154 0.068561
C36   C     C_R   0.441741 0.687000 0.764325 0.091206
C37   C     C_R   0.505532 0.760158 0.753951 -0.181202
C38   C     C_R   0.475022 0.853175 0.717928 -0.148031
C39   C     C_R   0.381200 0.873291 0.691213 -0.108875
C40   C     C_R   0.318034 0.799896 0.699270 -0.155780
C41   C     C_R   0.348011 0.707055 0.736157 -0.111577
C42   C     C_R   0.570889 0.316908 0.236395 0.093154
C43   C     C_R   0.663686 0.306578 0.268559 -0.106203
C44   C     C_R   0.698650 0.218216 0.310620 -0.137792
C45   C     C_R   0.532033 0.414525 0.904298 0.066915
C46   C     C_R   0.641525 0.139560 0.320107 -0.107188
C47   C     C_R   0.548755 0.149762 0.288965 -0.153851
C48   C     C_R   0.513200 0.238313 0.247515 -0.184117
C49   C     C_R   0.424989 0.772753 0.097910 0.122509
C50   C     C_R   0.485900 0.848963 0.090288 -0.174385
C51   C     C_R   0.463554 0.938500 0.135478 -0.156602
C52   C     C_R   0.380153 0.952638 0.188100 -0.117020
C53   C     C_R   0.318750 0.877471 0.195247 -0.135374
C54   C     C_R   0.340703 0.787920 0.149957 -0.164533
C55   C     C_R   0.591187 0.230913 0.901971 0.125408
C56   C     C_R   0.476522 0.587637 0.095668 0.078436
C57   C     C_R   0.672875 0.222146 0.845772 -0.166506
C58   C     C_R   0.699676 0.133146 0.801089 -0.136214
C59   C     C_R   0.645906 0.052079 0.813033 -0.119106
C60   C     C_R   0.565332 0.059770 0.869854 -0.147667
C61   C     C_R   0.538129 0.148728 0.914449 -0.175193
C62   C     C_R   0.738039 0.652186 0.405440 0.182740
C63   C     C_R   0.736059 0.744041 0.449042 -0.146589
C64   C     C_R   0.690541 0.829661 0.410264 -0.153589
C65   C     C_R   0.645568 0.824233 0.328353 -0.104827
C66   C     C_R   0.647632 0.733435 0.284310 -0.149242
C67   C     C_R   0.447850 0.678763 0.957440 -0.273153
C68   C     C_R   0.694777 0.648013 0.321991 -0.075295
C69   C     C_R   0.255963 0.397209 0.638477 0.184801
C70   C     C_R   0.241295 0.447461 0.720432 -0.156585
C71   C     C_R   0.281666 0.406790 0.798788 -0.141517
C72   C     C_R   0.336147 0.315195 0.796159 -0.106123
C73   C     C_R   0.351229 0.264645 0.715077 -0.153167
C74   C     C_R   0.310281 0.304793 0.636765 -0.075267
C75   C     C_R   0.906692 0.669897 0.293299 0.130506
C76   C     C_R   0.885087 0.615267 0.218140 -0.173356
C77   C     C_R   0.850917 0.664470 0.140819 -0.147357
C78   C     C_R   0.563394 0.324093 0.042604 -0.275060
C79   C     C_R   0.840058 0.768271 0.137447 -0.110529
C80   C     C_R   0.864230 0.823051 0.211049 -0.125613
C81   C     C_R   0.898406 0.774135 0.288482 -0.141131
C82   C     C_R   0.100900 0.269303 0.650190 0.128100
C83   C     C_R   0.138179 0.187907 0.598458 -0.170858
C84   C     C_R   0.176500 0.100771 0.640437 -0.157210
C85   C     C_R   0.176280 0.093783 0.734120 -0.118341
C86   C     C_R   0.136986 0.173607 0.785958 -0.122481
C87   C     C_R   0.098513 0.260852 0.744233 -0.138904
C88   C     C_R   0.449569 0.677660 0.050486 -0.012544
H1    H     H_    0.581450 0.976833 0.566805 0.148452
H2    H     H_    0.918577 0.310643 0.645688 0.142273
H3    H     H_    0.577763 0.746103 0.776407 0.133014
H4    H     H_    0.523802 0.909991 0.711555 0.127489
H5    H     H_    0.357740 0.945561 0.663751 0.133579
H6    H     H_    0.245482 0.815506 0.678271 0.125706
H7    H     H_    0.297778 0.651913 0.745020 0.127075
H8    H     H_    0.709100 0.366452 0.260066 0.121886
H9    H     H_    0.770278 0.210425 0.335209 0.124421
H10   H     H_    0.668871 0.070981 0.352182 0.124384
H11   H     H_    0.504555 0.088964 0.296924 0.129186
H12   H     H_    0.411285 0.024464 0.442169 0.150063
H13   H     H_    0.441635 0.245100 0.222638 0.133076
H14   H     H_    0.550938 0.838608 0.050040 0.127555
H15   H     H_    0.510923 0.996851 0.129776 0.134226
H16   H     H_    0.362899 0.021924 0.223095 0.112441
H17   H     H_    0.254089 0.888627 0.235839 0.123674
H18   H     H_    0.292632 0.730177 0.155900 0.130178
H19   H     H_    0.715276 0.284354 0.836276 0.128792
H20   H     H_    0.762250 0.126966 0.757333 0.125842
H21   H     H_    0.666943 0.983205 0.778549 0.112279
H22   H     H_    0.523986 0.996803 0.879402 0.135151
H23   H     H_    0.546910 0.352437 0.771478 0.153785
H24   H     H_    0.475471 0.153848 0.958199 0.125154
H25   H     H_    0.771252 0.749488 0.512209 0.116584
H26   H     H_    0.690558 0.900279 0.443549 0.127983
H27   H     H_    0.610241 0.890565 0.298497 0.134012
H28   H     H_    0.615352 0.729843 0.219604 0.142391
H29   H     H_    0.701411 0.579834 0.284086 0.130138
H30   H     H_    0.197208 0.517260 0.723725 0.108962
H31   H     H_    0.270166 0.445923 0.861652 0.133032
H32   H     H_    0.366550 0.283393 0.857012 0.133538
H33   H     H_    0.392528 0.193133 0.713339 0.140537
H34   H     H_    0.455923 0.648473 0.228622 0.153437
H35   H     H_    0.317198 0.261618 0.575885 0.132903
H36   H     H_    0.893902 0.534837 0.219884 0.124217
H37   H     H_    0.832880 0.622145 0.083546 0.129784
H38   H     H_    0.813313 0.806240 0.077686 0.120220
H39   H     H_    0.856447 0.903400 0.208124 0.122686
H40   H     H_    0.917589 0.817208 0.344909 0.120383
H41   H     H_    0.137914 0.192276 0.525837 0.125529
H42   H     H_    0.206098 0.038635 0.600322 0.124583
H43   H     H_    0.206072 0.026363 0.766533 0.124618
H44   H     H_    0.136226 0.167837 0.858466 0.123355
H45   H     H_    0.425217 0.748388 0.924432 0.173193
H46   H     H_    0.067505 0.321956 0.784940 0.123016
H47   H     H_    0.587526 0.255011 0.075766 0.171042
H48   H     H_    0.766283 0.382687 0.594096 0.137308
H49   H     H_    0.235331 0.604324 0.394139 0.138067
H50   H     H_    0.084843 0.662353 0.329750 0.143269
N1    N     N_R   0.750030 0.500040 0.500070 -0.117865
N2    N     N_R   0.249970 0.499960 0.499930 -0.118515
O1    O     O_R   0.580280 0.500020 0.367860 -0.635117
O2    O     O_R   0.419720 0.499980 0.632140 -0.609714
O3    O     O_R   0.419730 0.500030 0.367840 -0.617313
O4    O     O_R   0.580270 0.499970 0.632160 -0.624414
O5    O     O_R   0.591830 0.359650 0.500030 -0.610812
O6    O     O_R   0.408170 0.640350 0.499970 -0.619367
O7    O     O_R   0.431280 0.359660 0.500010 -0.627801
O8    O     O_R   0.568720 0.640340 0.499990 -0.604545
Zn1   Zn    Zn3+2 0.607200 0.499990 0.500020 0.943274
Zn2   Zn    Zn3+2 0.392800 0.500010 0.499980 0.944007

loop_
_geom_bond_atom_site_label_1
_geom_bond_atom_site_label_2
_ccdc_geom_bond_type
C6    C69   S    
C66   C68   A    
C24   C25   S    
C34   C56   A    
C16   C21   S    
C23   C45   A    
C12   C29   S    
C27   C29   A    
C73   C74   A    
C14   C18   A    
C87   H46   S    
C3    C11   A    
C75   C76   A    
C24   H1    S    
C28   C56   A    
O1    Zn1   S    
C85   C86   A    
C15   C19   A    
C11   C19   A    
C67   C88   A    
C62   C63   A    
C66   H28   S    
C13   C18   A    
C16   O7    A    
C1    O3    A    
C36   C37   A    
C67   H45   S    
C83   H41   S    
C2    C55   S    
C38   C39   A    
C34   C35   A    
C28   H34   S    
C56   C88   A    
C51   H15   S    
C49   C54   A    
C38   H4    S    
C17   C20   S    
C47   H11   S    
C3    H48   S    
C4    C13   A    
C18   H50   S    
C39   H5    S    
C4    H49   S    
O6    Zn2   S    
O3    Zn2   S    
C47   C48   A    
C23   C33   A    
C31   C33   A    
C70   C71   A    
C7    C14   A    
C78   H47   S    
C72   C73   A    
C27   C45   A    
C12   O4    A    
C74   H35   S    
C46   H10   S    
C27   H23   S    
C59   C60   A    
C65   H27   S    
C49   C88   S    
C36   C41   A    
C44   C46   A    
C5    N1    A    
C15   C82   S    
C77   C79   A    
C2    C45   A    
C22   H12   S    
C54   H18   S    
C51   C52   A    
C76   H36   S    
C32   C35   A    
C17   O8    A    
C60   H22   S    
C84   C85   A    
C39   C40   A    
C5    C7    A    
C37   H3    S    
C86   C87   A    
C75   C81   A    
C6    C8    A    
C58   C59   A    
C53   C54   A    
N1    Zn1   S    
C63   C64   A    
C16   O5    A    
C43   C44   A    
C37   C38   A    
C2    C78   A    
C68   H29   S    
C4    N2    A    
C43   H8    S    
C44   H9    S    
C83   C84   A    
C23   C34   A    
C72   H32   S    
C50   C51   A    
C69   C74   A    
C42   C48   A    
C76   C77   A    
C9    C11   A    
C40   C41   A    
C57   H19   S    
C79   H38   S    
C50   H14   S    
C8    C15   A    
C73   H33   S    
C55   C57   A    
C81   H40   S    
C22   C24   D    
C3    N1    A    
C42   C43   A    
N2    Zn2   S    
O7    Zn2   S    
C77   H37   S    
C52   C53   A    
C33   C67   A    
C9    C10   A    
C7    C9    A    
C21   C25   T    
C46   C47   A    
C52   H16   S    
O4    Zn1   S    
C40   H6    S    
C80   C81   A    
C10   C13   A    
C80   H39   S    
C71   H31   S    
C35   C78   A    
C62   C68   A    
C64   C65   A    
O2    Zn2   S    
C28   C30   A    
C17   O6    A    
C71   C72   A    
C29   C31   A    
C19   H2    S    
C85   H43   S    
C30   C32   A    
C86   H44   S    
C57   C58   A    
C41   H7    S    
C20   C26   T    
C70   H30   S    
C48   H13   S    
C55   C61   A    
C84   H42   S    
C1    C30   S    
C59   H21   S    
C12   O2    A    
C5    C62   S    
C58   H20   S    
O8    Zn1   S    
C65   C66   A    
C6    N2    A    
C69   C70   A    
C1    O1    A    
C79   C80   A    
C63   H25   S    
C53   H17   S    
C64   H26   S    
C8    C10   A    
C49   C50   A    
C22   C26   S    
C32   C42   S    
C31   C36   S    
C60   C61   A    
C82   C83   A    
C61   H24   S    
O5    Zn1   S    
C82   C87   A    
C14   C75   S    
