data_mof_unit_50205.cif
_audit_creation_date              2012-10-26T20:47:30-0400
_audit_creation_method            fapswitch 2.2
_symmetry_space_group_name_H-M    P1
_symmetry_Int_Tables_number       1
_space_group_crystal_system       triclinic
_cell_length_a                    13.993198
_cell_length_b                    13.862198
_cell_length_c                    15.213539
_cell_angle_alpha                 92.420634
_cell_angle_beta                  89.820047
_cell_angle_gamma                 84.476745
_cell_volume                      2934.66948249

loop_
_atom_site_label
_atom_site_type_symbol
_atom_type_description
_atom_site_fract_x
_atom_site_fract_y
_atom_site_fract_z
_atom_type_partial_charge
C1    C     C_R   0.500166 0.498853 0.329675 0.575903
C2    C     C_R   0.796104 0.442970 0.439014 0.388692
C3    C     C_R   0.215807 0.416093 0.479634 0.317837
C4    C     C_R   0.788402 0.549347 0.565263 0.333127
C5    C     C_R   0.115801 0.411891 0.488804 0.238026
C6    C     C_R   0.889606 0.541952 0.569381 0.243048
C7    C     C_R   0.054011 0.498140 0.499837 -0.070919
C8    C     C_R   0.945486 0.496606 0.499598 -0.073830
C9    C     C_R   0.515844 0.317168 0.499981 0.535915
C10   C     C_R   0.484183 0.682878 0.499991 0.539028
C11   C     C_1   0.474357 0.786060 0.498868 -0.011152
C12   C     C_R   0.500364 0.494659 0.669862 0.549943
C13   C     C_1   0.525937 0.214034 0.500342 -0.025349
C14   C     C_2   0.460182 0.977455 0.496734 0.284900
C15   C     C_2   0.540825 0.022675 0.501041 0.281969
C16   C     C_1   0.533756 0.127135 0.500639 -0.006950
C17   C     C_1   0.467014 0.872973 0.497790 -0.009146
C18   C     C_R   0.578820 0.428385 0.096090 0.230657
C19   C     C_R   0.424716 0.440032 0.901451 0.238312
C20   C     C_R   0.583975 0.452003 0.185825 0.242571
C21   C     C_R   0.418894 0.458948 0.811996 0.252271
C22   C     C_R   0.500785 0.492104 0.232269 -0.092633
C23   C     C_R   0.423893 0.524699 0.092169 0.231700
C24   C     C_R   0.501941 0.480743 0.766007 -0.098874
C25   C     C_R   0.417569 0.521851 0.183838 0.205700
C26   C     C_R   0.588421 0.484834 0.813336 0.218111
C27   C     C_3   0.729759 0.507369 0.215211 0.091346
C28   C     C_3   0.821359 0.467639 0.165354 -0.227928
C29   C     C_3   0.893601 0.543304 0.162851 -0.497458
C30   C     C_3   0.277505 0.538408 0.768318 0.042506
C31   C     C_3   0.205063 0.550599 0.844379 -0.264590
C32   C     C_3   0.146779 0.649579 0.844542 -0.518542
C33   C     C_3   0.276110 0.475790 0.236423 0.050521
C34   C     C_R   0.585728 0.493628 0.904957 0.238395
C35   C     C_3   0.204461 0.465547 0.161315 -0.271581
C36   C     C_3   0.145417 0.380199 0.174161 -0.484650
C37   C     C_3   0.710984 0.390074 0.742724 0.046811
C38   C     C_3   0.746857 0.327183 0.818916 -0.273518
C39   C     C_3   0.814131 0.239825 0.786030 -0.495392
C40   C     C_3   0.369373 0.663567 0.023247 0.005245
C41   C     C_3   0.345352 0.738805 0.098761 -0.243101
C42   C     C_3   0.352788 0.841594 0.069087 -0.490110
C43   C     C_3   0.659946 0.611007 0.984144 0.011662
C44   C     C_3   0.650359 0.687526 0.913568 -0.261869
C45   C     C_R   0.501658 0.471351 0.047331 -0.074502
C46   C     C_3   0.656401 0.789196 0.954260 -0.487057
C47   C     C_3   0.226202 0.713004 0.608664 0.041737
C48   C     C_3   0.216784 0.823520 0.606566 -0.239522
C49   C     C_3   0.209463 0.870344 0.699234 -0.491019
C50   C     C_3   0.765086 0.285308 0.408683 0.062114
C51   C     C_3   0.846116 0.224748 0.357693 -0.262808
C52   C     C_3   0.842722 0.116602 0.371130 -0.495459
C53   C     C_3   0.053173 0.285637 0.553930 0.009974
C54   C     C_3   0.139154 0.226309 0.593872 -0.230452
C55   C     C_3   0.110257 0.179446 0.677675 -0.489708
C56   C     C_R   0.504517 0.467159 0.950164 -0.071234
C57   C     C_3   0.953434 0.524419 0.707474 0.029671
C58   C     C_3   0.905974 0.568885 0.792434 -0.230438
C59   C     C_3   0.931580 0.507530 0.871660 -0.485364
C60   C     C_R   0.097538 0.585920 0.508761 0.197860
C61   C     C_R   0.896125 0.450275 0.431075 0.182658
C62   C     C_R   0.198801 0.584570 0.515338 0.382391
Cu1   Cu    Cu3+1 0.596430 0.500000 0.499990 0.986643
Cu2   Cu    Cu3+1 0.403570 0.500000 0.500010 1.014233
H1    H     H_    0.679560 0.015453 0.508213 0.313410
H2    H     H_    0.958015 0.513132 0.124486 0.146511
H3    H     H_    0.916145 0.563572 0.230532 0.169769
H4    H     H_    0.236606 0.539785 0.705948 0.138049
H5    H     H_    0.321665 0.601441 0.769273 0.087742
H6    H     H_    0.156635 0.491859 0.838539 0.171680
H7    H     H_    0.242654 0.544962 0.907968 0.243690
H8    H     H_    0.195147 0.708603 0.848077 0.137148
H9    H     H_    0.098203 0.658496 0.902726 0.154513
H10   H     H_    0.102904 0.656254 0.784198 0.157220
H11   H     H_    0.234482 0.490783 0.298594 0.155671
H12   H     H_    0.321513 0.985096 0.487636 0.314996
H13   H     H_    0.320703 0.405335 0.243999 0.108272
H14   H     H_    0.155706 0.533497 0.158104 0.175107
H15   H     H_    0.243021 0.452013 0.097717 0.223843
H16   H     H_    0.192989 0.311201 0.172927 0.164065
H17   H     H_    0.092459 0.376005 0.120277 0.152723
H18   H     H_    0.106455 0.389079 0.237855 0.174714
H19   H     H_    0.771375 0.396235 0.696510 0.148999
H20   H     H_    0.656478 0.352711 0.704505 0.127609
H21   H     H_    0.784907 0.370638 0.867839 0.217814
H22   H     H_    0.684361 0.300715 0.852388 0.145920
H23   H     H_    0.627653 0.335771 0.003549 0.321044
H24   H     H_    0.777038 0.195005 0.737138 0.150126
H25   H     H_    0.836677 0.194590 0.842231 0.161911
H26   H     H_    0.879268 0.264159 0.755157 0.130408
H27   H     H_    0.323904 0.684125 0.966099 0.139335
H28   H     H_    0.444727 0.665167 0.000609 0.103467
H29   H     H_    0.271127 0.732977 0.122841 0.200928
H30   H     H_    0.395916 0.724699 0.153920 0.177524
H31   H     H_    0.426598 0.849277 0.045182 0.143833
H32   H     H_    0.336074 0.894217 0.125359 0.162636
H33   H     H_    0.300882 0.858817 0.015570 0.146590
H34   H     H_    0.372919 0.367401 0.994373 0.318192
H35   H     H_    0.600385 0.623523 0.032718 0.106166
H36   H     H_    0.726510 0.620526 0.021682 0.140617
H37   H     H_    0.708567 0.671655 0.863947 0.200848
H38   H     H_    0.580208 0.685892 0.879786 0.145496
H39   H     H_    0.599196 0.806557 0.004776 0.140746
H40   H     H_    0.646870 0.843107 0.902288 0.160993
H41   H     H_    0.727599 0.794521 0.985220 0.147671
H42   H     H_    0.981864 0.668893 0.480869 0.336839
H43   H     H_    0.001299 0.445603 0.347395 0.325343
H44   H     H_    0.292183 0.689431 0.645276 0.120583
H45   H     H_    0.749702 0.536699 0.280907 0.177718
H46   H     H_    0.162504 0.691265 0.644392 0.139497
H47   H     H_    0.280390 0.847131 0.572836 0.161292
H48   H     H_    0.151635 0.848390 0.569024 0.203661
H49   H     H_    0.144517 0.850076 0.733429 0.155265
H50   H     H_    0.204083 0.950463 0.695370 0.154995
H51   H     H_    0.274194 0.846781 0.737822 0.139614
H52   H     H_    0.697398 0.252469 0.393586 0.166281
H53   H     H_    0.776689 0.279794 0.481052 0.084389
H54   H     H_    0.839757 0.238279 0.286353 0.205260
H55   H     H_    0.916669 0.244972 0.381187 0.227072
H56   H     H_    0.694747 0.570649 0.180205 0.067000
H57   H     H_    0.849370 0.101510 0.442114 0.143626
H58   H     H_    0.903166 0.074762 0.334794 0.166533
H59   H     H_    0.774211 0.092187 0.345941 0.161155
H60   H     H_    0.308227 0.358635 0.396601 0.330420
H61   H     H_    0.676616 0.628397 0.610368 0.374233
H62   H     H_    0.995927 0.236980 0.540003 0.137694
H63   H     H_    0.022188 0.342416 0.602555 0.091546
H64   H     H_    0.168534 0.168762 0.545340 0.214577
H65   H     H_    0.196379 0.274267 0.610167 0.202370
H66   H     H_    0.081118 0.235935 0.727240 0.147469
H67   H     H_    0.854769 0.402365 0.197500 0.222610
H68   H     H_    0.174152 0.138286 0.705771 0.164561
H69   H     H_    0.055128 0.128603 0.662995 0.143413
H70   H     H_    0.032472 0.514502 0.716123 0.128106
H71   H     H_    0.928903 0.450766 0.695347 0.085367
H72   H     H_    0.927344 0.643257 0.805526 0.166370
H73   H     H_    0.827233 0.574671 0.783686 0.248415
H74   H     H_    0.931038 0.429107 0.854193 0.146875
H75   H     H_    0.879073 0.527913 0.925745 0.174855
H76   H     H_    0.003755 0.520286 0.896227 0.140994
H77   H     H_    0.803347 0.446191 0.096744 0.213987
H78   H     H_    0.861677 0.609277 0.130870 0.133066
N1    N     N_R   0.258690 0.500000 0.500020 -0.292487
N2    N     N_R   0.741310 0.500000 0.499980 -0.301955
O1    O     O_R   0.581430 0.500010 0.371450 -0.436859
O2    O     O_3   0.371769 0.030875 0.491456 -0.710946
O3    O     O_3   0.651434 0.365186 0.058681 -0.660409
O4    O     O_3   0.350594 0.396392 0.938794 -0.667272
O5    O     O_3   0.670290 0.431433 0.227946 -0.476328
O6    O     O_3   0.333369 0.447519 0.769116 -0.505206
O7    O     O_3   0.331529 0.555076 0.225083 -0.528293
O8    O     O_3   0.676397 0.485814 0.771896 -0.514453
O9    O     O_3   0.347956 0.570329 0.046742 -0.554406
O10   O     O_3   0.668962 0.514678 0.948040 -0.536931
O11   O     O_3   0.044908 0.675640 0.508503 -0.658463
O12   O     O_R   0.418570 0.499990 0.628550 -0.482059
O13   O     O_3   0.941512 0.414025 0.354426 -0.705984
O14   O     O_3   0.235749 0.673286 0.521582 -0.495914
O15   O     O_3   0.752778 0.382086 0.380669 -0.471764
O16   O     O_3   0.266815 0.335181 0.442391 -0.633553
O17   O     O_3   0.740382 0.605214 0.631294 -0.645196
O18   O     O_3   0.078918 0.323595 0.473218 -0.518701
O19   O     O_3   0.933086 0.588713 0.638494 -0.515688
O20   O     O_R   0.418560 0.500010 0.371460 -0.496310
O21   O     O_R   0.581440 0.499990 0.628540 -0.480393
O22   O     O_R   0.592950 0.362150 0.500010 -0.519498
O23   O     O_R   0.407050 0.637850 0.499990 -0.442929
O24   O     O_R   0.430080 0.362150 0.500020 -0.457654
O25   O     O_R   0.569920 0.637850 0.499980 -0.528660
O26   O     O_3   0.629376 0.969480 0.505888 -0.719049

loop_
_geom_bond_atom_site_label_1
_geom_bond_atom_site_label_2
_ccdc_geom_bond_type
C19   C56   A    
C49   H49   S    
C34   C56   A    
C23   C45   A    
C50   H53   S    
C2    N2    A    
C41   C42   S    
C1    O1    A    
C35   C36   S    
C62   N1    A    
Cu2   O20   S    
C7    C8    S    
C32   H8    S    
C53   C54   S    
C10   O25   A    
H23   O3    S    
C38   H22   S    
C42   H32   S    
C28   C29   S    
C19   C21   A    
C43   H35   S    
Cu2   O23   S    
C32   H10   S    
C30   C31   S    
C52   H59   S    
C53   O18   S    
Cu1   O25   S    
C15   C16   S    
C46   H41   S    
C51   H54   S    
C20   O5    S    
Cu1   O22   S    
C60   C62   A    
C9    C13   S    
C53   H63   S    
C29   H3    S    
C52   H58   S    
C26   C34   A    
C31   H6    S    
C41   H29   S    
C31   C32   S    
C45   C56   S    
C36   H18   S    
C2    O15   S    
C22   C25   A    
C51   H55   S    
Cu1   N2    S    
C62   O14   S    
C37   H20   S    
C43   O10   S    
C39   H26   S    
C50   H52   S    
C2    C61   A    
C8    C61   A    
C31   H7    S    
C49   H50   S    
H12   O2    S    
C1    C22   S    
C27   O5    S    
C14   C17   S    
C39   H24   S    
C12   O12   A    
H43   O13   S    
C44   C46   S    
C34   O10   S    
C38   H21   S    
C51   C52   S    
C47   C48   S    
C3    N1    A    
C43   H36   S    
C1    O20   A    
C4    C6    A    
C18   O3    S    
C36   H16   S    
C42   H33   S    
C32   H9    S    
C5    C7    A    
C44   H38   S    
C10   O23   A    
C6    C8    A    
H34   O4    S    
C59   H74   S    
C58   H72   S    
C58   C59   S    
C27   H56   S    
C54   H64   S    
C42   H31   S    
C15   O26   S    
C43   C44   S    
C37   C38   S    
C61   O13   S    
C52   H57   S    
C41   H30   S    
C57   O19   S    
C59   H75   S    
C36   H17   S    
C55   H66   S    
C29   H2    S    
C50   C51   S    
C21   O6    S    
C40   H28   S    
C58   H73   S    
C48   C49   S    
C49   H51   S    
C20   C22   A    
H42   O11   S    
C10   C11   S    
C23   O9    S    
C33   O7    S    
C3    O16   S    
C57   H70   S    
C21   C24   A    
C33   H11   S    
C37   O8    S    
C18   C45   A    
C7    C60   A    
C12   O21   A    
C30   H5    S    
C47   H44   S    
C54   H65   S    
C14   O2    S    
C54   C55   S    
C9    O22   A    
C48   H48   S    
C14   C15   D    
C9    O24   A    
H61   O17   S    
C24   C26   A    
C3    C5    A    
C11   C17   T    
C4    N2    A    
C44   H37   S    
Cu2   N1    S    
C50   O15   S    
C47   H46   S    
C46   H39   S    
C12   C24   S    
C35   H14   S    
C19   O4    S    
H1    O26   S    
C25   O7    S    
C28   H67   S    
C5    O18   S    
C26   O8    S    
C60   O11   S    
C57   H71   S    
Cu2   O24   S    
C55   H69   S    
C33   H13   S    
C57   C58   S    
C38   C39   S    
C46   H40   S    
C59   H76   S    
C29   H78   S    
H60   O16   S    
C35   H15   S    
C33   C35   S    
Cu1   O1    S    
Cu2   O12   S    
C18   C20   A    
C23   C25   A    
C40   H27   S    
C40   O9    S    
C30   O6    S    
C53   H62   S    
Cu1   Cu2   S    
Cu1   O21   S    
C48   H47   S    
C6    O19   S    
C27   H45   S    
C55   H68   S    
C13   C16   T    
C27   C28   S    
C4    O17   S    
C37   H19   S    
C40   C41   S    
C28   H77   S    
C39   H25   S    
C30   H4    S    
C47   O14   S    
