data_mof_unit_59260.cif
_audit_creation_date              2012-12-11T14:55:42-0500
_audit_creation_method            fapswitch 2.2
_symmetry_space_group_name_H-M    P1
_symmetry_Int_Tables_number       1
_space_group_crystal_system       triclinic
_cell_length_a                    8.242636
_cell_length_b                    15.047964
_cell_length_c                    19.269494
_cell_angle_alpha                 100.7412
_cell_angle_beta                  92.394456
_cell_angle_gamma                 98.956727
_cell_volume                      2313.39946051

loop_
_atom_site_label
_atom_site_type_symbol
_atom_type_description
_atom_site_fract_x
_atom_site_fract_y
_atom_site_fract_z
_atom_type_partial_charge
Ba1   Ba    Ba6+2 0.854510 0.539840 0.465770 1.672221
Ba2   Ba    Ba6+2 0.335330 0.460240 0.534240 1.701756
C1    C     C_3   0.698688 0.841534 0.321799 -0.282365
C2    C     C_3   0.642286 0.765226 0.256689 0.241648
C3    C     C_3   0.460605 0.315768 0.316127 0.240345
C4    C     C_3   0.441445 0.288443 0.235461 -0.239502
C5    C     C_3   0.054580 0.265896 0.725453 0.330115
C6    C     C_3   0.088074 0.241306 0.797227 -0.329572
C7    C     C_3   0.535510 0.215037 0.682570 0.255158
C8    C     C_3   0.564951 0.135480 0.717915 -0.258771
C9    C     C_R   0.063202 0.549965 0.802453 -0.143613
C10   C     C_R   0.024984 0.533642 0.727792 0.038039
C11   C     C_R   0.851385 0.422715 0.809743 -0.166805
C12   C     C_3   0.135268 0.728359 0.281210 0.383658
C13   C     C_R   0.782595 0.430416 0.744146 0.009990
C14   C     C_R   0.335012 0.571244 0.189788 -0.187218
C15   C     C_R   0.406343 0.564552 0.255399 -0.002505
C16   C     C_R   0.123221 0.445396 0.198866 -0.137465
C17   C     C_R   0.166026 0.462371 0.272774 0.053926
C18   C     C_R   0.984573 0.488877 0.845450 -0.005908
C19   C     C_R   0.878298 0.476792 0.700576 -0.246063
C20   C     C_R   0.199631 0.505281 0.155380 0.005525
C21   C     C_R   0.313780 0.517528 0.299171 -0.230463
C22   C     C_R   0.751751 0.440131 0.956301 -0.086685
C23   C     C_3   0.137942 0.757454 0.209691 -0.291855
C24   C     C_R   0.645539 0.400528 0.000286 -0.040751
C25   C     C_R   0.693981 0.411286 0.071102 -0.049520
C26   C     C_R   0.850655 0.457020 0.095807 -0.093311
C27   C     C_R   0.974527 0.474030 0.049368 0.025938
C28   C     C_R   0.922554 0.468143 0.975767 0.038664
C29   C     C_R   0.143592 0.499748 0.075939 -0.005733
C30   C     C_R   0.258551 0.521649 0.025304 0.043111
C31   C     C_R   0.206511 0.517659 0.952289 0.004014
C32   C     C_R   0.037833 0.492168 0.925248 -0.008783
C33   C     C_R   0.429723 0.546134 0.044552 -0.061335
C34   C     C_3   0.168581 0.759489 0.642071 0.307765
C35   C     C_R   0.536479 0.588496 0.002457 -0.088652
C36   C     C_R   0.486293 0.583879 0.932527 -0.006969
C37   C     C_R   0.330332 0.536900 0.906804 -0.075008
C38   C     C_R   0.762199 0.236037 0.524382 -0.276065
C39   C     C_R   0.851929 0.179078 0.553457 0.008890
C40   C     C_R   0.784831 0.086339 0.549081 -0.145448
C41   C     C_R   0.633501 0.047649 0.508763 0.019392
C42   C     C_R   0.560576 0.105215 0.470886 -0.062188
C43   C     C_R   0.617447 0.199095 0.482637 -0.004701
C44   C     C_R   0.385493 0.917349 0.479730 0.369503
C45   C     C_3   0.236520 0.861974 0.672841 0.167639
C46   C     C_R   0.323468 0.822093 0.464282 -0.027612
C47   C     C_R   0.577374 0.790780 0.514685 0.055663
C48   C     C_R   0.646998 0.883334 0.521978 -0.210607
C49   C     C_R   0.554932 0.948309 0.503019 -0.018088
C50   C     C_R   0.420070 0.760165 0.482114 -0.341924
C51   C     C_3   0.948314 0.255928 0.375609 0.248298
C52   C     C_3   0.916295 0.151340 0.356315 -0.299160
C53   C     C_3   0.731420 0.675091 0.683162 0.378978
C54   C     C_3   0.825547 0.713422 0.755749 -0.234188
H1    H     H_    0.509396 0.741154 0.259382 0.013040
H2    H     H_    0.832632 0.280089 0.390998 0.005460
H3    H     H_    0.042312 0.278120 0.421004 0.072385
H4    H     H_    0.867933 0.122897 0.401864 0.057138
H5    H     H_    0.822107 0.128976 0.310915 0.097947
H6    H     H_    0.803884 0.628186 0.651441 -0.093056
H7    H     H_    0.610572 0.635658 0.690461 0.111776
H8    H     H_    0.682013 0.812533 0.370427 0.108954
H9    H     H_    0.955380 0.737784 0.748514 -0.009765
H10   H     H_    0.826106 0.657389 0.785455 0.021358
H11   H     H_    0.345080 0.337626 0.334869 0.001921
H12   H     H_    0.563569 0.374414 0.331213 0.060998
H13   H     H_    0.336146 0.231195 0.219396 0.127732
H14   H     H_    0.414175 0.347546 0.212743 -0.012687
H15   H     H_    0.831553 0.868845 0.320808 0.120858
H16   H     H_    0.246951 0.810778 0.209107 0.187169
H17   H     H_    0.116797 0.337473 0.727182 0.067472
H18   H     H_    0.919479 0.260687 0.715621 -0.066761
H19   H     H_    0.036572 0.287413 0.839288 0.071972
H20   H     H_    0.030245 0.169356 0.796620 0.133618
H21   H     H_    0.222635 0.248968 0.809952 0.158472
H22   H     H_    0.652591 0.239701 0.660413 -0.060180
H23   H     H_    0.440332 0.189505 0.637829 0.093773
H24   H     H_    0.585502 0.076762 0.676800 0.037801
H25   H     H_    0.036792 0.667829 0.277664 0.075960
H26   H     H_    0.677711 0.157291 0.754691 0.109017
H27   H     H_    0.155943 0.608293 0.825359 0.112421
H28   H     H_    0.795381 0.366176 0.832569 0.079668
H29   H     H_    0.391253 0.625836 0.165193 0.105151
H30   H     H_    0.028174 0.387745 0.177093 0.071510
H31   H     H_    0.833834 0.472432 0.646234 0.063210
H32   H     H_    0.361030 0.520002 0.352873 0.060269
H33   H     H_    0.692370 0.452909 0.909514 0.060788
H34   H     H_    0.518386 0.373439 0.981800 0.088321
H35   H     H_    0.605083 0.392506 0.107845 0.070611
H36   H     H_    0.255736 0.709543 0.294219 -0.056720
H37   H     H_    0.871585 0.480565 0.151563 0.123177
H38   H     H_    0.487384 0.530609 0.090626 0.073563
H39   H     H_    0.662860 0.615880 0.022266 0.078487
H40   H     H_    0.309385 0.514580 0.851034 0.145426
H41   H     H_    0.853096 0.046437 0.576755 0.121183
H42   H     H_    0.772124 0.903279 0.543653 0.173053
H43   H     H_    0.462409 0.078616 0.430131 0.185978
H44   H     H_    0.369636 0.687868 0.473632 0.090157
H45   H     H_    0.142111 0.697881 0.166652 0.066597
H46   H     H_    0.810914 0.308261 0.529997 0.064411
H47   H     H_    0.025230 0.785787 0.199337 0.115310
H48   H     H_    0.216067 0.737827 0.589596 -0.038807
H49   H     H_    0.033516 0.749816 0.637224 0.013056
O1    O     O_2   0.872980 0.435970 0.325550 -0.467476
O2    O     O_3   0.707644 0.748015 0.650277 -0.602971
O3    O     O_3   0.104868 0.801637 0.332627 -0.553751
O4    O     O_2   0.316730 0.564060 0.674500 -0.420986
O5    O     O_3   0.068160 0.555880 0.585710 -0.507165
O6    O     O_3   0.525240 0.395830 0.629120 -0.467705
O7    O     O_3   0.218490 0.708353 0.689970 -0.582313
O8    O     O_3   0.608030 0.388080 0.462570 -0.492837
O9    O     O_3   0.102340 0.346310 0.592780 -0.499042
O10   O     O_2   0.185464 0.183804 0.541662 -0.426089
O11   O     O_3   0.116498 0.204792 0.673138 -0.593897
O12   O     O_3   0.121550 0.444190 0.414290 -0.493513
O13   O     O_3   0.581680 0.612000 0.537440 -0.499939
O14   O     O_2   0.334450 0.276040 0.463130 -0.446452
O15   O     O_3   0.490576 0.240334 0.345056 -0.632551
O16   O     O_2   0.456542 0.457340 0.756694 -0.467643
O17   O     O_3   0.480020 0.283165 0.732035 -0.596975
O18   O     O_3   0.664480 0.604250 0.370890 -0.460606
O19   O     O_2   0.712055 0.518080 0.246778 -0.508390
O20   O     O_3   0.000577 0.290312 0.316214 -0.650085
O21   O     O_3   0.738920 0.695276 0.255394 -0.617088
O22   O     O_2   0.855250 0.723990 0.536920 -0.448363
O23   O     O_3   0.087370 0.653760 0.407230 -0.505237
O24   O     O_2   0.977210 0.810160 0.452881 -0.458149
P1    P     P_3+3 0.039940 0.410170 0.336360 0.968060
P2    P     P_3+3 0.679300 0.712470 0.558210 1.029792
P3    P     P_3+3 0.122290 0.772781 0.416134 1.022104
P4    P     P_3+3 0.149780 0.589910 0.663640 1.019377
P5    P     P_3+3 0.063063 0.227728 0.590238 0.983081
P6    P     P_3+3 0.627734 0.598431 0.280601 0.936807
P7    P     P_3+3 0.513084 0.273319 0.437423 0.969922
P8    P     P_3+3 0.562735 0.391487 0.717184 0.969310
O25   O     O_3   0.408780 0.874571 0.685541 -0.647716
H50   H     H_    0.455848 0.855531 0.639719 0.277272
C55   C     C_2   0.193853 0.923171 0.623775 0.273225
H51   H     H_    0.286957 0.977644 0.613614 0.066762
O26   O     O_2   0.053245 0.916137 0.598611 -0.601496
C56   C     C_2   0.162053 0.891427 0.741958 0.644012
H52   H     H_    0.033629 0.899941 0.741819 -0.088807
O27   O     O_2   0.243730 0.905665 0.798473 -0.470148
C57   C     C_2   0.070537 0.114713 0.336078 0.557825
H53   H     H_    0.133982 0.133802 0.291482 0.033053
O28   O     O_2   0.125011 0.062841 0.369154 -0.532762
C58   C     C_2   0.760063 0.791379 0.800664 0.658061
H54   H     H_    0.830030 0.827838 0.849306 -0.026901
O29   O     O_2   0.629637 0.813677 0.784326 -0.443162
C59   C     C_2   0.663298 0.802091 0.189601 0.510237
H55   H     H_    0.781819 0.838116 0.179713 -0.005429
O30   O     O_2   0.547042 0.792624 0.146008 -0.586859
C60   C     C_2   0.602997 0.919255 0.325253 0.419901
H56   H     H_    0.667442 0.988625 0.329608 0.017899
O31   O     O_2   0.453008 0.905331 0.324052 -0.556395
C61   C     C_2   0.596472 0.260871 0.206669 0.565617
H57   H     H_    0.709338 0.310513 0.214011 0.006778
O32   O     O_2   0.596579 0.182891 0.174569 -0.542036
C62   C     C_2   0.420784 0.104920 0.757691 0.667694
H58   H     H_    0.299052 0.083888 0.730643 -0.028260
O33   O     O_2   0.439027 0.104700 0.820838 -0.519356
C63   C     C_2   0.598338 0.623888 0.885363 0.515527
H59   H     H_    0.727738 0.647565 0.902069 -0.055649
O34   O     O_2   0.544664 0.633317 0.827741 -0.569261
O35   O     O_3   0.283168 0.981333 0.476894 -0.696865
H60   H     H_    0.167112 0.951792 0.467732 0.357415

loop_
_geom_bond_atom_site_label_1
_geom_bond_atom_site_label_2
_ccdc_geom_bond_type
C4    H13   S    
C53   C54   S    
C19   H31   S    
Ba2   O4    S    
C4    H14   S    
Ba1   O13   S    
C60   O31   D    
C39   C40   A    
C1    H15   S    
Ba1   O23   S    
O7    P4    S    
C3    H11   S    
C41   C49   S    
C22   H33   S    
C62   H58   S    
C51   H3    S    
C5    C6    S    
C5    H17   S    
C52   H4    S    
C51   C52   S    
C47   P2    S    
C11   H28   S    
C24   C25   A    
C31   C37   A    
C26   C27   A    
C33   C35   A    
C35   C36   A    
C55   O26   D    
C14   H29   S    
C16   C17   A    
C58   O29   D    
C3    C4    S    
C42   H43   S    
O11   P5    S    
C54   H9    S    
C53   H6    S    
C45   C56   S    
C6    H20   S    
C35   H39   S    
C34   C45   S    
O1    P1    D    
Ba1   Ba2   S    
C7    H23   S    
O16   P8    D    
O13   P2    S    
C62   O33   D    
O20   P1    S    
Ba2   O5    S    
C14   C15   A    
O8    P7    S    
C53   H7    S    
C45   C55   S    
C15   P6    S    
C61   H57   S    
C25   H35   S    
C7    C8    S    
O19   P6    D    
Ba1   O1    S    
C52   C57   S    
O24   P3    D    
C18   C32   S    
C17   P1    S    
C12   O3    S    
C61   O32   D    
Ba1   O8    S    
C3    H12   S    
O23   P3    S    
C39   P5    S    
C4    C61   S    
Ba2   O12   S    
C7    O17   S    
C5    H18   S    
C57   O28   D    
Ba2   O13   S    
C38   C43   A    
C2    C59   S    
C44   C46   A    
C9    C18   A    
C48   H42   S    
Ba2   P4    S    
C44   O35   S    
C28   C32   A    
C3    O15   S    
O4    P4    D    
C30   C33   A    
C55   H51   S    
O2    P2    S    
Ba1   P1    S    
C20   C29   S    
C40   H41   S    
O35   H60   S    
C8    H24   S    
C23   H47   S    
Ba1   O12   S    
C9    H27   S    
C1    H8    S    
C44   C49   A    
C8    H26   S    
C6    H19   S    
C53   O2    S    
C26   H37   S    
O15   P7    S    
C5    O11   S    
C2    H1    S    
C17   C21   A    
C41   C42   A    
Ba1   O18   S    
C34   O7    S    
C27   C28   A    
Ba1   O5    S    
C29   C30   A    
C15   C21   A    
C46   C50   A    
Ba2   O14   S    
C47   C50   A    
C1    C60   S    
C31   C32   A    
O9    P5    S    
C48   C49   A    
C23   H16   S    
C16   H30   S    
O12   P1    S    
C12   H36   S    
C51   O20   S    
C38   C39   A    
C52   H5    S    
C59   O30   D    
O21   P6    S    
C8    C62   S    
C21   H32   S    
C11   C13   A    
C6    H21   S    
C40   C41   A    
C1    C2    S    
C60   H56   S    
C42   C43   A    
O6    P8    S    
C57   H53   S    
C33   H38   S    
C56   O27   D    
C63   H59   S    
C43   P7    S    
C14   C20   A    
C11   C18   A    
C34   H49   S    
C16   C20   A    
Ba2   O6    S    
Ba1   O22   S    
O17   P8    S    
C22   C24   A    
Ba1   P2    S    
C51   H2    S    
O10   P5    D    
C24   H34   S    
O14   P7    D    
C2    O21   S    
C10   P4    S    
C30   C31   A    
O22   P2    D    
C63   O34   D    
C27   C29   A    
C58   H54   S    
Ba2   O9    S    
C23   H45   S    
C34   H48   S    
C36   C37   A    
C54   H10   S    
C10   C19   A    
C45   O25   S    
C36   C63   S    
Ba2   O8    S    
C50   H44   S    
C7    H22   S    
C12   C23   S    
C22   C28   A    
C37   H40   S    
O3    P3    S    
O25   H50   S    
C38   H46   S    
C13   C19   A    
C59   H55   S    
C47   C48   A    
O18   P6    S    
C25   C26   A    
C46   P3    S    
O5    P4    S    
C12   H25   S    
C54   C58   S    
C56   H52   S    
C9    C10   A    
C13   P8    S    
