data_mof_unit_28994.cif
_audit_creation_date              2012-12-10T17:37:30-0500
_audit_creation_method            fapswitch 2.2
_symmetry_space_group_name_H-M    P1
_symmetry_Int_Tables_number       1
_space_group_crystal_system       triclinic
_cell_length_a                    12.003267
_cell_length_b                    13.001452
_cell_length_c                    15.573214
_cell_angle_alpha                 90.42333
_cell_angle_beta                  80.865065
_cell_angle_gamma                 92.535653
_cell_volume                      2397.18091418

loop_
_atom_site_label
_atom_site_type_symbol
_atom_type_description
_atom_site_fract_x
_atom_site_fract_y
_atom_site_fract_z
_atom_type_partial_charge
C1    C     C_R   0.521304 0.699809 0.497120 0.947165
C2    C     C_R   0.545591 0.128783 0.537342 -0.092300
C3    C     C_R   0.455111 0.976070 0.481162 -0.176691
C4    C     C_R   0.534822 0.021175 0.530763 -0.197434
C5    C     C_R   0.965556 0.405855 0.417377 0.576296
C6    C     C_R   0.034677 0.594273 0.582772 0.611426
C7    C     C_R   0.847989 0.413323 0.427443 0.541004
C8    C     C_R   0.151927 0.584816 0.574265 0.522460
C9    C     C_R   0.852642 0.540793 0.536429 0.776639
C10   C     C_R   0.147701 0.460875 0.462295 0.784044
C11   C     C_R   0.971540 0.534771 0.530028 -0.485429
C12   C     C_R   0.478563 0.299851 0.503270 0.930366
C13   C     C_R   0.028838 0.466666 0.469014 -0.474924
C14   C     C_R   0.482933 0.498306 0.658251 0.960204
C15   C     C_R   0.515814 0.496310 0.341935 0.929673
C16   C     C_R   0.465159 0.469862 0.752088 -0.340740
C17   C     C_R   0.521513 0.467768 0.248778 -0.339492
C18   C     C_R   0.557357 0.461225 0.796928 0.544308
C19   C     C_R   0.429583 0.485211 0.205721 0.582803
C20   C     C_R   0.546395 0.401289 0.873335 -0.151486
C21   C     C_R   0.415176 0.430505 0.129824 -0.106370
C22   C     C_R   0.440449 0.353426 0.907145 -0.233056
C23   C     C_R   0.466622 0.188940 0.504262 -0.342775
C24   C     C_R   0.491013 0.353889 0.098345 -0.244628
C25   C     C_R   0.346590 0.373514 0.868045 -0.182108
C26   C     C_R   0.588731 0.345243 0.135929 -0.180636
C27   C     C_R   0.357734 0.431914 0.792385 0.570763
C28   C     C_R   0.606037 0.403806 0.208461 0.584430
C29   C     C_2   0.427746 0.264935 0.968032 0.532154
C30   C     C_2   0.456293 0.263902 0.048167 0.566099
C31   C     C_R   0.314022 0.448543 0.090935 0.121073
C32   C     C_R   0.215091 0.387281 0.114718 -0.031840
C33   C     C_R   0.116969 0.409783 0.082312 -0.135859
C34   C     C_R   0.530790 0.809957 0.501808 -0.355330
C35   C     C_R   0.117694 0.492798 0.025527 -0.118678
C36   C     C_R   0.215948 0.554521 0.002289 -0.093079
C37   C     C_R   0.313806 0.533097 0.035539 -0.148072
C38   C     C_R   0.649202 0.380572 0.909924 0.119414
C39   C     C_R   0.692191 0.281559 0.904800 -0.196353
C40   C     C_R   0.791737 0.263361 0.936831 -0.100066
C41   C     C_R   0.848231 0.343496 0.974741 -0.096642
C42   C     C_R   0.805205 0.441973 0.980851 -0.127236
C43   C     C_R   0.706567 0.460828 0.947744 -0.038367
C44   C     C_R   0.647379 0.177100 0.567932 0.246834
C45   C     C_R   0.603492 0.957551 0.571181 0.573465
C46   C     C_R   0.754704 0.164397 0.518530 0.014350
C47   C     C_R   0.851483 0.206617 0.546993 -0.110099
C48   C     C_R   0.841854 0.264048 0.623643 -0.147820
C49   C     C_R   0.735582 0.277880 0.672554 -0.085820
C50   C     C_R   0.638338 0.233978 0.645562 -0.088080
C51   C     C_R   0.385262 0.822112 0.402988 0.210252
C52   C     C_R   0.428219 0.814833 0.314078 -0.163550
C53   C     C_R   0.358796 0.776953 0.255877 -0.028043
C54   C     C_R   0.246700 0.745122 0.286245 0.037088
C55   C     C_R   0.203976 0.750471 0.374940 -0.153062
C56   C     C_R   0.376946 0.038694 0.450199 0.592523
C57   C     C_R   0.272640 0.789505 0.433189 0.016453
C58   C     C_R   0.602088 0.853486 0.555791 0.584994
C59   C     C_R   0.380898 0.143050 0.464207 0.582538
C60   C     C_R   0.456569 0.869918 0.463784 -0.089516
F1    F     F_    0.660209 0.503549 0.762536 -0.596294
F2    F     F_    0.386606 0.174785 0.937857 -0.593501
F3    F     F_    0.305766 0.200354 0.431041 -0.542571
F4    F     F_    0.666585 0.794107 0.597937 -0.529436
F5    F     F_    0.667791 0.993796 0.630094 -0.606264
F6    F     F_    0.295657 0.001361 0.405527 -0.611919
F7    F     F_    0.205106 0.396574 0.404002 -0.515175
F8    F     F_    0.795470 0.606359 0.593650 -0.483409
F9    F     F_    0.347781 0.548224 0.241738 -0.661747
F10   F     F_    0.211613 0.641476 0.626135 -0.578054
F11   F     F_    0.787704 0.350663 0.380535 -0.553084
F12   F     F_    0.016031 0.338029 0.358534 -0.553928
F13   F     F_    0.983956 0.660706 0.642737 -0.518079
F14   F     F_    0.699473 0.388204 0.244289 -0.583272
F15   F     F_    0.264219 0.442168 0.754793 -0.616034
F16   F     F_    0.448594 0.171410 0.089542 -0.581839
H1    H     H_    0.264685 0.337914 0.893312 0.206547
H2    H     H_    0.925130 0.328858 0.999299 0.140469
H3    H     H_    0.847633 0.503796 0.011451 0.142725
H4    H     H_    0.674169 0.537457 0.952393 0.152025
H5    H     H_    0.763186 0.120950 0.458404 0.150035
H6    H     H_    0.933836 0.195851 0.509061 0.200485
H7    H     H_    0.916701 0.298098 0.645031 0.170687
H8    H     H_    0.729192 0.322559 0.731436 0.190244
H9    H     H_    0.556512 0.244672 0.684482 0.116822
H10   H     H_    0.514580 0.840170 0.289849 0.142618
H11   H     H_    0.391879 0.772081 0.187212 0.149163
H12   H     H_    0.648149 0.286978 0.112935 0.207799
H13   H     H_    0.193276 0.715500 0.241075 0.153906
H14   H     H_    0.117389 0.725344 0.398436 0.133797
H15   H     H_    0.238071 0.795894 0.501492 0.178166
H16   H     H_    0.213654 0.323456 0.159255 0.204814
H17   H     H_    0.040393 0.363354 0.102121 0.172054
H18   H     H_    0.042306 0.509934 0.999774 0.150016
H19   H     H_    0.216162 0.619074 0.958775 0.176834
H20   H     H_    0.389409 0.581887 0.017966 0.143191
H21   H     H_    0.649522 0.219049 0.874887 0.184137
H22   H     H_    0.825111 0.187194 0.932239 0.174786
N1    N     N_R   0.206400 0.519440 0.514690 -0.247564
N2    N     N_R   0.793600 0.480560 0.485310 -0.256933
O1    O     O_R   0.421320 0.658850 0.503920 -0.608712
O2    O     O_R   0.578680 0.341150 0.496080 -0.600245
O3    O     O_R   0.609840 0.646370 0.494500 -0.548492
O4    O     O_R   0.390160 0.353630 0.505500 -0.533551
O5    O     O_R   0.394600 0.506990 0.621070 -0.521925
O6    O     O_R   0.605400 0.493010 0.378930 -0.547308
O7    O     O_R   0.583120 0.494520 0.611640 -0.539809
O8    O     O_R   0.416880 0.505480 0.388360 -0.532209
Zn1   Zn    Zn3+2 0.374120 0.508330 0.506290 1.117043
Zn2   Zn    Zn3+2 0.625880 0.491670 0.493710 1.099756

loop_
_geom_bond_atom_site_label_1
_geom_bond_atom_site_label_2
_ccdc_geom_bond_type
N2    Zn2   S    
C22   C29   S    
C41   C42   A    
C54   C55   A    
C35   C36   A    
C28   F14   S    
C10   F7    S    
C23   C59   A    
C21   C31   S    
C12   C23   S    
O3    Zn2   S    
C25   H1    S    
C15   O6    A    
C36   C37   A    
C19   C21   A    
C8    N1    A    
C24   C26   A    
C12   O4    A    
C5    F12   S    
C40   H22   S    
C38   C39   A    
C56   F6    S    
C39   H21   S    
O1    Zn1   S    
N1    Zn1   S    
C20   C38   S    
O8    Zn1   S    
C47   H6    S    
C50   H9    S    
C17   C19   A    
C29   F2    S    
C14   O5    A    
C31   C32   A    
C2    C44   S    
C22   C25   A    
C51   C57   A    
C1    O3    A    
C5    C13   A    
C3    C60   A    
C16   C27   A    
C42   H3    S    
C34   C60   A    
C27   F15   S    
C44   C46   A    
C1    C34   S    
C4    C45   A    
C58   F4    S    
C45   C58   A    
C7    N2    A    
C51   C52   A    
C54   H13   S    
C41   H2    S    
C5    C7    A    
C6    C8    A    
C43   H4    S    
C53   C54   A    
C31   C37   A    
C37   H20   S    
C15   O8    A    
C2    C4    A    
C12   O2    A    
C29   C30   D    
C46   H5    S    
C30   F16   S    
C3    C56   A    
C47   C48   A    
C53   H11   S    
C9    C11   A    
C26   H12   S    
C14   O7    A    
C20   C22   A    
C9    N2    A    
C55   C57   A    
C45   F5    S    
O7    Zn2   S    
C14   C16   S    
C19   F9    S    
C25   C27   A    
C42   C43   A    
C3    C4    A    
C1    O1    A    
C6    C11   A    
C52   C53   A    
C49   H8    S    
C6    F13   S    
O6    Zn2   S    
C35   H18   S    
C44   C50   A    
C15   C17   S    
O5    Zn1   S    
C46   C47   A    
C40   C41   A    
C57   H15   S    
C17   C28   A    
C26   C28   A    
C10   C13   A    
C33   H17   S    
C48   H7    S    
C18   F1    S    
C55   H14   S    
C59   F3    S    
C8    F10   S    
C56   C59   A    
C32   C33   A    
C52   H10   S    
C9    F8    S    
C38   C43   A    
C7    F11   S    
C11   C13   A    
C36   H19   S    
C32   H16   S    
C48   C49   A    
C33   C35   A    
C18   C20   A    
C10   N1    A    
C24   C30   S    
O2    Zn2   S    
C39   C40   A    
C16   C18   A    
C49   C50   A    
C21   C24   A    
C2    C23   A    
C34   C58   A    
O4    Zn1   S    
C51   C60   S    
