data_mof_unit_31054.cif
_audit_creation_date              2012-12-10T21:00:34-0500
_audit_creation_method            fapswitch 2.2
_symmetry_space_group_name_H-M    P1
_symmetry_Int_Tables_number       1
_space_group_crystal_system       triclinic
_cell_length_a                    18.099793
_cell_length_b                    18.163026
_cell_length_c                    18.500371
_cell_angle_alpha                 119.527232
_cell_angle_beta                  89.920383
_cell_angle_gamma                 120.131324
_cell_volume                      4325.49453066

loop_
_atom_site_label
_atom_site_type_symbol
_atom_type_description
_atom_site_fract_x
_atom_site_fract_y
_atom_site_fract_z
_atom_type_partial_charge
C1    C     C_R   0.111161 0.220253 0.610360 0.860887
C2    C     C_3   0.450191 0.896894 0.946537 -0.392735
C3    C     C_3   0.446053 0.030948 0.022818 0.607948
C4    C     C_3   0.553905 0.969060 0.977151 0.616198
C5    C     C_3   0.424470 0.405813 0.460403 0.436985
C6    C     C_3   0.575490 0.594070 0.539543 0.446352
C7    C     C_3   0.520178 0.432212 0.482410 -0.354478
C8    C     C_3   0.479781 0.567670 0.517524 -0.345163
C9    C     C_3   0.549502 0.500811 0.447706 -0.133973
C10   C     C_3   0.450468 0.499085 0.552248 -0.140982
C11   C     C_3   0.453377 0.473132 0.424339 -0.138011
C12   C     C_R   0.888967 0.779759 0.389672 0.863636
C13   C     C_3   0.546584 0.526740 0.575587 -0.151595
C14   C     C_R   0.146718 0.167999 0.823252 -0.343693
C15   C     C_R   0.856744 0.833894 0.176760 -0.366856
C16   C     C_R   0.392929 0.781041 0.888110 0.958605
C17   C     C_R   0.607065 0.218960 0.111880 0.958465
C18   C     C_R   0.126474 0.124474 0.733624 0.630485
C19   C     C_R   0.875780 0.876271 0.266138 0.634179
C20   C     C_R   0.044558 0.092453 0.685700 -0.239416
C21   C     C_R   0.957131 0.907795 0.314620 -0.244738
C22   C     C_R   0.980103 0.096738 0.726321 0.512367
C23   C     C_3   0.995177 0.441599 0.415504 -0.412206
C24   C     C_R   0.022133 0.903726 0.274818 0.487219
C25   C     C_R   0.998825 0.137877 0.816470 0.188547
C26   C     C_R   0.004704 0.863768 0.184937 0.274392
C27   C     C_R   0.085879 0.180082 0.866216 0.183267
C28   C     C_R   0.918418 0.822799 0.134660 0.208532
C29   C     C_R   0.968787 0.941598 0.535098 -0.106474
C30   C     C_R   0.031802 0.058438 0.465095 -0.104899
C31   C     C_R   0.945269 0.892267 0.444213 -0.063720
C32   C     C_R   0.055202 0.107766 0.555940 -0.064290
C33   C     C_R   0.977270 0.951863 0.408999 0.170800
C34   C     C_3   0.004857 0.558385 0.584401 -0.413476
C35   C     C_R   0.023534 0.048205 0.591222 0.166350
C36   C     C_R   0.680661 0.781214 0.938863 0.267486
C37   C     C_R   0.318948 0.217955 0.060636 0.275321
C38   C     C_R   0.628536 0.684825 0.929613 0.399944
C39   C     C_R   0.371399 0.314445 0.070076 0.398839
C40   C     C_R   0.109024 0.498940 0.887917 0.824254
C41   C     C_R   0.890920 0.501002 0.112029 0.824452
C42   C     C_R   0.589676 0.681714 0.996326 -0.320174
C43   C     C_R   0.410151 0.317689 0.003282 -0.322017
C44   C     C_R   0.604316 0.773213 0.070066 0.248170
C45   C     C_3   0.442785 0.967157 0.926935 -0.413504
C46   C     C_R   0.395057 0.226043 0.929285 0.249312
C47   C     C_R   0.662466 0.867671 0.080254 0.583749
C48   C     C_R   0.336569 0.131511 0.918899 0.583546
C49   C     C_R   0.700275 0.871211 0.015894 -0.305624
C50   C     C_R   0.298876 0.127933 0.983315 -0.311867
C51   C     C_R   0.589778 0.582382 0.049130 -0.122697
C52   C     C_R   0.410383 0.417134 0.950334 -0.122653
C53   C     C_R   0.549646 0.497208 0.054144 -0.012663
C54   C     C_R   0.450431 0.502362 0.945447 -0.017404
C55   C     C_R   0.458404 0.413164 0.004490 0.214793
C56   C     C_3   0.557171 0.032844 0.073034 -0.408501
C57   C     C_R   0.541603 0.586353 0.995128 0.213741
C58   C     C_R   0.012408 0.665798 0.835782 0.673587
C59   C     C_R   0.985695 0.330632 0.161069 0.711389
C60   C     C_R   0.034897 0.639760 0.887752 -0.069269
C61   C     C_R   0.963817 0.357779 0.109832 -0.032829
C62   C     C_R   0.971533 0.545594 0.877241 0.014806
C63   C     C_R   0.027362 0.452783 0.121751 -0.009913
C64   C     C_R   0.392780 0.499277 0.608459 0.889056
C65   C     C_R   0.607215 0.500705 0.391531 0.898335
C66   C     C_R   0.884856 0.479305 0.815130 -0.166745
C67   C     C_3   0.547350 0.039574 0.958563 0.611872
C68   C     C_R   0.113537 0.518905 0.184638 -0.154131
C69   C     C_R   0.861863 0.507015 0.765132 -0.071204
C70   C     C_R   0.135880 0.490225 0.234056 -0.090008
C71   C     C_R   0.925479 0.600116 0.775467 -0.123547
C72   C     C_R   0.072142 0.396213 0.222234 -0.151349
C73   C     C_R   0.937848 0.522873 0.996176 -0.128685
C74   C     C_R   0.062004 0.476970 0.003694 -0.128762
C75   C     C_R   0.947461 0.499647 0.055692 -0.073066
C76   C     C_R   0.052396 0.500195 0.944172 -0.074918
C77   C     C_R   0.010231 0.475808 0.059489 0.070009
C78   C     C_3   0.452605 0.960431 0.041407 0.605189
C79   C     C_R   0.989421 0.523724 0.940181 0.070294
C80   C     C_R   0.394203 0.501107 0.889580 0.897503
C81   C     C_R   0.605813 0.498743 0.110288 0.901599
C82   C     C_R   0.108797 0.500292 0.608430 0.971867
C83   C     C_R   0.891224 0.499723 0.391555 0.971161
C84   C     C_3   0.082384 0.540009 0.493381 0.357250
C85   C     C_3   0.917657 0.459962 0.506513 0.352481
C86   C     C_3   0.035853 0.596024 0.524024 0.670436
C87   C     C_3   0.964202 0.403964 0.475882 0.670769
C88   C     C_3   0.948628 0.498476 0.447403 -0.359218
C89   C     C_3   0.549773 0.103110 0.053434 -0.389391
C90   C     C_3   0.051424 0.501522 0.552520 -0.359612
F1    F     F_    0.073172 0.695644 0.547855 -0.550333
F2    F     F_    0.924231 0.238789 0.148896 -0.586741
F3    F     F_    0.597763 0.080911 0.915951 -0.567408
F4    F     F_    0.402186 0.919095 0.084017 -0.574516
F5    F     F_    0.390140 0.062867 0.048051 -0.632794
F6    F     F_    0.609812 0.937151 0.951877 -0.622847
F7    F     F_    0.926886 0.304344 0.452047 -0.550211
F8    F     F_    0.187566 0.116001 0.693928 -0.575941
F9    F     F_    0.814098 0.884231 0.305060 -0.573297
F10   F     F_    0.899628 0.061675 0.677574 -0.558427
F11   F     F_    0.101874 0.937897 0.324125 -0.556987
F12   F     F_    0.682698 0.957697 0.152519 -0.546293
F13   F     F_    0.315931 0.041424 0.846389 -0.547029
F14   F     F_    0.073782 0.756696 0.846390 -0.615287
H1    H     H_    0.211032 0.194100 0.859799 0.209313
H2    H     H_    0.090143 0.373688 0.259787 0.213594
H3    H     H_    0.100546 0.694453 0.938100 0.193012
H4    H     H_    0.898474 0.303378 0.059053 0.215481
H5    H     H_    0.834114 0.407968 0.807813 0.180526
H6    H     H_    0.164409 0.590904 0.193034 0.180468
H7    H     H_    0.794102 0.457230 0.719612 0.212165
H8    H     H_    0.203274 0.539943 0.280225 0.199665
H9    H     H_    0.888774 0.539609 0.992625 0.186932
H10   H     H_    0.111077 0.460243 0.007262 0.187775
H11   H     H_    0.989418 0.392044 0.346519 0.232524
H12   H     H_    0.792637 0.807808 0.139735 0.213044
H13   H     H_    0.010647 0.608019 0.653366 0.235597
H14   H     H_    0.396300 0.941042 0.867423 0.272375
H15   H     H_    0.603656 0.058965 0.132548 0.272588
H16   H     H_    0.536734 0.376000 0.466881 0.202207
H17   H     H_    0.463224 0.623883 0.533060 0.201211
H18   H     H_    0.414582 0.454884 0.364881 0.250003
H19   H     H_    0.585484 0.544889 0.634916 0.254361
H20   H     H_    0.239609 0.396781 0.001316 0.363438
H21   H     H_    0.762869 0.609742 0.998257 0.363546
H22   H     H_    0.925415 0.059661 0.920345 0.397829
H23   H     H_    0.944920 0.897306 0.563512 0.203546
H24   H     H_    0.131694 0.876781 0.032300 0.405047
H25   H     H_    0.697259 0.899302 0.847855 0.438277
H26   H     H_    0.301919 0.099321 0.151832 0.430096
H27   H     H_    0.512847 0.445381 0.707284 0.371681
H28   H     H_    0.314535 0.467179 0.250142 0.372155
H29   H     H_    0.419009 0.672049 0.151185 0.405462
H30   H     H_    0.581012 0.326072 0.848454 0.406012
H31   H     H_    0.271472 0.697187 0.445749 0.390196
H32   H     H_    0.728363 0.302225 0.553558 0.391887
H33   H     H_    0.385924 0.194302 0.356421 0.365581
H34   H     H_    0.055718 0.102720 0.436670 0.204810
H35   H     H_    0.613986 0.805486 0.643830 0.366973
H36   H     H_    0.743361 0.945592 0.025491 0.292661
H37   H     H_    0.255598 0.053486 0.973563 0.285405
H38   H     H_    0.659233 0.647501 0.088538 0.172367
H39   H     H_    0.341101 0.352015 0.910657 0.174398
H40   H     H_    0.907038 0.621892 0.737430 0.214405
O1    O     O_3   0.251620 0.500000 0.748430 -0.542657
O2    O     O_R   0.570330 0.268390 0.136490 -0.618276
O3    O     O_R   0.134680 0.268390 0.572240 -0.615337
O4    O     O_R   0.865320 0.731610 0.427760 -0.615696
O5    O     O_R   0.306670 0.731630 0.863510 -0.608513
O6    O     O_R   0.693330 0.268370 0.136490 -0.605643
O7    O     O_R   0.135450 0.439270 0.865360 -0.643895
O8    O     O_R   0.864550 0.560730 0.134640 -0.645116
O9    O     O_R   0.429670 0.560710 0.692610 -0.582797
O10   O     O_R   0.570330 0.439290 0.307390 -0.591293
O11   O     O_R   0.308540 0.439240 0.865360 -0.665484
O12   O     O_3   0.748380 0.500000 0.251570 -0.543468
O13   O     O_R   0.691460 0.560760 0.134640 -0.664416
O14   O     O_R   0.133580 0.439310 0.571150 -0.586788
O15   O     O_R   0.866420 0.560690 0.428850 -0.587309
O16   O     O_R   0.430770 0.560690 0.864590 -0.613406
O17   O     O_R   0.569230 0.439310 0.135410 -0.622979
O18   O     O_R   0.133580 0.560760 0.692610 -0.643788
O19   O     O_R   0.866420 0.439240 0.307390 -0.646112
O20   O     O_2   0.079965 0.307473 0.020823 -0.277445
O21   O     O_2   0.114702 0.190244 0.012981 -0.174509
O22   O     O_3   0.237301 0.349528 0.015038 -0.524520
O23   O     O_R   0.134680 0.560740 0.864590 -0.658843
O24   O     O_2   0.895647 0.817156 0.989282 -0.141218
O25   O     O_2   0.924126 0.695098 0.980381 -0.289062
O26   O     O_3   0.767914 0.658089 0.984590 -0.535147
O27   O     O_2   0.918922 0.230506 0.897045 -0.265015
O28   O     O_2   0.820284 0.042625 0.793552 -0.126803
O29   O     O_3   0.919171 0.117780 0.944653 -0.411033
O30   O     O_2   0.183152 0.956848 0.209440 -0.133964
O31   O     O_2   0.083044 0.768887 0.104373 -0.307660
O32   O     O_3   0.086316 0.884776 0.058556 -0.416938
O33   O     O_2   0.795184 0.785340 0.845087 -0.135917
O34   O     O_R   0.865320 0.439260 0.135410 -0.661029
O35   O     O_2   0.640355 0.711386 0.769538 -0.252835
O36   O     O_3   0.751023 0.910583 0.877443 -0.455099
O37   O     O_2   0.359358 0.287084 0.230076 -0.262168
O38   O     O_2   0.204576 0.213479 0.154925 -0.109912
O39   O     O_3   0.248529 0.088112 0.121628 -0.447498
O40   O     O_2   0.694036 0.595240 0.807774 -0.183137
O41   O     O_2   0.593242 0.493036 0.857336 -0.292544
O42   O     O_3   0.523613 0.512583 0.752319 -0.539857
O43   O     O_2   0.464444 0.474545 0.239981 -0.295915
O44   O     O_2   0.414140 0.510330 0.146950 -0.279121
O45   O     O_R   0.306670 0.439270 0.571150 -0.587977
O46   O     O_3   0.295541 0.402712 0.193133 -0.429380
O47   O     O_2   0.600931 0.764633 0.210582 -0.212423
O48   O     O_2   0.553950 0.867344 0.205078 -0.145836
O49   O     O_3   0.443312 0.667669 0.102297 -0.579643
O50   O     O_2   0.444997 0.131544 0.794038 -0.145414
O51   O     O_2   0.399053 0.235267 0.789057 -0.221693
O52   O     O_3   0.556345 0.331104 0.897243 -0.578313
O53   O     O_2   0.260906 0.673116 0.579529 -0.269296
O54   O     O_2   0.209581 0.515915 0.434040 -0.310429
O55   O     O_3   0.207076 0.662053 0.442082 -0.507041
O56   O     O_R   0.693330 0.560730 0.428850 -0.588714
O57   O     O_2   0.789839 0.483433 0.564891 -0.298415
O58   O     O_2   0.739277 0.326078 0.419846 -0.269897
O59   O     O_3   0.792944 0.338091 0.557925 -0.508659
O60   O     O_2   0.304066 0.249748 0.472868 -0.280230
O61   O     O_2   0.246514 0.270742 0.369571 -0.170826
O62   O     O_3   0.339876 0.193304 0.326350 -0.446279
O63   O     O_2   0.753448 0.729055 0.630379 -0.175285
O64   O     O_2   0.695932 0.750325 0.527299 -0.270712
O65   O     O_3   0.660110 0.806506 0.673815 -0.449652
O66   O     O_R   0.135450 0.268370 0.694460 -0.655687
O67   O     O_R   0.864550 0.731630 0.305540 -0.655669
O68   O     O_R   0.429670 0.731610 0.863510 -0.616258
S1    S     S_3+6 0.127067 0.256587 0.981722 0.083900
S2    S     S_3+6 0.447762 0.228038 0.848342 0.119484
S3    S     S_3+6 0.194153 0.598225 0.488104 0.066855
S4    S     S_3+6 0.805761 0.401430 0.511439 0.069696
S5    S     S_3+6 0.324638 0.277318 0.407520 0.129986
S6    S     S_3+6 0.675339 0.722575 0.592535 0.131341
S7    S     S_3+6 0.879012 0.748587 0.019270 0.104952
S8    S     S_3+6 0.911440 0.132054 0.862415 0.176495
S9    S     S_3+6 0.092295 0.868449 0.139738 0.168496
S10   S     S_3+6 0.717206 0.794422 0.854566 0.178133
S11   S     S_3+6 0.282552 0.204503 0.144995 0.193378
S12   S     S_3+6 0.612010 0.569778 0.836591 0.112049
S13   S     S_3+6 0.389150 0.429452 0.164120 0.113602
S14   S     S_3+6 0.551707 0.771169 0.151055 0.122476
Zn1   Zn    Zn3+2 0.207400 0.586780 0.791530 1.037467
Zn2   Zn    Zn3+2 0.792600 0.413220 0.208470 1.038755
Zn3   Zn    Zn3+2 0.208510 0.413230 0.792630 1.006789
Zn4   Zn    Zn3+2 0.791490 0.586770 0.207370 1.008027
Zn5   Zn    Zn3+2 0.383150 0.586740 0.791530 1.079488
Zn6   Zn    Zn3+2 0.616850 0.413260 0.208470 1.082815
Zn7   Zn    Zn3+2 0.207400 0.413250 0.618010 1.113586
Zn8   Zn    Zn3+2 0.792600 0.586750 0.381990 1.115651

loop_
_geom_bond_atom_site_label_1
_geom_bond_atom_site_label_2
_ccdc_geom_bond_type
C45   H14   S    
C30   H34   S    
O67   Zn4   S    
O1    Zn7   S    
O37   S11   D    
O46   S13   S    
C69   H7    S    
C14   C18   A    
C17   O6    A    
C84   C90   S    
C76   C79   A    
C6    C9    S    
O18   Zn1   S    
C73   H9    S    
C47   C49   A    
C41   O8    A    
O2    Zn6   S    
H35   O65   S    
C15   C19   A    
O1    Zn1   S    
O61   S5    D    
O38   S11   D    
C74   C76   A    
O55   S3    S    
O65   S6    S    
C1    O3    A    
C60   C62   A    
C19   C21   A    
O56   Zn8   S    
O49   S14   S    
C5    C11   S    
H26   O39   S    
O14   Zn7   S    
H31   O55   S    
C82   O14   A    
C86   C88   S    
C8    H17   S    
C80   O16   A    
C66   C69   A    
C21   C33   S    
C58   C60   A    
C74   H10   S    
C67   C89   S    
C56   C78   S    
C53   C81   S    
C24   F11   S    
C34   C86   S    
C38   S12   S    
C61   C63   A    
O29   S8    S    
O12   Zn6   S    
O51   S2    D    
C83   O19   A    
C61   H4    S    
C6    S6    S    
C20   C35   S    
C14   H1    S    
C5    S5    S    
O12   Zn8   S    
C40   O23   A    
C22   C25   A    
C45   C67   S    
C31   C33   A    
O36   S10   S    
C16   O5    A    
C51   C57   A    
C14   C27   A    
C2    C16   S    
C54   C80   S    
O27   S8    D    
O53   S3    D    
C52   C55   A    
O40   S12   D    
C59   C72   A    
O12   Zn2   S    
C34   H13   S    
C48   C50   A    
C83   C88   S    
O1    Zn5   S    
C69   C71   A    
C2    C45   S    
C47   F12   S    
C23   C87   S    
C4    C56   S    
C73   C75   A    
O30   S9    D    
C42   C44   A    
O54   S3    D    
C42   C57   S    
C52   C54   A    
O13   Zn4   S    
C64   O45   A    
O8    Zn4   S    
H33   O62   S    
C53   C55   A    
O62   S5    S    
O64   S6    D    
C37   C39   A    
H25   O36   S    
C46   C48   A    
C59   C61   A    
C52   H39   S    
O6    Zn2   S    
C23   C84   S    
C62   C66   A    
C85   C87   S    
C32   C35   A    
C41   O34   A    
C16   O68   A    
C81   O13   A    
C37   S11   S    
O44   S13   D    
O32   S9    S    
C85   S4    S    
O4    Zn8   S    
C5    C7    S    
O68   Zn5   S    
C19   F9    S    
C39   C43   A    
C51   H38   S    
O35   S10   D    
C46   S2    S    
H24   O32   S    
C64   O9    A    
O41   S12   D    
C1    C32   S    
C40   C76   S    
C40   O7    A    
C51   C53   A    
C84   S3    S    
C49   H36   S    
C2    C4    S    
C34   C90   S    
O57   S4    D    
C65   O10   A    
C2    C78   S    
C41   C75   S    
O17   Zn6   S    
O52   S2    S    
O59   S4    S    
O23   Zn1   S    
C74   C77   A    
C26   S9    S    
O31   S9    D    
O16   Zn5   S    
C17   C89   S    
O33   S10   D    
C68   H6    S    
O24   S7    D    
C60   H3    S    
H21   O26   S    
C75   C77   A    
H22   O29   S    
C70   H8    S    
C13   H19   S    
H20   O22   S    
O3    Zn7   S    
O21   S1    D    
C56   C89   S    
O25   S7    D    
C72   H2    S    
C28   S7    S    
C23   C88   S    
C9    C11   S    
C12   C31   S    
C25   C27   A    
O5    Zn1   S    
C56   H15   S    
C21   C24   A    
C11   H18   S    
C58   F14   S    
O19   Zn2   S    
H28   O46   S    
C3    F5    S    
O45   Zn7   S    
C80   O11   A    
C27   S1    S    
O26   S7    S    
C63   C77   S    
C85   C88   S    
C43   C55   S    
C7    C9    S    
O1    Zn3   S    
C63   C68   A    
O63   S6    D    
C30   C33   A    
O10   Zn6   S    
C1    O66   A    
C36   S10   S    
C81   O17   A    
C7    H16   S    
C8    C10   S    
C10   C64   S    
C24   C26   A    
C12   O67   A    
C20   C22   A    
C73   C79   A    
C10   C13   S    
O28   S8    D    
O50   S2    D    
C4    C67   S    
C6    C8    S    
C44   C47   A    
C38   C42   A    
O20   S1    D    
O47   S14   D    
H29   O49   S    
C82   O18   A    
C29   C35   A    
C65   O56   A    
C26   C28   A    
C82   C90   S    
C3    C89   S    
O60   S5    D    
C86   F1    S    
C12   O4    A    
C29   H23   S    
C17   O2    A    
C3    C45   S    
C5    C10   S    
C29   C31   A    
C36   C38   A    
C30   C32   A    
C37   C50   A    
C48   F13   S    
C15   C28   A    
O7    Zn3   S    
O9    Zn5   S    
O34   Zn2   S    
C78   F4    S    
C8    C11   S    
O43   S13   D    
O48   S14   D    
O15   Zn8   S    
O66   Zn3   S    
O11   Zn3   S    
C4    F6    S    
C18   C20   A    
C59   F2    S    
C66   H5    S    
C58   C71   A    
C43   C46   A    
C9    C65   S    
C62   C79   S    
C39   S13   S    
C22   F10   S    
C50   H37   S    
O22   S1    S    
C23   H11   S    
H27   O42   S    
O12   Zn4   S    
O42   S12   S    
C7    C13   S    
C83   O15   A    
O39   S11   S    
C87   C90   S    
C67   F3    S    
C68   C70   A    
C15   H12   S    
C84   C86   S    
C25   S8    S    
C70   C72   A    
H30   O52   S    
C18   F8    S    
O58   S4    D    
C87   F7    S    
C3    C78   S    
C44   S14   S    
C34   C85   S    
H32   O59   S    
C36   C49   A    
C71   H40   S    
C6    C13   S    
C54   C57   A    
