data_mof_unit_23935.cif
_audit_creation_date              2012-10-26T21:02:56-0400
_audit_creation_method            fapswitch 2.2
_symmetry_space_group_name_H-M    P1
_symmetry_Int_Tables_number       1
_space_group_crystal_system       triclinic
_cell_length_a                    12.346352
_cell_length_b                    13.14099
_cell_length_c                    23.463346
_cell_angle_alpha                 77.193198
_cell_angle_beta                  100.57128
_cell_angle_gamma                 116.615052
_cell_volume                      3303.22778045

loop_
_atom_site_label
_atom_site_type_symbol
_atom_type_description
_atom_site_fract_x
_atom_site_fract_y
_atom_site_fract_z
_atom_type_partial_charge
C1    C     C_R   0.855066 0.286391 0.505130 0.518417
C2    C     C_R   0.086418 0.598326 0.876635 0.401641
C3    C     C_R   0.970347 0.582911 0.747063 -0.063125
C4    C     C_R   0.000598 0.501596 0.608607 0.536173
C5    C     C_R   0.969574 0.581834 0.687691 -0.160401
C6    C     C_R   0.002064 0.504075 0.670786 0.003436
C7    C     C_R   0.038388 0.429584 0.713814 -0.142978
C8    C     C_R   0.039185 0.430758 0.773075 -0.054239
C9    C     C_R   0.004515 0.506889 0.789907 0.240147
C10   C     C_R   0.056401 0.435773 0.253233 -0.039873
C11   C     C_R   0.055801 0.436804 0.312435 -0.138573
C12   C     C_R   0.838126 0.303169 0.036131 0.257257
C13   C     C_R   0.999455 0.496479 0.329015 -0.007854
C14   C     C_R   0.942117 0.553504 0.285582 -0.132190
C15   C     C_R   0.943172 0.552646 0.226430 -0.046787
C16   C     C_R   0.145023 0.713689 0.491497 0.554397
C17   C     C_R   0.000633 0.494158 0.210195 0.244576
C18   C     C_R   0.280190 0.023933 0.420581 -0.117864
C19   C     C_R   0.228424 0.835764 0.479623 0.007806
C20   C     C_R   0.812949 0.083271 0.544922 -0.130504
C21   C     C_R   0.732865 0.968063 0.557294 -0.136535
C22   C     C_R   0.610507 0.931272 0.536561 -0.092732
C23   C     C_R   0.838796 0.310153 0.975954 -0.095125
C24   C     C_R   0.566180 0.009148 0.500542 0.049878
C25   C     C_R   0.651225 0.123593 0.482271 0.020573
C26   C     C_R   0.440578 0.976884 0.481381 0.052992
C27   C     C_R   0.403745 0.054897 0.439972 0.048506
C28   C     C_R   0.000037 0.499126 0.391268 0.547220
C29   C     C_R   0.490771 0.161718 0.417184 -0.124249
C30   C     C_R   0.612745 0.195070 0.437380 -0.107525
C31   C     C_R   0.350083 0.869305 0.502232 -0.091186
C32   C     C_R   0.192884 0.914355 0.439933 -0.129428
C33   C     C_R   0.772951 0.162720 0.508870 -0.003737
C34   C     C_R   0.920622 0.407411 0.942989 -0.019520
C35   C     C_R   0.295602 0.278649 0.546356 -0.150442
C36   C     C_R   0.777269 0.663149 0.430677 -0.005686
C37   C     C_R   0.688437 0.703581 0.412875 -0.130493
C38   C     C_R   0.571379 0.639916 0.430879 0.241929
C39   C     C_R   0.546249 0.536000 0.472147 -0.039513
C40   C     C_R   0.089602 0.587926 0.119067 0.398372
C41   C     C_R   0.640810 0.495711 0.488351 0.142963
C42   C     C_R   0.432899 0.467487 0.498340 0.013506
C43   C     C_R   0.402681 0.349422 0.519537 0.012923
C44   C     C_R   0.487076 0.306263 0.520810 -0.141973
C45   C     C_R   0.005165 0.501299 0.970439 -0.041842
C46   C     C_R   0.609209 0.384382 0.524077 0.064055
C47   C     C_R   0.351465 0.510054 0.507863 0.097392
C48   C     C_R   0.219444 0.325332 0.553780 0.047220
C49   C     C_R   0.918633 0.403883 0.123808 0.431155
C50   C     C_R   0.919782 0.400021 0.064279 0.012353
C51   C     C_R   0.005911 0.498739 0.031095 -0.075910
C52   C     C_R   0.092533 0.594806 0.058202 0.035505
C53   C     C_3   0.670853 0.365199 0.585415 -0.222407
C54   C     C_3   0.685511 0.454445 0.621917 -0.418800
C55   C     C_3   0.271758 0.799344 0.050016 -0.246976
C56   C     C_R   0.088676 0.597716 0.936852 0.023532
C57   C     C_3   0.355167 0.900416 0.008379 -0.423708
C58   C     C_R   0.173295 0.691444 0.963453 -0.093341
C59   C     C_R   0.177690 0.693100 0.023550 0.001066
C60   C     C_R   0.920813 0.411816 0.882679 0.404704
Cu1   Cu    Cu3+1 0.098270 0.475410 0.513370 0.967389
Cu2   Cu    Cu3+1 0.901730 0.524590 0.486630 0.919373
H1    H     H_    0.099137 0.390923 0.345187 0.159629
H2    H     H_    0.765039 0.907333 0.584783 0.116138
H3    H     H_    0.775400 0.237767 0.954528 0.208894
H4    H     H_    0.676410 0.276698 0.416214 0.160489
H5    H     H_    0.135334 0.269534 0.573162 0.123334
H6    H     H_    0.463264 0.216289 0.539277 0.112879
H7    H     H_    0.272495 0.188297 0.562990 0.096618
H8    H     H_    0.370476 0.599481 0.495101 0.188085
H9    H     H_    0.865178 0.712985 0.413950 0.141771
H10   H     H_    0.710373 0.783501 0.382326 0.161184
H11   H     H_    0.236198 0.763789 0.936330 0.170807
H12   H     H_    0.898018 0.600024 0.297295 0.137343
H13   H     H_    0.943911 0.642273 0.759830 0.132590
H14   H     H_    0.944044 0.641753 0.655042 0.118393
H15   H     H_    0.064492 0.369457 0.701563 0.124911
H16   H     H_    0.066375 0.372310 0.806016 0.136832
H17   H     H_    0.100594 0.390202 0.240702 0.141377
H18   H     H_    0.750656 0.051827 0.152101 0.378670
H19   H     H_    0.270496 0.607337 0.358993 0.377316
H20   H     H_    0.743413 0.543088 0.601502 0.167894
H21   H     H_    0.594984 0.449977 0.625606 0.143594
H22   H     H_    0.726606 0.435553 0.666837 0.156427
H23   H     H_    0.899871 0.597732 0.193134 0.135118
H24   H     H_    0.614246 0.280266 0.610536 0.112896
H25   H     H_    0.753649 0.354204 0.585987 0.193114
H26   H     H_    0.412566 0.873892 0.989202 0.181220
H27   H     H_    0.300898 0.934341 0.973080 0.157628
H28   H     H_    0.416763 0.971249 0.033403 0.217390
H29   H     H_    0.222737 0.834264 0.069678 0.205060
H30   H     H_    0.332395 0.772525 0.084768 0.216469
H31   H     H_    0.098907 0.889493 0.421934 0.121791
H32   H     H_    0.464440 0.220195 0.383729 0.130158
H33   H     H_    0.251649 0.083191 0.388965 0.123254
H34   H     H_    0.371803 0.808303 0.535393 0.113422
H35   H     H_    0.905849 0.110673 0.564934 0.120170
H36   H     H_    0.553854 0.840769 0.548393 0.111613
N1    N     N_R   0.003340 0.495073 0.149318 -0.409873
N2    N     N_R   0.003351 0.506124 0.850964 -0.392319
N3    N     N_R   0.246280 0.438190 0.533650 -0.247682
N4    N     N_R   0.754320 0.561190 0.466710 -0.238477
O1    O     O_R   0.972510 0.318130 0.516820 -0.513930
O2    O     O_R   0.082990 0.479280 0.429170 -0.468415
O3    O     O_R   0.917010 0.520800 0.406580 -0.504350
O4    O     O_2   0.171283 0.672400 0.148713 -0.497303
O5    O     O_2   0.636041 0.182716 0.092407 -0.232679
O6    O     O_2   0.682537 0.078913 0.032978 -0.310055
O7    O     O_3   0.813665 0.121889 0.131711 -0.468326
O8    O     O_2   0.449321 0.769142 0.420757 -0.317799
O9    O     O_2   0.498513 0.745041 0.330026 -0.248510
O10   O     O_3   0.324238 0.572591 0.382592 -0.531037
O11   O     O_2   0.832575 0.319488 0.156410 -0.386921
O12   O     O_2   0.838960 0.322712 0.855812 -0.495768
O13   O     O_2   0.167342 0.689733 0.844080 -0.500641
O14   O     O_R   0.806530 0.359650 0.494230 -0.517235
O15   O     O_R   0.082990 0.479200 0.593420 -0.497398
O16   O     O_R   0.917010 0.520720 0.570830 -0.513397
O17   O     O_R   0.193470 0.640350 0.505770 -0.493558
O18   O     O_R   0.027490 0.681870 0.483180 -0.516855
S1    S     S_3+6 0.737129 0.168316 0.072957 0.048960
S2    S     S_3+6 0.459956 0.685244 0.390279 -0.011853

loop_
_geom_bond_atom_site_label_1
_geom_bond_atom_site_label_2
_ccdc_geom_bond_type
C49   O11   S    
C8    H16   S    
C22   H36   S    
C55   C59   S    
C27   C29   A    
C60   O12   S    
O6    S1    D    
C19   C31   A    
C40   N1    A    
C54   H22   S    
C1    C33   S    
C7    C8    A    
C39   C41   A    
Cu2   O3    S    
C53   C54   S    
Cu2   O14   S    
C12   C23   A    
C26   C27   A    
C29   C30   A    
C57   H27   S    
C47   N3    A    
C14   H12   S    
C36   C37   A    
Cu1   O1    S    
C24   C26   A    
C11   H1    S    
C16   O18   A    
C29   H32   S    
Cu1   O17   S    
C35   C48   A    
C10   C17   A    
C31   H34   S    
C41   N4    A    
C36   N4    A    
C21   H2    S    
C55   H29   S    
C12   S1    S    
C45   C56   A    
C8    C9    A    
H18   O7    S    
C41   C46   A    
C13   C28   S    
C53   H24   S    
C1    O14   A    
C35   C43   A    
C1    O1    A    
Cu2   O18   S    
C36   H9    S    
C7    H15   S    
C32   H31   S    
C2    N2    A    
C26   C31   A    
C13   C14   A    
O9    S2    D    
C34   C60   A    
C18   H33   S    
C4    O16   A    
C19   C32   A    
C54   H21   S    
C44   C46   A    
C39   C42   A    
C38   C39   A    
C57   H28   S    
C20   H35   S    
Cu1   O15   S    
C51   C52   A    
Cu1   O2    S    
C24   C25   A    
C4    C6    S    
C16   O17   A    
C3    C5    A    
C58   C59   A    
C40   C52   A    
Cu1   N3    S    
C43   C44   A    
C47   H8    S    
O10   S2    S    
C37   C38   A    
C3    C9    A    
C52   C59   A    
C49   N1    A    
C2    O13   S    
C28   O2    A    
H19   O10   S    
C28   O3    A    
C23   C34   A    
C50   C51   A    
C53   H25   S    
C34   C45   A    
C38   S2    S    
C17   N1    S    
C30   H4    S    
C20   C33   A    
C55   H30   S    
C9    N2    S    
C55   C57   S    
C22   C24   A    
C4    O15   A    
C44   H6    S    
C18   C32   A    
C42   C43   A    
O5    S1    D    
C54   H20   S    
C3    H13   S    
C40   O4    S    
C25   C30   A    
C15   C17   A    
C18   C27   A    
C60   N2    A    
C12   C50   A    
C10   H17   S    
C6    C7    A    
C57   H26   S    
C15   H23   S    
C23   H3    S    
C5    H14   S    
C2    C56   A    
O8    S2    D    
C11   C13   A    
O7    S1    S    
C5    C6    A    
C16   C19   S    
C48   N3    A    
C46   C53   S    
C56   C58   A    
C42   C47   A    
C48   H5    S    
Cu1   Cu2   S    
Cu2   O16   S    
C10   C11   A    
C20   C21   A    
C35   H7    S    
C49   C50   A    
C37   H10   S    
C45   C51   A    
C14   C15   A    
C21   C22   A    
C58   H11   S    
C25   C33   A    
Cu2   N4    S    
