data_mof_unit_34170.cif
_audit_creation_date              2013-03-05T16:18:13-0500
_audit_creation_method            fapswitch 2.2
_symmetry_space_group_name_H-M    P1
_symmetry_Int_Tables_number       1
_space_group_crystal_system       triclinic
_cell_length_a                    8.451841
_cell_length_b                    19.085183
_cell_length_c                    22.781045
_cell_angle_alpha                 100.248143
_cell_angle_beta                  89.500517
_cell_angle_gamma                 92.102218
_cell_volume                      3613.62786316

loop_
_atom_site_label
_atom_site_type_symbol
_atom_site_description
_atom_site_fract_x
_atom_site_fract_y
_atom_site_fract_z
_atom_type_partial_charge
P1    P     P_3+3 0.933470 0.664380 0.557030 0.499147
O1    O     O_2   0.108070 0.674980 0.540650 -0.349305
O2    O     O_3   0.861930 0.586170 0.535430 -0.404938
O3    O     O_3   0.366390 0.628250 0.433820 -0.375498
O4    O     O_2   0.309280 0.755609 0.487486 -0.309651
O5    O     O_3   0.926099 0.686384 0.634762 -0.552194
O6    O     O_3   0.331763 0.742711 0.371446 -0.442391
H1    H     H_    0.412129 0.652392 0.315837 0.080552
C1    C     C_3   0.356929 0.734826 0.266271 -0.686784
H2    H     H_    0.246979 0.704076 0.250789 0.252560
H3    H     H_    0.332608 0.792561 0.275559 0.271976
P2    P     P_3+3 0.383600 0.440030 0.365120 0.554403
P3    P     P_3+3 0.941842 0.585209 0.324719 0.626690
O7    O     O_2   0.211060 0.461230 0.357810 -0.255020
O8    O     O_3   0.958150 0.591500 0.402390 -0.314795
O9    O     O_2   0.068986 0.533216 0.297550 -0.247437
O10   O     O_3   0.371262 0.347060 0.345729 -0.515478
O11   O     O_3   0.010964 0.664745 0.302992 -0.558843
C2    C     C_3   0.917538 0.723006 0.326385 0.752574
H4    H     H_    0.799043 0.705853 0.341139 -0.224852
C3    C     C_3   0.892971 0.766836 0.276431 -0.173394
H5    H     H_    0.008441 0.788431 0.262479 0.163173
H6    H     H_    0.842987 0.730559 0.236889 0.176243
C4    C     C_3   0.799069 0.367105 0.341186 1.057888
H7    H     H_    0.686734 0.380476 0.365234 -0.066021
C5    C     C_3   0.759250 0.337761 0.275856 -0.158100
H8    H     H_    0.687352 0.287293 0.272582 0.164897
H9    H     H_    0.686963 0.376350 0.257927 0.076722
Ba1   Ba    Ba6+2 0.157290 0.533910 0.474710 1.679470
C6    C     C_3   0.004233 0.636204 0.660198 0.207401
H10   H     H_    0.126620 0.630795 0.642665 0.070942
H11   H     H_    0.938303 0.584126 0.650245 0.090611
C7    C     C_3   0.012581 0.662449 0.727652 -0.095858
H12   H     H_    0.055882 0.719022 0.737080 0.176371
H13   H     H_    0.099002 0.631344 0.747659 0.057573
C8    C     C_3   0.322184 0.317608 0.395154 0.270176
H14   H     H_    0.209288 0.340570 0.412618 0.050636
H15   H     H_    0.413012 0.328147 0.430771 0.124048
C9    C     C_3   0.296746 0.237095 0.376021 -0.103531
H16   H     H_    0.188256 0.226229 0.348119 0.173778
H17   H     H_    0.278501 0.211824 0.415919 0.047402
P4    P     P_3+3 0.876840 0.335610 0.442930 0.521649
O12   O     O_2   0.702240 0.324970 0.459330 -0.369119
O13   O     O_3   0.948380 0.413820 0.464520 -0.364870
O14   O     O_3   0.443920 0.371740 0.566130 -0.328631
O15   O     O_3   0.878729 0.315611 0.364914 -0.587260
P5    P     P_3+3 0.877519 0.421612 0.675329 0.614206
O16   O     O_3   0.358830 0.538360 0.571050 -0.424298
O17   O     O_3   0.852160 0.408490 0.597560 -0.405619
O18   O     O_2   0.722155 0.451954 0.702959 -0.242609
O19   O     O_3   0.890300 0.339306 0.699938 -0.426868
Ba2   Ba    Ba6+2 0.652900 0.466090 0.525240 1.691910
P6    P     P_3+3 0.409602 0.717970 0.435109 0.513011
C10   C     C_3   0.420381 0.711605 0.321894 0.375345
H18   H     H_    0.545794 0.730340 0.327195 0.052102
H19   H     H_    0.445247 0.725504 0.229881 0.263613
O20   O     O_3   0.451480 0.461630 0.428900 -0.425457
C11   C     C_3   0.492130 0.685392 0.614394 0.347526
H20   H     H_    0.606532 0.662247 0.598571 0.089609
H21   H     H_    0.403918 0.674425 0.577747 0.121270
C12   C     C_3   0.517191 0.765577 0.632046 -0.732799
H22   H     H_    0.608912 0.778251 0.667301 0.275788
H23   H     H_    0.556985 0.788423 0.592755 0.231590
H24   H     H_    0.404612 0.790016 0.648961 0.278653
P7    P     P_3+3 0.423810 0.564871 0.644960 0.532305
O21   O     O_2   0.599240 0.538720 0.642170 -0.301254
O22   O     O_3   0.437370 0.657741 0.664164 -0.526943
C13   C     C_3   0.842716 0.282126 0.654528 0.314853
H25   H     H_    0.716516 0.285563 0.646448 0.120695
H26   H     H_    0.904260 0.285975 0.612000 0.056297
C14   C     C_3   0.880666 0.207722 0.670081 0.242794
H27   H     H_    0.006562 0.199024 0.659537 0.069668
P8    P     P_3+3 0.393682 0.281141 0.565855 0.517816
C15   C     C_3   0.404226 0.269276 0.685814 0.726017
O23   O     O_2   0.495422 0.242803 0.513972 -0.394980
O24   O     O_3   0.458647 0.243733 0.626490 -0.597770
H28   H     H_    0.363265 0.160207 0.700085 0.123142
C16   C     C_3   0.440473 0.206911 0.719502 -0.108044
H29   H     H_    0.562830 0.190451 0.709339 0.144072
C17   C     C_R   0.955667 0.198243 0.463865 -0.335214
H30   H     H_    0.886471 0.177182 0.424588 0.176943
C18   C     C_R   0.984552 0.272628 0.477695 0.280002
C19   C     C_R   0.123856 0.186283 0.545681 -0.335262
H31   H     H_    0.168240 0.159407 0.579645 0.159688
C20   C     C_R   0.189530 0.254333 0.543366 0.310065
C21   C     C_R   0.686389 0.807995 0.447109 -0.228865
H32   H     H_    0.645989 0.831945 0.410776 0.161596
C22   C     C_R   0.618651 0.741335 0.452329 0.151723
C23   C     C_R   0.851888 0.801266 0.531352 -0.289244
H33   H     H_    0.924989 0.824401 0.569044 0.150029
C24   C     C_R   0.821527 0.726564 0.521095 0.354760
C25   C     C_R   0.011291 0.153096 0.502246 0.107090
C26   C     C_R   0.107519 0.299735 0.515457 -0.455072
H34   H     H_    0.147252 0.354972 0.519748 0.150161
C27   C     C_R   0.796228 0.843702 0.490330 0.152953
C28   C     C_R   0.697039 0.698263 0.484206 -0.405898
H35   H     H_    0.654001 0.643984 0.483356 0.139248
C29   C     C_R   0.222210 0.038877 0.524575 -0.312826
C30   C     C_R   0.315201 0.994830 0.550798 -0.238830
C31   C     C_R   0.268165 0.924431 0.547186 0.802083
C32   C     C_R   0.125746 0.900013 0.519665 -0.272242
C33   C     C_R   0.010408 0.947589 0.507752 0.027487
C34   C     C_R   0.061567 0.020882 0.510050 0.133943
C35   C     C_R   0.851524 0.922851 0.491891 0.040216
C36   C     C_R   0.747458 0.974834 0.476609 0.119492
C37   C     C_R   0.798432 0.048385 0.479246 0.086324
C38   C     C_R   0.956658 0.073332 0.496653 0.025895
C39   C     C_R   0.588025 0.956369 0.460052 -0.162430
C40   C     C_R   0.495288 0.000915 0.434190 -0.085544
C41   C     C_R   0.540752 0.071649 0.439275 -0.055593
C42   C     C_R   0.683147 0.095851 0.466592 -0.040806
H36   H     H_    0.282446 0.085476 0.513898 0.178517
H37   H     H_    0.432367 0.013006 0.567033 0.201943
H38   H     H_    0.110162 0.843639 0.507209 0.225359
H39   H     H_    0.526563 0.909674 0.469739 0.158610
H40   H     H_    0.378307 0.982892 0.417667 0.163809
H41   H     H_    0.458929 0.108833 0.427038 0.158268
H42   H     H_    0.695587 0.152373 0.479444 0.195316
H43   H     H_    0.273655 0.327971 0.931431 0.241526
C43   C     C_R   0.638026 0.524739 0.332781 -0.501919
C44   C     C_R   0.348482 0.571874 0.953606 -0.225427
C45   C     C_R   0.302584 0.570273 0.893480 0.681634
O25   O     O_2   0.307372 0.624952 0.872572 -0.482880
N1    N     N_R   0.253767 0.506931 0.857682 -0.172907
C46   C     C_R   0.247254 0.444186 0.880060 0.685838
O26   O     O_2   0.193518 0.389649 0.849362 -0.463013
C47   C     C_R   0.304282 0.442418 0.937697 -0.177491
C48   C     C_R   0.355603 0.506410 0.974599 -0.007205
C49   C     C_R   0.392453 0.636058 0.992978 0.381962
C50   C     C_R   0.448918 0.633420 0.050095 -0.166759
C51   C     C_R   0.460087 0.568585 0.070509 -0.055430
C52   C     C_R   0.413594 0.504731 0.032791 -0.048089
C53   C     C_R   0.312849 0.377787 0.958863 -0.170748
C54   C     C_R   0.374556 0.375800 0.015146 0.889219
C55   C     C_R   0.425765 0.439184 0.052992 -0.339725
C56   C     C_R   0.486858 0.439133 0.110746 0.767769
N2    N     N_R   0.523058 0.502716 0.148737 -0.158899
C57   C     C_R   0.513135 0.566755 0.128660 0.648033
C58   C     C_2   0.070597 0.484367 0.773219 -0.042247
C59   C     C_3   0.033305 0.487595 0.708674 0.108109
C60   C     C_1   0.306895 0.521946 0.696332 0.076867
C61   C     C_2   0.340340 0.527443 0.753775 0.798015
C62   C     C_2   0.216374 0.505890 0.795358 -0.142765
C63   C     C_R   0.717317 0.533280 0.231377 0.261376
C64   C     C_R   0.748712 0.547334 0.293343 0.098864
C65   C     C_R   0.500045 0.485651 0.311970 0.093543
C66   C     C_R   0.460133 0.477912 0.250783 0.181776
C67   C     C_R   0.567661 0.503625 0.210537 -0.142330
O27   O     O_2   0.507436 0.382754 0.127407 -0.443071
O28   O     O_2   0.550082 0.622459 0.161743 -0.607121
C68   C     C_2   0.181175 0.485901 0.671775 -0.437422
H44   H     H_    0.480951 0.683159 0.079227 0.207665
H45   H     H_    0.977365 0.470024 0.802447 0.202504
H46   H     H_    0.666293 0.532489 0.379789 0.200795
H47   H     H_    0.182863 0.456875 0.626200 0.204905
N3    N     N_R   0.902685 0.324865 0.240010 0.311630
O29   O     O_R   0.931709 0.359982 0.196901 -0.220585
O30   O     O_R   0.995610 0.274449 0.247801 -0.257688
N4    N     N_R   0.857347 0.656013 0.755213 0.292994
O31   O     O_R   0.742001 0.694391 0.743122 -0.276157
O32   O     O_R   0.836340 0.615441 0.795045 -0.303144
N5    N     N_R   0.432784 0.206117 0.342393 0.275922
O33   O     O_R   0.571324 0.209673 0.367370 -0.402121
O34   O     O_R   0.415686 0.173818 0.287409 -0.269339
N6    N     N_R   0.785191 0.825322 0.293879 0.246616
O35   O     O_R   0.659037 0.828170 0.262281 -0.360430
O36   O     O_R   0.829833 0.881645 0.331847 -0.335067
N7    N     N_R   0.793699 0.148702 0.632434 0.193621
O37   O     O_R   0.692879 0.159936 0.592792 -0.436531
O38   O     O_R   0.827573 0.083330 0.634923 -0.354043
N8    N     N_R   0.858379 0.201987 0.733258 0.274768
O39   O     O_R   0.807970 0.254258 0.772671 -0.241223
O40   O     O_R   0.904027 0.145187 0.751593 -0.252857
N9    N     N_R   0.234699 0.283015 0.689633 0.175610
O41   O     O_R   0.180384 0.329624 0.660712 -0.460645
O42   O     O_R   0.157747 0.273305 0.737372 -0.313423
N10   N     N_R   0.490225 0.335796 0.709863 0.230129
O43   O     O_R   0.458819 0.392033 0.688264 -0.346816
O44   O     O_R   0.586069 0.342144 0.754928 -0.300390
N11   N     N_R   0.420207 0.218964 0.784566 0.309013
O45   O     O_R   0.443646 0.166490 0.812515 -0.243890
O46   O     O_R   0.384950 0.280295 0.815597 -0.247817
N12   N     N_R   0.000916 0.764953 0.377593 0.232411
O47   O     O_R   0.029159 0.734737 0.422887 -0.358664
O48   O     O_R   0.072054 0.825943 0.374780 -0.372784
F1    F     F_    0.367671 0.878583 0.565243 -0.710054
F2    F     F_    0.381189 0.311506 0.032541 -0.570905
N13   N     N_R   0.838254 0.543902 0.188714 0.274627
O49   O     O_R   0.914219 0.604879 0.192190 -0.361702
O50   O     O_R   0.861684 0.494490 0.142515 -0.311675
N14   N     N_R   0.374198 0.704859 0.977302 0.274092
O51   O     O_R   0.233685 0.724790 0.966084 -0.273451
O52   O     O_R   0.489593 0.752472 0.986934 -0.284749
F3    F     F_    0.489359 0.546827 0.774039 -0.594300
N15   N     N_R   0.312888 0.443442 0.229085 0.277161
O53   O     O_R   0.222028 0.473297 0.195590 -0.318464
O54   O     O_R   0.281802 0.377678 0.234527 -0.233831
F4    F     F_    0.894887 0.427694 0.344781 -0.673042

loop_
_geom_bond_atom_site_label_1
_geom_bond_atom_site_label_2
_geom_bond_distance
_ccdc_geom_bond_type
C43   H46   1.082246 S    
N8    O39   1.299506 A    
C22   C28   1.379421 A    
C43   C65   1.400440 A    
C26   H34   1.082424 S    
P2    Ba1   3.417341 S    
N2    C67   1.457593 S    
C5    N3    1.459510 S    
C66   C67   1.421333 A    
P4    C18   1.825495 S    
P3    C64   1.856817 S    
C63   C67   1.417017 A    
C56   O27   1.221597 D    
C55   C56   1.417746 A    
P5    O17   1.758483 S    
H28   C16   1.112685 S    
C57   O28   1.220809 D    
C19   C25   1.426397 A    
N8    O40   1.301177 A    
C5    H8    1.111247 S    
N6    O35   1.299821 A    
C15   O24   1.430684 S    
P3    O11   1.757186 S    
C42   H42   1.067830 S    
C16   N11   1.468465 S    
C39   H39   1.070870 S    
O14   P8    1.764202 S    
C8    H14   1.105819 S    
C2    C3    1.547103 S    
C4    C5    1.529780 S    
O11   C2    1.410718 S    
N12   O48   1.301931 A    
C6    H10   1.107301 S    
O3    P6    1.732826 S    
C21   C22   1.399871 A    
O12   Ba2   2.883541 S    
C37   C38   1.437941 A    
C58   H45   1.085842 S    
C11   H21   1.110792 S    
C29   C34   1.415649 A    
C3    N6    1.464294 S    
C39   C40   1.385441 A    
N13   O50   1.301190 A    
P1    O1    1.534012 D    
P4    O15   1.750224 S    
P2    C65   1.866620 S    
O2    Ba1   2.961662 S    
C41   C42   1.385291 A    
C40   H40   1.083051 S    
C24   C28   1.384644 A    
N9    O41   1.296092 A    
C58   C62   1.356868 D    
C2    H4    1.110119 S    
C13   H25   1.090289 S    
N10   O44   1.299193 A    
P5    C59   1.857939 S    
N4    O32   1.300631 A    
N1    C62   1.453786 S    
C66   N15   1.435555 S    
C36   C37   1.444209 A    
O10   C8    1.398481 S    
C68   H47   1.086615 S    
O16   P7    1.756479 S    
C23   C24   1.417295 A    
C1    H2    1.106535 S    
O3    Ba1   2.750896 S    
C44   C49   1.422896 A    
O13   Ba2   2.962580 S    
C11   C12   1.518971 S    
N7    O38   1.301322 A    
C4    F4    1.377856 S    
C43   C64   1.400685 A    
P1    C24   1.848073 S    
C18   C26   1.380434 A    
C3    H5    1.111320 S    
C32   H38   1.066331 S    
P8    O23   1.546773 D    
N6    O36   1.300424 A    
C33   C34   1.440946 A    
P4    O13   1.585328 S    
C48   C52   1.423474 A    
C41   H41   1.081367 S    
P1    Ba1   3.452222 S    
C35   C36   1.439216 A    
N11   O46   1.298501 A    
O8    Ba1   2.753838 S    
P5    O18   1.538657 D    
N5    O34   1.300673 A    
C37   C42   1.419772 A    
C36   C39   1.417375 A    
C45   O25   1.221046 D    
C29   H36   1.072798 S    
Ba1   O16   2.777371 S    
N14   O51   1.301312 A    
C32   C33   1.416204 A    
C4    H7    1.107080 S    
C44   C48   1.418422 A    
C17   C18   1.411039 A    
Ba2   O20   2.776717 S    
C2    N12   1.462542 S    
C9    H16   1.112260 S    
C16   H29   1.102502 S    
C17   H30   1.080796 S    
P5    O19   1.766423 S    
O14   Ba2   2.750406 S    
P7    O22   1.748190 S    
C11   H20   1.108410 S    
P1    O5    1.746841 S    
N13   O49   1.298497 A    
P1    O2    1.585361 S    
C23   C27   1.433690 A    
C12   H24   1.110668 S    
C31   F1    1.352862 S    
N12   O47   1.296290 A    
N14   O52   1.301093 A    
P7    C60   1.810737 S    
C25   C38   1.557983 S    
N4    O31   1.300616 A    
C58   C59   1.518882 S    
O17   Ba2   2.754579 S    
C28   H35   1.082207 S    
C12   H23   1.107819 S    
C7    H12   1.111613 S    
C61   F3    1.360688 S    
C13   C14   1.568203 S    
C1    H19   1.105710 S    
H43   C53   1.083168 S    
C9    N5    1.460052 S    
C33   C35   1.434573 A    
C17   C25   1.425796 A    
C1    H3    1.110878 S    
C59   C68   1.498181 S    
P8    C20   1.832714 S    
C44   C45   1.421643 A    
N10   O43   1.294471 A    
P2    O20   1.547345 S    
N7    O37   1.297436 A    
C19   C20   1.403059 A    
Ba1   O20   2.978025 S    
P7    O21   1.578899 D    
C14   N7    1.466670 S    
P3    O8    1.758332 S    
Ba1   O13   2.818762 S    
C50   H44   1.083979 S    
C46   O26   1.220879 D    
P8    O24   1.764132 S    
C14   N8    1.472645 S    
C19   H31   1.078371 S    
P4    O12   1.534237 D    
O6    P6    1.744214 S    
O7    Ba1   2.816642 S    
H1    C10   1.113517 S    
C47   C48   1.410170 A    
Ba2   O21   2.816751 S    
C27   C35   1.559138 S    
C60   C68   1.317212 D    
C65   C66   1.417704 A    
C63   N13   1.438077 S    
O4    P6    1.542958 D    
C10   H18   1.106808 S    
N3    O29   1.300670 A    
C6    C7    1.530568 S    
O5    C6    1.392685 S    
C21   H32   1.077792 S    
C54   F2    1.358050 S    
C8    C9    1.528531 S    
C47   C53   1.406434 A    
P2    O7    1.545806 D    
C56   N2    1.385246 Am   
C30   H37   1.083173 S    
O2    Ba2   2.819218 S    
C15   N9    1.465115 S    
C54   C55   1.411032 A    
C8    H15   1.108872 S    
N5    O33   1.300556 A    
N2    C57   1.384605 Am   
C5    H9    1.107638 S    
C30   C31   1.375527 A    
C63   C64   1.414824 A    
C4    O15   1.398298 S    
C3    H6    1.110193 S    
C50   C51   1.403699 A    
C49   C50   1.399731 A    
C14   H27   1.100804 S    
C51   C57   1.408959 A    
C60   C61   1.326194 D    
P2    O10   1.750041 S    
C6    H11   1.109571 S    
C53   C54   1.395658 A    
C15   N10   1.460122 S    
C52   C55   1.415062 A    
C49   N14   1.434642 S    
N3    O30   1.301078 A    
C31   C32   1.388244 A    
C7    H13   1.107962 S    
P6    C22   1.834815 S    
O19   C13   1.412861 S    
C12   H22   1.110163 S    
N9    O42   1.300236 A    
C21   C27   1.423529 A    
N15   O53   1.301391 A    
C7    N4    1.460121 S    
C11   O22   1.401445 S    
O16   Ba2   2.977080 S    
C20   C26   1.372327 A    
O1    Ba1   2.882796 S    
C9    H17   1.109324 S    
C13   H26   1.108308 S    
C29   C30   1.384418 A    
C15   C16   1.566962 S    
P3    O9    1.539678 D    
C46   C47   1.409093 A    
C61   C62   1.501358 S    
C34   C38   1.435231 A    
C1    C10   1.522749 S    
O6    C10   1.402538 S    
C23   H33   1.080893 S    
C40   C41   1.374974 A    
C45   N1    1.383909 Am   
N11   O45   1.300480 A    
C51   C52   1.405724 A    
P4    Ba2   3.452832 S    
N1    C46   1.381590 Am   
N15   O54   1.300124 A    
Ba1   Ba2   4.643129 S    
