data_mof_unit_9742.cif
_audit_creation_date              2012-12-11T19:58:24-0500
_audit_creation_method            fapswitch 2.2
_symmetry_space_group_name_H-M    P1
_symmetry_Int_Tables_number       1
_space_group_crystal_system       triclinic
_cell_length_a                    8.233334
_cell_length_b                    16.365939
_cell_length_c                    22.748012
_cell_angle_alpha                 107.119529
_cell_angle_beta                  88.628351
_cell_angle_gamma                 83.940574
_cell_volume                      2908.1470713

loop_
_atom_site_label
_atom_site_type_symbol
_atom_type_description
_atom_site_fract_x
_atom_site_fract_y
_atom_site_fract_z
_atom_type_partial_charge
Ba1   Ba    Ba6+2 0.335320 0.541410 0.478120 1.656080
Ba2   Ba    Ba6+2 0.854470 0.458670 0.521900 1.672466
C1    C     C_3   0.980687 0.834961 0.313965 -0.026498
C2    C     C_R   0.568734 0.567600 0.949310 -0.045215
C3    C     C_R   0.518486 0.564593 0.889591 0.596459
C4    C     C_3   0.521618 0.716132 0.340599 0.352814
C5    C     C_R   0.516712 0.411864 0.864108 0.586439
C6    C     C_R   0.557115 0.412965 0.924791 -0.024649
C7    C     C_R   0.586450 0.491826 0.967283 -0.092144
C8    C     C_R   0.601973 0.645140 0.991331 -0.109867
C9    C     C_R   0.654197 0.648715 0.050238 0.194270
C10   C     C_R   0.668482 0.573325 0.069773 -0.023781
C11   C     C_R   0.634367 0.494955 0.027813 -0.091877
C12   C     C_3   0.969594 0.746938 0.324137 0.277335
C13   C     C_R   0.571930 0.337429 0.944093 0.197422
C14   C     C_R   0.618487 0.341568 0.003681 -0.109336
C15   C     C_R   0.649324 0.419355 0.045996 -0.043049
C16   C     C_3   0.496019 0.736206 0.280185 -0.321238
C17   C     C_R   0.694425 0.422579 0.106217 0.591695
C18   C     C_R   0.713767 0.573920 0.130002 0.576819
C19   C     C_2   0.315326 0.441210 0.761480 -0.107966
C20   C     C_3   0.294971 0.417909 0.692880 -0.055522
C21   C     C_1   0.492100 0.518428 0.688110 0.035495
C22   C     C_2   0.537431 0.522610 0.744798 -0.088052
C23   C     C_3   0.065886 0.332223 0.324615 0.311614
C24   C     C_2   0.442717 0.483995 0.785462 0.210868
C25   C     C_R   0.905774 0.539562 0.235535 -0.112306
C26   C     C_R   0.939092 0.549252 0.297259 -0.036411
C27   C     C_R   0.707928 0.474804 0.309343 -0.031477
C28   C     C_3   0.599281 0.726550 0.627422 0.311337
C29   C     C_R   0.667699 0.469181 0.248343 -0.126769
C30   C     C_R   0.765890 0.502372 0.210710 0.230954
C31   C     C_2   0.370899 0.475939 0.662554 -0.275441
C32   C     C_2   0.400561 0.243785 0.488959 -0.255767
C33   C     C_R   0.804511 0.748011 0.509329 -0.278356
C34   C     C_3   0.093438 0.316240 0.255515 -0.398605
C35   C     C_2   0.233774 0.130450 0.438713 -0.140209
C36   C     C_2   0.263220 0.212525 0.451340 0.040354
C37   C     C_2   0.516790 0.188229 0.501465 -0.004513
C38   C     C_3   0.508142 0.092607 0.474342 -0.031364
C39   C     C_3   0.331059 0.071702 0.467667 -0.023968
C40   C     C_3   0.514535 0.818200 0.649412 -0.380310
C41   C     C_2   0.597599 0.037810 0.508065 -0.092021
C42   C     C_2   0.619308 0.952809 0.481765 -0.103298
C43   C     C_R   0.852861 0.921277 0.541740 -0.025206
C44   C     C_R   0.719058 0.893361 0.507521 -0.027475
C45   C     C_3   0.618352 0.260241 0.654568 0.352023
C46   C     C_R   0.958885 0.863614 0.561156 -0.137067
C47   C     C_R   0.935713 0.776600 0.544244 0.082137
C48   C     C_R   0.691621 0.806449 0.493181 -0.002466
C49   C     C_3   0.562156 0.274260 0.281369 0.495611
C50   C     C_3   0.714094 0.239387 0.237632 -0.399589
C51   C     C_3   0.132605 0.653605 0.669392 0.298983
C52   C     C_3   0.127544 0.674963 0.739212 -0.363630
C53   C     C_3   0.531815 0.140857 0.309848 -0.164432
C54   C     C_3   0.110231 0.903502 0.409710 -0.134968
C55   C     C_3   0.679144 0.173851 0.730479 -0.121975
C56   C     C_3   0.551054 0.204395 0.690774 -0.206790
C57   C     C_3   0.767729 0.083682 0.698107 -0.210027
C58   C     C_3   0.671424 0.012497 0.705573 -0.438880
C59   C     C_3   0.367904 0.242590 0.906548 -0.183061
C60   C     C_3   0.861067 0.743165 0.083240 -0.167903
C61   C     C_3   0.139933 0.230083 0.624235 0.392236
C62   C     C_3   0.141648 0.142963 0.635310 -0.386559
C63   C     C_R   0.839333 0.517868 0.333686 -0.270462
H1    H     H_    0.897060 0.755141 0.367824 -0.016759
H2    H     H_    0.067982 0.595986 0.650847 0.072811
H3    H     H_    0.197513 0.730165 0.759000 0.131198
H4    H     H_    0.182150 0.618680 0.752663 0.071747
H5    H     H_    0.998810 0.691835 0.758302 0.132154
H6    H     H_    0.905934 0.708859 0.284722 0.015442
H7    H     H_    0.876083 0.849237 0.287088 0.052235
H8    H     H_    0.932794 0.338091 0.336146 0.009118
H9    H     H_    0.114632 0.393532 0.348303 0.054843
H10   H     H_    0.067522 0.250404 0.229864 0.130309
H11   H     H_    0.012957 0.363885 0.240336 0.075097
H12   H     H_    0.554514 0.851565 0.695691 0.119410
H13   H     H_    0.221364 0.323103 0.243949 0.110195
H14   H     H_    0.093817 0.833801 0.285963 0.104416
H15   H     H_    0.590624 0.775677 0.271733 0.116267
H16   H     H_    0.676328 0.313437 0.686015 0.078131
H17   H     H_    0.512860 0.290600 0.636182 -0.084871
H18   H     H_    0.445833 0.243195 0.721364 0.112863
H19   H     H_    0.501224 0.148927 0.658430 0.081534
H20   H     H_    0.268677 0.243592 0.622758 -0.102813
H21   H     H_    0.089873 0.225733 0.578651 0.082479
H22   H     H_    0.235912 0.095867 0.603718 0.069858
H23   H     H_    0.544748 0.853645 0.616644 0.065645
H24   H     H_    0.021589 0.119333 0.625561 0.134288
H25   H     H_    0.452379 0.661990 0.340956 0.122027
H26   H     H_    0.169788 0.147846 0.683646 0.112938
H27   H     H_    0.628283 0.282942 0.017004 0.117310
H28   H     H_    0.986349 0.562852 0.207387 0.094345
H29   H     H_    0.590858 0.703852 0.978117 0.118930
H30   H     H_    0.644737 0.553242 0.761873 0.120231
H31   H     H_    0.243316 0.412592 0.789066 0.097832
H32   H     H_    0.560716 0.439553 0.230319 0.099229
H33   H     H_    0.867832 0.524511 0.380931 0.076100
H34   H     H_    0.379898 0.817758 0.652735 0.139046
H35   H     H_    0.653523 0.696151 0.343355 -0.086794
H36   H     H_    0.343084 0.470102 0.615220 0.077050
H37   H     H_    0.132352 0.107553 0.411379 0.097166
H38   H     H_    0.059051 0.886721 0.588872 0.085282
H39   H     H_    0.409759 0.312407 0.504017 0.077382
H40   H     H_    0.784932 0.680920 0.497927 0.064794
H41   H     H_    0.642394 0.065802 0.553077 0.098214
H42   H     H_    0.567828 0.926751 0.437664 0.110284
H43   H     H_    0.503020 0.675181 0.242095 0.122993
H44   H     H_    0.373487 0.772148 0.281371 0.131233
H45   H     H_    0.486485 0.319986 0.262681 -0.001744
H46   H     H_    0.732385 0.728283 0.622417 -0.007712
H47   H     H_    0.551909 0.694695 0.582126 0.066490
H48   H     H_    0.412815 0.179097 0.240605 0.171395
H49   H     H_    0.436507 0.099102 0.313476 0.089183
H50   H     H_    0.569216 0.171726 0.357068 0.122067
H51   H     H_    0.638210 0.099831 0.281238 0.080912
H52   H     H_    0.860717 0.915874 0.395420 0.195587
H53   H     H_    0.091213 0.960963 0.450917 0.097159
H54   H     H_    0.224496 0.906000 0.383724 0.139487
H55   H     H_    0.121003 0.845341 0.425635 0.159552
H56   H     H_    0.770270 0.293619 0.229160 0.100927
H57   H     H_    0.649964 0.018283 0.755101 0.136612
H58   H     H_    0.552162 0.015244 0.684039 0.137668
H59   H     H_    0.743458 0.949315 0.682570 0.129285
H60   H     H_    0.789472 0.074607 0.648251 0.152277
H61   H     H_    0.888320 0.076735 0.718182 0.111095
H62   H     H_    0.618056 0.173698 0.774553 0.151938
H63   H     H_    0.771347 0.220156 0.743165 0.131909
H64   H     H_    0.614788 0.204871 0.908811 0.180178
H65   H     H_    0.350235 0.181262 0.871341 0.101372
H66   H     H_    0.288906 0.295640 0.896455 0.130668
H67   H     H_    0.680357 0.197852 0.192566 0.106916
H68   H     H_    0.330207 0.238533 0.952761 0.084034
H69   H     H_    0.612609 0.781010 0.086680 0.182357
H70   H     H_    0.890150 0.748158 0.036536 0.080311
H71   H     H_    0.943810 0.689632 0.091071 0.130610
H72   H     H_    0.882989 0.804023 0.118083 0.101209
H73   H     H_    0.804868 0.201589 0.257629 0.116306
H74   H     H_    0.261624 0.639641 0.651424 0.010459
N1    N     N_R   0.492623 0.487240 0.847548 -0.424688
N2    N     N_R   0.723423 0.499528 0.148049 -0.426068
N3    N     N_2   0.465343 0.204980 0.281685 -0.399417
N4    N     N_2   0.972593 0.903741 0.371554 -0.446130
N5    N     N_2   0.538251 0.256617 0.904398 -0.393124
N6    N     N_2   0.691708 0.729093 0.089319 -0.383078
O1    O     O_2   0.414630 0.451750 0.353890 -0.466593
O2    O     O_2   0.856246 0.191515 0.498084 -0.482060
O3    O     O_3   0.735484 0.209867 0.608559 -0.609779
O4    O     O_3   0.654720 0.452660 0.425060 -0.455281
O5    O     O_3   0.021450 0.605740 0.544090 -0.490841
O6    O     O_2   0.953100 0.285520 0.441860 -0.443294
O7    O     O_3   0.145330 0.262482 0.340832 -0.622653
O8    O     O_2   0.946622 0.460357 0.703836 -0.487417
O9    O     O_3   0.043141 0.293849 0.671137 -0.583450
O10   O     O_2   0.496608 0.631101 0.875276 -0.599738
O11   O     O_2   0.506069 0.343313 0.825413 -0.616838
O12   O     O_3   0.056905 0.724500 0.653814 -0.636559
O13   O     O_2   0.709912 0.356388 0.121130 -0.615146
O14   O     O_2   0.743070 0.641047 0.166717 -0.607924
O15   O     O_3   0.116150 0.611500 0.411510 -0.462505
O16   O     O_2   0.274108 0.549840 0.301026 -0.502706
O17   O     O_3   0.607893 0.313317 0.341792 -0.609122
O18   O     O_3   0.127678 0.705833 0.325601 -0.601442
O19   O     O_2   0.236590 0.714510 0.558180 -0.468685
O20   O     O_3   0.511480 0.656670 0.446630 -0.492333
O21   O     O_2   0.351274 0.810922 0.502321 -0.484648
O22   O     O_3   0.463780 0.789082 0.389607 -0.622032
O23   O     O_2   0.775060 0.548280 0.646150 -0.459339
O24   O     O_3   0.534950 0.547420 0.574950 -0.502211
O25   O     O_3   0.073530 0.388570 0.588510 -0.480731
O26   O     O_3   0.569399 0.686415 0.672430 -0.627882
O27   O     O_3   0.168220 0.394330 0.455930 -0.476008
O28   O     O_3   0.678190 0.343400 0.553390 -0.466487
P1    P     P_3+3 0.594550 0.425840 0.359090 0.998481
P2    P     P_3+3 0.065650 0.701630 0.573510 0.980078
P3    P     P_3+3 0.503466 0.767085 0.458917 0.935259
P4    P     P_3+3 0.595130 0.574230 0.640920 0.989719
P5    P     P_3+3 0.698492 0.231770 0.538921 0.979957
P6    P     P_3+3 0.112739 0.603092 0.332845 0.944878
P7    P     P_3+3 0.136139 0.287011 0.421166 0.987051
P8    P     P_3+3 0.087100 0.393968 0.666053 0.958170

loop_
_geom_bond_atom_site_label_1
_geom_bond_atom_site_label_2
_ccdc_geom_bond_type
Ba2   O5    S    
C19   C24   D    
C6    C13   A    
C12   H6    S    
C16   H44   S    
C27   P1    S    
C1    H14   S    
C55   H63   S    
C55   C56   S    
C59   H68   S    
C5    C6    A    
H64   N5    S    
C51   C52   S    
O20   P3    S    
C49   O17   S    
C23   O7    S    
C31   H36   S    
H52   N4    S    
C22   C24   S    
C63   H33   S    
O4    P1    S    
C20   P8    S    
C24   N1    S    
Ba2   O28   S    
C35   H37   S    
C55   C57   S    
C52   H3    S    
C53   H51   S    
C8    H29   S    
C13   C14   A    
O9    P8    S    
O1    P1    D    
H48   N3    S    
O19   P2    D    
C48   P3    S    
C23   H9    S    
C45   H17   S    
C60   H71   S    
C12   O18   S    
C58   H59   S    
C7    C11   A    
C34   H11   S    
C45   O3    S    
C54   N4    S    
C38   C41   S    
C5    O11   D    
Ba1   O19   S    
C14   C15   A    
C21   C31   D    
C60   N6    S    
C33   C47   A    
C50   H73   S    
C21   C22   D    
Ba1   O4    S    
Ba2   P4    S    
O16   P6    D    
C62   H22   S    
O27   P7    S    
Ba2   O4    S    
C45   H16   S    
O5    P2    S    
C57   C58   S    
C17   N2    Am   
C53   N3    S    
C51   H74   S    
C19   C20   S    
C61   H20   S    
C54   H55   S    
Ba1   O1    S    
O26   P4    S    
C62   H24   S    
C20   C31   S    
O24   P4    S    
C42   C44   S    
C4    C16   S    
Ba1   P1    S    
C36   P7    S    
C61   C62   S    
C32   C37   D    
C50   H67   S    
C1    N4    S    
C22   H30   S    
C37   C38   S    
C6    C7    A    
C49   N3    S    
Ba2   O24   S    
C3    O10   D    
C46   H38   S    
C18   O14   D    
C32   H39   S    
C49   C50   S    
C28   H47   S    
C57   H61   S    
C41   H41   S    
C4    H35   S    
C60   H70   S    
O7    P7    S    
C58   H58   S    
C41   C42   D    
O15   P6    S    
C35   C36   D    
C33   H40   S    
C34   H10   S    
C56   H19   S    
C42   H42   S    
C50   H56   S    
C59   N5    S    
C29   C30   A    
C52   H5    S    
Ba1   O20   S    
C10   C18   A    
C33   C48   A    
C12   H1    S    
Ba1   O5    S    
C58   H57   S    
C30   N2    S    
C1    C12   S    
C59   H65   S    
O12   P2    S    
C27   C63   A    
C16   H15   S    
C38   C39   S    
C19   H31   S    
Ba2   O25   S    
C14   H27   S    
C49   H45   S    
O25   P8    S    
O18   P6    S    
C54   H54   S    
C25   H28   S    
C40   H23   S    
C2    C8    A    
Ba2   O23   S    
C47   P2    S    
C37   P5    S    
C3    N1    Am   
C43   C46   A    
Ba2   O6    S    
H69   N6    S    
C4    O22   S    
Ba1   P2    S    
O3    P5    S    
C25   C30   A    
C32   C36   S    
C17   O13   D    
C54   H53   S    
C18   N2    Am   
Ba1   O15   S    
C9    N6    S    
C61   O9    S    
O8    P8    D    
C2    C3    A    
C55   H62   S    
C9    C10   A    
O17   P1    S    
C53   H49   S    
C57   H60   S    
C44   C48   A    
Ba1   O27   S    
C51   O12   S    
O21   P3    D    
C11   C15   A    
C28   H46   S    
C26   C63   A    
C61   H21   S    
C34   H13   S    
C40   H34   S    
C45   C56   S    
O2    P5    D    
O6    P7    D    
C5    N1    Am   
C52   H4    S    
C53   H50   S    
O28   P5    S    
C46   C47   A    
Ba1   Ba2   S    
Ba1   O24   S    
C15   C17   A    
C1    H7    S    
C23   H8    S    
C29   H32   S    
C60   H72   S    
C35   C39   S    
C51   H2    S    
C26   P6    S    
C16   H43   S    
C28   O26   S    
C21   P4    S    
C8    C9    A    
C59   H66   S    
C23   C34   S    
C13   N5    S    
C43   C44   A    
C4    H25   S    
C10   C11   A    
C40   H12   S    
C27   C29   A    
C25   C26   A    
C28   C40   S    
C62   H26   S    
C2    C7    A    
C56   H18   S    
O23   P4    D    
Ba2   O27   S    
O22   P3    S    
