data_mof_unit_41625.cif
_audit_creation_date              2012-10-26T20:02:33-0400
_audit_creation_method            fapswitch 2.2
_symmetry_space_group_name_H-M    P1
_symmetry_Int_Tables_number       1
_space_group_crystal_system       triclinic
_cell_length_a                    19.057739
_cell_length_b                    18.457998
_cell_length_c                    12.352515
_cell_angle_alpha                 90.00087
_cell_angle_beta                  129.151121
_cell_angle_gamma                 89.998993
_cell_volume                      3369.64275334

loop_
_atom_site_label
_atom_site_type_symbol
_atom_type_description
_atom_site_fract_x
_atom_site_fract_y
_atom_site_fract_z
_atom_type_partial_charge
C1    C     C_R   0.612245 0.898237 0.652961 0.532607
C2    C     C_R   0.660250 0.721102 0.014480 0.051134
C3    C     C_R   0.160249 0.778893 0.014493 0.051133
C4    C     C_R   0.160258 0.221097 0.014470 0.051145
C5    C     C_R   0.583430 0.245517 0.897914 -0.139285
C6    C     C_R   0.583421 0.754294 0.897587 -0.139246
C7    C     C_R   0.083421 0.745695 0.897611 -0.139251
C8    C     C_R   0.083429 0.254278 0.897562 -0.139234
C9    C     C_R   0.587454 0.209773 0.803329 -0.122702
C10   C     C_R   0.587521 0.790121 0.803153 -0.122691
C11   C     C_R   0.087514 0.709874 0.803163 -0.122694
C12   C     C_R   0.612208 0.101792 0.652915 0.532630
C13   C     C_R   0.087537 0.290112 0.803143 -0.122702
C14   C     C_R   0.317123 0.814526 0.151055 -0.135445
C15   C     C_R   0.317153 0.185505 0.151114 -0.135436
C16   C     C_R   0.817043 0.314616 0.150882 -0.135468
C17   C     C_R   0.817134 0.685486 0.151077 -0.135443
C18   C     C_R   0.230688 0.850086 0.224591 -0.136728
C19   C     C_R   0.230671 0.149886 0.224538 -0.136725
C20   C     C_R   0.730776 0.349939 0.224847 -0.136757
C21   C     C_R   0.730678 0.649903 0.224567 -0.136717
C22   C     C_R   0.677694 0.159557 0.740250 -0.002949
C23   C     C_R   0.112251 0.398241 0.652968 0.532588
C24   C     C_R   0.677855 0.840578 0.740462 -0.002916
C25   C     C_R   0.177842 0.659430 0.740447 -0.002910
C26   C     C_R   0.177878 0.340598 0.740493 -0.002906
C27   C     C_R   0.684251 0.000005 0.286238 -0.146650
C28   C     C_R   0.184251 0.500003 0.286238 -0.146630
C29   C     C_R   0.343756 0.999998 0.627437 0.046166
C30   C     C_R   0.843755 0.499995 0.627437 0.046149
C31   C     C_R   0.309500 0.999997 0.699162 -0.158117
C32   C     C_R   0.809500 0.499988 0.699162 -0.158130
C33   C     C_R   0.384244 0.098685 0.342440 0.543937
C34   C     C_R   0.112242 0.601765 0.652959 0.532583
C35   C     C_R   0.384243 0.901315 0.342438 0.543941
C36   C     C_R   0.884243 0.598685 0.342438 0.543943
C37   C     C_R   0.884243 0.401313 0.342438 0.543954
C38   C     C_R   0.368176 0.999998 0.844766 -0.135359
C39   C     C_R   0.868176 0.499988 0.844766 -0.135395
C40   C     C_R   0.462631 0.000000 0.921275 -0.007292
C41   C     C_R   0.962631 0.499995 0.921275 -0.007303
C42   C     C_R   0.494672 0.000001 0.842844 0.178507
C43   C     C_R   0.994672 0.499999 0.842844 0.178534
C44   C     C_R   0.526366 0.000001 0.072007 -0.015089
C45   C     C_R   0.241815 0.779569 0.033115 0.028831
C46   C     C_R   0.026366 0.499997 0.072007 -0.015093
C47   C     C_R   0.620199 0.000004 0.140054 0.037248
C48   C     C_R   0.120199 0.500001 0.140054 0.037252
C49   C     C_R   0.649915 0.000005 0.062161 -0.166640
C50   C     C_R   0.149916 0.500002 0.062161 -0.166641
C51   C     C_R   0.588784 0.000003 0.917412 -0.091179
C52   C     C_R   0.088784 0.500001 0.917412 -0.091159
C53   C     C_R   0.501806 0.999999 0.159532 0.038136
C54   C     C_R   0.001806 0.499997 0.159532 0.038113
C55   C     C_R   0.655742 0.000003 0.365689 0.040560
C56   C     C_R   0.241850 0.220459 0.033160 0.028831
C57   C     C_R   0.155742 0.500003 0.365689 0.040601
C58   C     C_R   0.655914 0.312855 0.111859 -0.131750
C59   C     C_R   0.655812 0.686933 0.111479 -0.131738
C60   C     C_R   0.155822 0.813053 0.111511 -0.131743
C61   C     C_R   0.155806 0.186913 0.111443 -0.131737
C62   C     C_R   0.310767 0.852221 0.242260 -0.002265
C63   C     C_R   0.310772 0.147782 0.242267 -0.002246
C64   C     C_R   0.810771 0.352210 0.242271 -0.002285
C65   C     C_R   0.810767 0.647780 0.242261 -0.002264
C66   C     C_R   0.754560 0.165223 0.748989 -0.132284
C67   C     C_R   0.741720 0.279633 0.033012 0.028814
C68   C     C_R   0.754866 0.835145 0.749560 -0.132238
C69   C     C_R   0.254846 0.664875 0.749525 -0.132245
C70   C     C_R   0.254907 0.335194 0.749632 -0.132224
C71   C     C_R   0.325018 0.711027 0.845681 -0.141734
C72   C     C_R   0.325111 0.289083 0.845857 -0.141743
C73   C     C_R   0.824618 0.211528 0.844900 -0.141725
C74   C     C_R   0.825052 0.789010 0.845747 -0.141735
C75   C     C_R   0.321660 0.749737 0.938758 -0.121642
C76   C     C_R   0.321752 0.250369 0.938927 -0.121654
C77   C     C_R   0.821316 0.250150 0.938113 -0.121656
C78   C     C_R   0.741827 0.720441 0.033131 0.028832
C79   C     C_R   0.821696 0.750303 0.938825 -0.121641
C80   C     C_R   0.745333 0.245038 0.933848 0.032723
C81   C     C_R   0.745541 0.755155 0.934158 0.032746
C82   C     C_R   0.245520 0.744864 0.934126 0.032743
C83   C     C_R   0.245576 0.255187 0.934211 0.032754
C84   C     C_R   0.669504 0.204204 0.825145 0.022499
C85   C     C_R   0.669649 0.795862 0.825258 0.022499
C86   C     C_R   0.169635 0.704145 0.825245 0.022499
C87   C     C_R   0.169674 0.295876 0.825283 0.022507
C88   C     C_R   0.660251 0.278791 0.014674 0.051141
Cu1   Cu    Cu3+1 0.526340 0.000000 0.421010 0.923505
Cu2   Cu    Cu3+1 0.026340 0.500000 0.421010 0.923512
Cu3   Cu    Cu3+1 0.473640 1.000000 0.578990 0.905038
Cu4   Cu    Cu3+1 0.973640 0.500000 0.578990 0.905070
H1    H     H_    0.224801 0.879421 0.294478 0.120320
H2    H     H_    0.931994 0.499994 0.116563 0.120598
H3    H     H_    0.297521 0.999997 0.514517 0.119680
H4    H     H_    0.797521 0.499994 0.514517 0.119684
H5    H     H_    0.337895 0.999997 0.894682 0.102931
H6    H     H_    0.837895 0.499982 0.894682 0.102915
H7    H     H_    0.618776 0.000002 0.868232 0.186555
H8    H     H_    0.118776 0.500003 0.868233 0.186540
H9    H     H_    0.519826 0.247036 0.879496 0.100015
H10   H     H_    0.519747 0.752636 0.878938 0.099992
H11   H     H_    0.019753 0.747344 0.878980 0.099998
H12   H     H_    0.224764 0.120527 0.294383 0.120311
H13   H     H_    0.019747 0.252602 0.878886 0.099930
H14   H     H_    0.593841 0.312550 0.098151 0.104182
H15   H     H_    0.593656 0.687103 0.097533 0.104186
H16   H     H_    0.093675 0.812872 0.097586 0.104182
H17   H     H_    0.093640 0.187065 0.097466 0.104256
H18   H     H_    0.381877 0.814227 0.174220 0.117908
H19   H     H_    0.381922 0.185821 0.174325 0.117882
H20   H     H_    0.881750 0.314385 0.173871 0.117964
H21   H     H_    0.881895 0.685791 0.174263 0.117902
H22   H     H_    0.761690 0.132410 0.683717 0.125830
H23   H     H_    0.724952 0.379188 0.294879 0.120364
H24   H     H_    0.762019 0.868038 0.684397 0.125765
H25   H     H_    0.262000 0.631981 0.684362 0.125759
H26   H     H_    0.262059 0.368094 0.684476 0.125758
H27   H     H_    0.378978 0.784103 0.010759 0.103260
H28   H     H_    0.379102 0.216046 0.010993 0.103222
H29   H     H_    0.878529 0.284658 0.009900 0.103283
H30   H     H_    0.879028 0.715957 0.010856 0.103259
H31   H     H_    0.524573 0.188254 0.711277 0.151958
H32   H     H_    0.524648 0.811585 0.710998 0.151840
H33   H     H_    0.024641 0.688406 0.711017 0.151850
H34   H     H_    0.724782 0.620559 0.294436 0.120324
H35   H     H_    0.024662 0.311566 0.710973 0.151806
H36   H     H_    0.705047 0.000005 0.478458 0.114342
H37   H     H_    0.205047 0.500005 0.478458 0.114316
H38   H     H_    0.237057 0.999995 0.641564 0.103929
H39   H     H_    0.737057 0.499983 0.641564 0.103935
H40   H     H_    0.383796 0.715141 0.851069 0.107105
H41   H     H_    0.383914 0.285008 0.851305 0.107110
H42   H     H_    0.883267 0.215839 0.849979 0.107150
H43   H     H_    0.883841 0.784910 0.851159 0.107103
H44   H     H_    0.721699 0.000007 0.113852 0.111929
H45   H     H_    0.221699 0.500004 0.113853 0.111933
H46   H     H_    0.756133 0.000008 0.338854 0.092510
H47   H     H_    0.256133 0.500006 0.338854 0.092512
H48   H     H_    0.431994 0.999997 0.116563 0.120624
N1    N     N_R   0.566260 1.000000 0.302220 -0.231905
N2    N     N_R   0.066260 0.500000 0.302220 -0.231894
N3    N     N_R   0.434410 0.000000 0.697680 -0.236259
N4    N     N_R   0.934410 0.500000 0.697680 -0.236240
O1    O     O_R   0.608610 0.924520 0.551740 -0.500978
O2    O     O_R   0.435880 0.924530 0.314850 -0.505318
O3    O     O_R   0.935880 0.575470 0.314850 -0.505315
O4    O     O_R   0.935880 0.424530 0.314850 -0.505343
O5    O     O_R   0.391380 0.075460 0.448260 -0.510900
O6    O     O_R   0.391380 0.924540 0.448260 -0.510880
O7    O     O_R   0.891380 0.575460 0.448260 -0.510873
O8    O     O_R   0.891380 0.424540 0.448260 -0.510898
O9    O     O_R   0.608610 0.075480 0.551740 -0.501025
O10   O     O_R   0.108610 0.424520 0.551740 -0.500989
O11   O     O_R   0.108610 0.575480 0.551740 -0.501008
O12   O     O_R   0.564110 0.924510 0.685150 -0.524854
O13   O     O_R   0.564110 0.075490 0.685150 -0.524932
O14   O     O_R   0.064110 0.424510 0.685150 -0.524865
O15   O     O_R   0.064110 0.575490 0.685150 -0.524876
O16   O     O_R   0.435880 0.075470 0.314850 -0.505327

loop_
_geom_bond_atom_site_label_1
_geom_bond_atom_site_label_2
_ccdc_geom_bond_type
C83   C87   A    
C10   C85   A    
C8    C13   A    
C55   N1    A    
C53   H48   S    
C1    O1    A    
C45   C82   A    
C12   O9    A    
C80   C84   A    
C61   H17   S    
C8    H13   S    
C50   H45   S    
C17   H21   S    
C47   C49   A    
C28   C57   A    
Cu1   O1    S    
C67   C88   A    
C76   H28   S    
C57   N2    A    
Cu1   O16   S    
Cu4   O15   S    
C57   H37   S    
C11   H33   S    
C19   C61   A    
C21   C59   A    
C31   H38   S    
C10   H32   S    
C27   C55   A    
C43   C52   A    
C23   C26   S    
C11   C86   A    
C68   C74   A    
C14   C62   A    
C23   O14   A    
C12   C22   S    
C30   N4    A    
Cu4   O14   S    
C32   C39   A    
C69   H25   S    
C69   C71   A    
C22   C66   A    
C30   H4    S    
C71   H40   S    
C5    C88   A    
Cu2   Cu4   S    
C44   C53   A    
C19   C63   A    
C26   C87   A    
C49   C51   A    
Cu4   O8    S    
C50   C52   A    
C41   C46   A    
C35   O6    A    
C12   O13   A    
Cu1   Cu3   S    
C24   C85   A    
C60   H16   S    
C44   C47   A    
C4    C8    A    
C42   C51   A    
C3    C60   A    
C40   C42   A    
C38   C40   A    
C7    H11   S    
C4    C56   A    
C41   C43   A    
C13   C87   A    
C43   N4    A    
C2    C6    A    
C28   H47   S    
C38   H5    S    
C76   C83   A    
C14   C45   A    
Cu3   N3    S    
C51   H7    S    
Cu1   O2    S    
C79   H30   S    
C5    H9    S    
C27   H46   S    
Cu3   O13   S    
C30   C32   A    
C15   H19   S    
C75   H27   S    
C39   C41   A    
C29   H3    S    
C2    C59   A    
C18   C62   A    
C39   H6    S    
C34   O11   A    
C66   C73   A    
C4    C61   A    
C52   H8    S    
C59   H15   S    
C58   H14   S    
C35   O2    A    
C22   C84   A    
C20   C64   A    
C1    O12   A    
C7    C11   A    
C5    C9    A    
Cu2   O3    S    
C2    C78   A    
C20   H23   S    
C19   H12   S    
C36   O3    A    
Cu1   O9    S    
C33   C63   S    
C74   H43   S    
C46   C54   A    
Cu4   O7    S    
C72   C76   A    
C75   C82   A    
C16   C67   A    
C55   H36   S    
Cu2   N2    S    
C68   H24   S    
C18   C60   A    
C54   N2    A    
C49   H44   S    
C74   C79   A    
C26   C70   A    
C25   C86   A    
Cu2   O10   S    
Cu2   O4    S    
C37   O8    A    
C20   C58   A    
C37   C64   S    
C16   H20   S    
C56   C83   A    
Cu3   O5    S    
C77   C80   A    
C27   C47   A    
C14   H18   S    
C28   C48   A    
C73   C77   A    
C66   H22   S    
C21   C65   A    
C36   C65   S    
C17   C65   A    
C67   C80   A    
C58   C88   A    
C6    C10   A    
Cu3   O6    S    
C70   C72   A    
C33   O16   A    
C36   O7    A    
C25   C34   S    
C3    C7    A    
C31   C38   A    
C15   C56   A    
C21   H34   S    
Cu3   O12   S    
C29   C31   A    
C82   C86   A    
C34   O15   A    
C71   C75   A    
C78   C81   A    
C72   H41   S    
C70   H26   S    
Cu1   N1    S    
C48   C50   A    
C17   C78   A    
C9    H31   S    
C3    C45   A    
C35   C62   S    
C53   N1    A    
C6    H10   S    
C37   O4    A    
C79   C81   A    
Cu4   N4    S    
C54   H2    S    
C77   H29   S    
C24   C68   A    
C9    C84   A    
C13   H35   S    
C46   C48   A    
C40   C44   A    
C25   C69   A    
C73   H42   S    
C1    C24   S    
C23   O10   A    
C42   N3    A    
C18   H1    S    
C15   C63   A    
C33   O5    A    
C16   C64   A    
Cu2   O11   S    
C32   H39   S    
C81   C85   A    
C29   N3    A    
