data_mof_unit_24278.cif
_audit_creation_date              2012-10-26T17:10:27-0400
_audit_creation_method            fapswitch 2.2
_symmetry_space_group_name_H-M    P1
_symmetry_Int_Tables_number       1
_space_group_crystal_system       triclinic
_cell_length_a                    16.851102
_cell_length_b                    16.850564
_cell_length_c                    16.855163
_cell_angle_alpha                 68.022697
_cell_angle_beta                  67.812104
_cell_angle_gamma                 68.023721
_cell_volume                      3955.54564223

loop_
_atom_site_label
_atom_site_type_symbol
_atom_type_description
_atom_site_fract_x
_atom_site_fract_y
_atom_site_fract_z
_atom_type_partial_charge
C1    C     C_R   0.593460 0.029573 0.594340 0.175527
C2    C     C_R   0.170354 0.433385 0.977095 0.545318
C3    C     C_R   0.564935 0.027846 0.828778 0.553928
C4    C     C_R   0.432235 0.979265 0.170064 0.539903
C5    C     C_R   0.432860 0.169945 0.979303 0.566351
C6    C     C_R   0.565054 0.828847 0.026495 0.546977
C7    C     C_R   0.972329 0.435288 0.171279 0.542015
C8    C     C_R   0.017034 0.568210 0.830845 0.561091
C9    C     C_R   0.171294 0.970929 0.435718 0.531569
C10   C     C_R   0.828742 0.027501 0.565071 0.553572
C11   C     C_R   0.543092 0.019124 0.545246 0.140336
C12   C     C_R   0.398733 0.987119 0.402689 0.175996
C13   C     C_R   0.448802 0.998477 0.451542 0.140419
C14   C     C_R   0.036275 0.543602 0.535898 0.136822
C15   C     C_R   0.012844 0.448784 0.443830 0.137798
C16   C     C_R   0.553297 0.557459 0.981372 0.073489
C17   C     C_R   0.459677 0.464205 0.957813 0.078464
C18   C     C_R   0.493609 0.094857 0.494727 0.208219
C19   C     C_R   0.498216 0.922790 0.502252 0.215907
C20   C     C_R   0.951259 0.558883 0.528070 0.209120
C21   C     C_R   0.098932 0.437333 0.446986 0.228360
C22   C     C_R   0.521760 0.489989 0.052885 0.205304
C23   C     C_R   0.045026 0.590870 0.589430 0.179292
C24   C     C_R   0.490895 0.532092 0.886184 0.213076
C25   C     C_R   0.443921 0.084418 0.449286 0.230507
C26   C     C_R   0.547770 0.933254 0.547712 0.235193
C27   C     C_R   0.476460 0.441556 0.040469 0.204491
C28   C     C_R   0.535945 0.581020 0.898927 0.207677
C29   C     C_R   0.938677 0.507486 0.486049 0.219511
C30   C     C_R   0.109983 0.481668 0.497726 0.228206
C31   C     C_R   0.552187 0.035294 0.681740 0.218979
C32   C     C_R   0.431503 0.000471 0.310487 0.215127
C33   C     C_R   0.055572 0.676938 0.550280 0.221386
C34   C     C_R   0.999007 0.399757 0.395080 0.173482
C35   C     C_R   0.008506 0.308089 0.429011 0.213313
C36   C     C_R   0.693510 0.568191 0.992899 0.231018
C37   C     C_R   0.323200 0.450842 0.944053 0.234336
C38   C     C_R   0.318136 0.964794 0.448399 0.217260
C39   C     C_R   0.681385 0.033981 0.553013 0.214789
C40   C     C_R   0.450541 0.320675 0.952274 0.223644
C41   C     C_R   0.556419 0.686285 0.017379 0.240715
C42   C     C_R   0.974700 0.445963 0.315732 0.222208
C43   C     C_R   0.029178 0.554497 0.681609 0.214776
C44   C     C_R   0.600585 0.042223 0.730825 -0.046643
C45   C     C_R   0.602755 0.605842 0.995058 0.134129
C46   C     C_R   0.391866 0.975705 0.265552 -0.027610
C47   C     C_R   0.031301 0.733687 0.605244 -0.045383
C48   C     C_R   0.979487 0.264755 0.391193 -0.036503
C49   C     C_R   0.734621 0.607086 0.022901 0.013129
C50   C     C_R   0.266821 0.395546 0.968093 -0.047878
C51   C     C_R   0.269062 0.957658 0.400181 -0.063875
C52   C     C_R   0.730708 0.041566 0.600893 -0.047993
C53   C     C_R   0.395064 0.265911 0.973176 0.021123
C54   C     C_R   0.601586 0.732006 0.034265 -0.057973
C55   C     C_R   0.962468 0.399110 0.268497 -0.059837
C56   C     C_R   0.411849 0.412043 0.947102 0.124198
C57   C     C_R   0.018203 0.607154 0.735913 -0.024073
C58   C     C_R   0.686750 0.054457 0.686829 -0.072855
C59   C     C_R   0.312108 0.949684 0.312909 -0.061947
C60   C     C_R   0.006161 0.699069 0.698771 -0.084871
C61   C     C_R   0.952494 0.312723 0.312308 -0.067020
C62   C     C_R   0.686460 0.687030 0.047848 -0.078110
C63   C     C_R   0.302330 0.302429 0.991746 -0.091012
C64   C     C_2   0.726040 0.091370 0.725931 0.291764
C65   C     C_2   0.277740 0.905376 0.276503 0.283058
C66   C     C_2   0.955825 0.758706 0.758395 0.323616
C67   C     C_R   0.023329 0.829700 0.566545 0.532337
C68   C     C_2   0.905115 0.277869 0.279840 0.283151
C69   C     C_2   0.719768 0.719261 0.096762 0.276048
C70   C     C_2   0.243096 0.242961 0.046262 0.314718
C71   C     C_R   0.980252 0.169886 0.432076 0.537135
C72   C     C_R   0.829757 0.567302 0.021292 0.572255
Cu1   Cu    Cu3+1 0.995180 0.995180 0.424630 1.145464
Cu2   Cu    Cu3+1 0.004820 0.004820 0.575370 1.068520
Cu3   Cu    Cu3+1 0.995180 0.424630 0.995180 1.096790
Cu4   Cu    Cu3+1 0.004820 0.575370 0.004820 1.101292
Cu5   Cu    Cu3+1 0.424630 0.995180 0.995180 1.097618
Cu6   Cu    Cu3+1 0.575370 0.004820 0.004820 1.162605
H1    H     H_    0.624236 0.812207 0.565687 0.345884
H2    H     H_    0.485361 0.452282 0.182235 0.347476
H3    H     H_    0.224065 0.403108 0.383276 0.344652
H4    H     H_    0.837550 0.648180 0.528759 0.353982
H5    H     H_    0.432227 0.087730 0.741312 0.340597
H6    H     H_    0.488800 0.084514 0.214724 0.361503
H7    H     H_    0.124269 0.742399 0.442883 0.332396
H8    H     H_    0.089970 0.209547 0.486662 0.364685
H9    H     H_    0.711745 0.481577 0.931282 0.327602
H10   H     H_    0.257283 0.560500 0.880054 0.340662
H11   H     H_    0.259766 0.902939 0.565497 0.342925
H12   H     H_    0.366885 0.205218 0.432299 0.347738
H13   H     H_    0.740965 0.084735 0.432549 0.340699
H14   H     H_    0.572432 0.330545 0.912426 0.323955
H15   H     H_    0.436298 0.738591 0.077906 0.337775
H16   H     H_    0.912418 0.564191 0.261522 0.347056
H17   H     H_    0.963036 0.471329 0.762940 0.357187
H18   H     H_    0.711643 0.162861 0.711657 0.095782
H19   H     H_    0.291921 0.833475 0.297435 0.083206
H20   H     H_    0.988908 0.795846 0.770044 0.142939
H21   H     H_    0.832980 0.299410 0.296501 0.089384
H22   H     H_    0.697639 0.701723 0.168915 0.089776
H23   H     H_    0.226649 0.404530 0.508628 0.345180
H24   H     H_    0.204483 0.229286 0.016385 0.146052
H25   H     H_    0.810805 0.529291 0.539522 0.342621
H26   H     H_    0.522572 0.680338 0.794291 0.358989
H27   H     H_    0.490098 0.342107 0.145041 0.351832
H28   H     H_    0.503483 0.798739 0.564957 0.344405
H29   H     H_    0.487735 0.219082 0.432319 0.343637
H30   H     H_    0.527393 0.570458 0.756896 0.334668
O1    O     O_R   0.124540 0.978640 0.385460 -0.464091
O2    O     O_R   0.124540 0.385460 0.978640 -0.532392
O3    O     O_R   0.021360 0.875460 0.614540 -0.543129
O4    O     O_R   0.978640 0.124540 0.385460 -0.464605
O5    O     O_R   0.013780 0.867370 0.487190 -0.476030
O6    O     O_R   0.986220 0.132630 0.512810 -0.495470
O7    O     O_R   0.867370 0.487190 0.013780 -0.453213
O8    O     O_R   0.132630 0.512810 0.986220 -0.478375
O9    O     O_R   0.487190 0.013780 0.867370 -0.486662
O10   O     O_R   0.512810 0.986220 0.132630 -0.501521
O11   O     O_R   0.512810 0.132630 0.986220 -0.450589
O12   O     O_R   0.875460 0.021360 0.614540 -0.464677
O13   O     O_R   0.487190 0.867370 0.013780 -0.489039
O14   O     O_R   0.986220 0.512810 0.132630 -0.490221
O15   O     O_R   0.013780 0.487190 0.867370 -0.488914
O16   O     O_R   0.132630 0.986220 0.512810 -0.501475
O17   O     O_R   0.867370 0.013780 0.487190 -0.485969
O18   O     O_3   0.602772 0.861713 0.593256 -0.650236
O19   O     O_3   0.388261 0.155908 0.404476 -0.661596
O20   O     O_3   0.190727 0.465571 0.512108 -0.672161
O21   O     O_3   0.855104 0.511804 0.486132 -0.691769
O22   O     O_3   0.562819 0.652379 0.833304 -0.650192
O23   O     O_R   0.978640 0.385460 0.124540 -0.468035
O24   O     O_3   0.448801 0.371030 0.107072 -0.662295
O25   O     O_3   0.495233 0.840240 0.507034 -0.689972
O26   O     O_3   0.497065 0.177271 0.489764 -0.701876
O27   O     O_3   0.479309 0.546225 0.804610 -0.675782
O28   O     O_3   0.534281 0.474966 0.134296 -0.691567
O29   O     O_3   0.170094 0.383612 0.399251 -0.658440
O30   O     O_3   0.882080 0.623861 0.562856 -0.673365
O31   O     O_3   0.463788 0.035641 0.716618 -0.641659
O32   O     O_3   0.503496 0.035569 0.266869 -0.644274
O33   O     O_3   0.084383 0.704788 0.458665 -0.647017
O34   O     O_R   0.021360 0.614540 0.875460 -0.521325
O35   O     O_3   0.043615 0.263537 0.500623 -0.639427
O36   O     O_3   0.742933 0.492686 0.963746 -0.652352
O37   O     O_3   0.292628 0.542280 0.922521 -0.623068
O38   O     O_3   0.288674 0.952034 0.539401 -0.649378
O39   O     O_3   0.716424 0.032613 0.465133 -0.644869
O40   O     O_3   0.541247 0.283191 0.940258 -0.655616
O41   O     O_3   0.466701 0.717743 0.023338 -0.629913
O42   O     O_3   0.964866 0.536397 0.285546 -0.637380
O43   O     O_3   0.021026 0.468909 0.716686 -0.656522
O44   O     O_2   0.774228 0.042292 0.774009 -0.417973
O45   O     O_R   0.385460 0.124540 0.978640 -0.537503
O46   O     O_2   0.231260 0.948941 0.225668 -0.418207
O47   O     O_2   0.877197 0.764060 0.797050 -0.439673
O48   O     O_2   0.946394 0.227298 0.232521 -0.424506
O49   O     O_2   0.770279 0.766755 0.056768 -0.414738
O50   O     O_2   0.239560 0.206925 0.124799 -0.448442
O51   O     O_R   0.614540 0.875460 0.021360 -0.456482
O52   O     O_R   0.614540 0.021360 0.875460 -0.460913
O53   O     O_R   0.385460 0.978640 0.124540 -0.466602
O54   O     O_R   0.875460 0.614540 0.021360 -0.474588

loop_
_geom_bond_atom_site_label_1
_geom_bond_atom_site_label_2
_ccdc_geom_bond_type
C16   C28   A    
Cu2   O16   S    
C11   C18   A    
C27   O24   S    
C46   C59   A    
H14   O40   S    
Cu1   Cu2   S    
Cu4   O54   S    
C34   C42   A    
C7    C55   S    
C10   C52   S    
H23   O20   S    
H13   O39   S    
C6    O51   A    
C23   C43   A    
C4    C46   S    
Cu5   Cu6   S    
H3    O29   S    
C72   O7    A    
C64   O44   D    
Cu3   O15   S    
C5    C53   S    
Cu6   O10   S    
C14   C30   A    
C32   O32   S    
H29   O26   S    
Cu5   O9    S    
C66   O47   D    
C8    C57   S    
C5    O45   A    
C41   O41   S    
Cu2   O6    S    
C1    C31   A    
C9    O16   A    
Cu1   O5    S    
C34   C35   A    
C26   O18   S    
C20   O30   S    
C19   C26   A    
C38   O38   S    
C2    C50   S    
Cu5   O45   S    
C47   C60   A    
C37   C56   A    
C2    O8    A    
H28   O25   S    
C29   O21   S    
C44   C58   A    
C40   C56   A    
C49   C72   S    
C9    C51   S    
C69   O49   D    
H12   O19   S    
C21   O29   S    
H9    O36   S    
C10   O17   A    
C3    O9    A    
C15   C34   S    
C7    O23   A    
C39   C52   A    
C60   C66   S    
H26   O22   S    
C12   C32   A    
C9    O1    A    
C50   C63   A    
C4    O10   A    
C18   C25   A    
C6    C54   S    
C35   C48   A    
C47   C67   S    
Cu3   O23   S    
H8    O35   S    
C15   C29   A    
H27   O24   S    
C20   C29   A    
C58   C64   S    
H11   O38   S    
C30   O20   S    
C3    C44   S    
C17   C24   A    
C31   C44   A    
C40   O40   S    
C17   C27   A    
C14   C20   A    
C10   O12   A    
C64   H18   S    
H30   O27   S    
C67   O5    A    
H7    O33   S    
Cu2   O3    S    
C1    C39   A    
C57   C60   A    
C38   C51   A    
C54   C62   A    
C11   C26   A    
C23   C33   A    
C71   O6    A    
C22   O28   S    
C70   O50   D    
C14   C23   S    
Cu3   Cu4   S    
C65   O46   D    
C42   C55   A    
Cu6   O51   S    
C63   C70   S    
H10   O37   S    
C71   O4    A    
H15   O41   S    
C36   C45   A    
H25   O21   S    
C17   C56   S    
H6    O32   S    
C52   C58   A    
C24   O27   S    
C67   O3    A    
H1    O18   S    
C5    O11   A    
C22   C27   A    
H5    O31   S    
C33   C47   A    
C51   C59   A    
C48   C71   S    
C31   O31   S    
C43   O43   S    
Cu1   O4    S    
Cu6   O52   S    
C2    O2    A    
Cu3   O2    S    
C16   C22   A    
C49   C62   A    
C32   C46   A    
C24   C28   A    
C13   C25   A    
C16   C45   S    
C70   H24   S    
C8    O15   A    
Cu1   O1    S    
C19   O25   S    
Cu2   O12   S    
C21   C30   A    
H2    O28   S    
C33   O33   S    
C66   H20   S    
Cu6   O11   S    
C25   O19   S    
C68   H21   S    
Cu4   O14   S    
H4    O30   S    
C41   C45   A    
C59   C65   S    
C37   C50   A    
C53   C63   A    
C61   C68   S    
C48   C61   A    
C3    O52   A    
Cu1   O17   S    
C55   C61   A    
Cu4   O8    S    
Cu5   O53   S    
C18   O26   S    
C28   O22   S    
C12   C38   A    
C42   O42   S    
C41   C54   A    
Cu5   O13   S    
C43   C57   A    
Cu3   O7    S    
C65   H19   S    
C69   H22   S    
H16   O42   S    
C15   C21   A    
H17   O43   S    
C12   C13   S    
C62   C69   S    
C40   C53   A    
C39   O39   S    
C13   C19   A    
C72   O54   A    
C4    O53   A    
C8    O34   A    
C1    C11   S    
C7    O14   A    
C6    O13   A    
C37   O37   S    
C36   O36   S    
C68   O48   D    
C36   C49   A    
C35   O35   S    
Cu4   O34   S    
