data_mof_unit_61528.cif
_audit_creation_date              2013-03-05T15:39:40-0500
_audit_creation_method            fapswitch 2.2
_symmetry_space_group_name_H-M    P1
_symmetry_Int_Tables_number       1
_space_group_crystal_system       triclinic
_cell_length_a                    14.119269
_cell_length_b                    16.503081
_cell_length_c                    13.123171
_cell_angle_alpha                 89.99262
_cell_angle_beta                  107.108909
_cell_angle_gamma                 90.048143
_cell_volume                      2922.52979086

loop_
_atom_site_label
_atom_site_type_symbol
_atom_site_description
_atom_site_fract_x
_atom_site_fract_y
_atom_site_fract_z
_atom_type_partial_charge
Zn1   Zn    Zn3+2 0.485630 0.096680 0.411850 1.015267
Zn2   Zn    Zn3+2 0.485630 0.903320 0.411850 1.039726
Zn3   Zn    Zn3+2 0.985630 0.596680 0.411850 1.022818
Zn4   Zn    Zn3+2 0.985630 0.403320 0.411850 1.034043
Zn5   Zn    Zn3+2 0.399590 1.000000 0.573760 0.978843
Zn6   Zn    Zn3+2 0.899590 0.500000 0.573760 0.986499
Zn7   Zn    Zn3+2 0.629190 1.000000 0.602520 1.022657
Zn8   Zn    Zn3+2 0.129190 0.500000 0.602520 1.039454
O1    O     O_3   0.500010 0.000000 0.500000 -0.510858
O2    O     O_3   0.000010 0.500000 0.500000 -0.517193
O3    O     O_R   0.376880 0.837120 0.424150 -0.620782
O4    O     O_R   0.376880 0.162880 0.424150 -0.625080
O5    O     O_R   0.876880 0.337120 0.424150 -0.620873
O6    O     O_R   0.876880 0.662880 0.424150 -0.622839
O7    O     O_R   0.603010 0.162890 0.452470 -0.638953
O8    O     O_R   0.603010 0.837110 0.452470 -0.620811
O9    O     O_R   0.103010 0.662890 0.452470 -0.636139
O10   O     O_R   0.103010 0.337110 0.452470 -0.636371
O11   O     O_R   0.316670 0.095240 0.537470 -0.639140
O12   O     O_R   0.316670 0.904760 0.537470 -0.640905
O13   O     O_R   0.816670 0.595240 0.537470 -0.637989
O14   O     O_R   0.816670 0.404760 0.537470 -0.643323
O15   O     O_R   0.703490 0.904800 0.585920 -0.644915
O16   O     O_R   0.703490 0.095200 0.585920 -0.643703
O17   O     O_R   0.203490 0.404800 0.585920 -0.620285
O18   O     O_R   0.203490 0.595200 0.585920 -0.642675
O19   O     O_R   0.458050 0.000000 0.725250 -0.629586
O20   O     O_R   0.958050 0.500000 0.725250 -0.626658
O21   O     O_R   0.461630 0.932310 0.264690 -0.609824
O22   O     O_R   0.461630 0.067690 0.264690 -0.620991
O23   O     O_R   0.961630 0.432310 0.264690 -0.609865
O24   O     O_R   0.961630 0.567690 0.264690 -0.623863
O25   O     O_R   0.618750 1.000000 0.745380 -0.598451
O26   O     O_R   0.118750 0.500000 0.745380 -0.597611
C1    C     C_R   0.313484 0.845226 0.475109 0.881142
C2    C     C_R   0.313883 0.155049 0.475592 0.845444
C3    C     C_R   0.813483 0.345226 0.475110 0.879477
C4    C     C_R   0.813896 0.655069 0.475623 0.892647
C5    C     C_R   0.686472 0.156004 0.523688 0.853901
C6    C     C_R   0.686173 0.843928 0.523752 0.868448
C7    C     C_R   0.186473 0.656004 0.523689 0.858330
C8    C     C_R   0.186160 0.343961 0.523788 0.918411
C9    C     C_R   0.546837 0.997924 0.786332 0.786916
C10   C     C_R   0.046837 0.497922 0.786333 0.790416
C11   C     C_R   0.455820 0.000098 0.215234 0.926924
C12   C     C_R   0.955821 0.500098 0.215234 0.924688
C13   C     C_2   0.449683 0.001142 0.102169 -0.411031
C14   C     C_2   0.949688 0.501139 0.102168 -0.409425
C15   C     C_2   0.510174 0.957405 0.060726 0.353453
C16   C     C_2   0.010175 0.457396 0.060728 0.353263
C17   C     C_2   0.565073 0.993434 0.903427 0.176490
C18   C     C_2   0.065073 0.493435 0.903429 0.176806
C19   C     C_2   0.494629 0.962069 0.944423 -0.096840
C20   C     C_2   0.994634 0.462057 0.944425 -0.097380
H1    H     H_    0.396998 0.042928 0.051409 0.140471
H2    H     H_    0.897006 0.542926 0.051405 0.140359
C21   C     C_2   0.762521 0.218340 0.533675 -0.065278
C22   C     C_2   0.761794 0.781697 0.533629 -0.083076
C23   C     C_2   0.262516 0.718348 0.533687 -0.065981
C24   C     C_2   0.261761 0.282062 0.534079 -0.068873
C25   C     C_2   0.241136 0.782524 0.468571 -0.275962
C26   C     C_2   0.241567 0.217759 0.468658 -0.299640
C27   C     C_2   0.741134 0.282526 0.468577 -0.275816
C28   C     C_2   0.741317 0.717621 0.468394 -0.245211
H3    H     H_    0.669196 0.289989 0.409886 0.150655
H4    H     H_    0.669916 0.710317 0.408673 0.152513
H5    H     H_    0.169213 0.789969 0.409848 0.151151
H6    H     H_    0.170292 0.210561 0.408688 0.170168
N1    N     N_3   0.404165 0.928738 0.875740 -0.430568
H7    H     H_    0.399190 0.868369 0.897794 0.207742
H8    H     H_    0.344504 0.960217 0.888565 0.198658
N2    N     N_3   0.904183 0.428707 0.875742 -0.430781
H9    H     H_    0.899233 0.368334 0.897794 0.207502
H10   H     H_    0.844511 0.460166 0.888571 0.199767
N3    N     N_R   0.590005 0.908273 0.125144 0.244721
O27   O     O_R   0.621585 0.846838 0.082209 -0.364624
O28   O     O_R   0.641439 0.931798 0.219956 -0.362254
N4    N     N_R   0.090002 0.408262 0.125148 0.244942
O29   O     O_R   0.121578 0.346823 0.082216 -0.363258
O30   O     O_R   0.141439 0.431789 0.219958 -0.362069
N5    N     N_R   0.657457 0.024365 0.972302 0.216535
O31   O     O_R   0.739291 0.014633 0.947262 -0.333121
O32   O     O_R   0.658430 0.070278 0.053235 -0.355351
N6    N     N_R   0.157446 0.524384 0.972305 0.216730
O33   O     O_R   0.239282 0.514683 0.947258 -0.328835
O34   O     O_R   0.158405 0.570285 0.053245 -0.355546
N7    N     N_3   0.358704 0.711106 0.611308 -0.441032
H11   H     H_    0.367451 0.654021 0.647218 0.223135
H12   H     H_    0.362056 0.753391 0.671617 0.194181
N8    N     N_3   0.355768 0.291727 0.614152 -0.424993
H13   H     H_    0.367274 0.241943 0.665669 0.196484
H14   H     H_    0.411744 0.292467 0.576754 0.199492
N9    N     N_3   0.858722 0.211080 0.611265 -0.441761
H15   H     H_    0.867481 0.153981 0.647138 0.220790
H16   H     H_    0.862091 0.253342 0.671605 0.193881
N10   N     N_3   0.856710 0.789440 0.612401 -0.446290
H17   H     H_    0.888671 0.843898 0.598422 0.209373
H18   H     H_    0.844928 0.793450 0.687248 0.209363

loop_
_geom_bond_atom_site_label_1
_geom_bond_atom_site_label_2
_geom_bond_distance
_ccdc_geom_bond_type
N7    H11   1.044362 S    
C27   H3    1.086259 S    
N9    H15   1.044366 S    
Zn8   O18   1.935955 S    
O22   C11   1.280992 A    
C14   H2    1.087115 S    
C19   N1    1.438062 S    
N5    O31   1.300969 A    
C13   C15   1.349314 D    
Zn5   O12   1.933121 S    
C16   C20   1.478684 S    
Zn2   O21   1.920487 S    
N6    O34   1.301534 A    
O11   C2    1.271321 A    
O10   C8    1.272929 A    
Zn7   O15   1.937432 S    
Zn7   O16   1.935955 S    
C5    C21   1.464172 S    
O16   C5    1.271356 A    
C24   C26   1.341727 D    
Zn4   O5    1.928796 S    
C18   N6    1.443707 S    
C22   N10   1.437200 S    
N5    O32   1.301534 A    
Zn5   O19   1.915221 S    
O12   C1    1.271031 A    
Zn6   O20   1.915221 S    
O13   C4    1.271348 A    
O23   C12   1.283784 A    
N10   H18   1.045461 S    
C15   N3    1.443360 S    
Zn1   O7    1.924082 S    
O4    C2    1.271481 A    
Zn2   O8    1.925585 S    
C17   N5    1.443702 S    
O5    C3    1.272321 A    
Zn4   O10   1.925585 S    
C10   C18   1.483355 S    
C14   C16   1.349320 D    
N1    H8    1.044958 S    
N9    H16   1.045771 S    
C21   N9    1.443116 S    
Zn8   O17   1.937432 S    
Zn7   O25   1.923307 S    
Zn3   O24   1.920469 S    
Zn1   O4    1.930280 S    
C2    C26   1.438383 S    
Zn2   O3    1.928796 S    
C16   N4    1.443357 S    
C3    C27   1.438148 S    
C18   C20   1.364024 D    
C21   C27   1.338503 D    
C4    C28   1.438515 S    
C11   C13   1.460739 S    
C22   C28   1.337445 D    
C12   C14   1.460752 S    
C23   C25   1.338503 D    
C6    C22   1.460107 S    
O25   C9    1.281389 A    
Zn1   O1    1.946016 S    
N6    O33   1.300965 A    
C7    C23   1.464184 S    
C23   N7    1.443122 S    
N2    H10   1.044953 S    
C8    C24   1.455377 S    
N4    O29   1.301120 A    
O14   C3    1.271023 A    
O20   C10   1.274394 A    
O21   C11   1.283786 A    
C17   C19   1.364021 D    
C28   H4    1.086300 S    
N3    O27   1.301120 A    
Zn5   O1    1.937727 S    
O6    C4    1.271599 A    
C25   H5    1.086257 S    
N8    H14   1.045883 S    
N10   H17   1.045476 S    
O26   C10   1.281395 A    
C1    C25   1.438141 S    
Zn8   O26   1.923307 S    
N3    O28   1.301629 A    
O7    C5    1.275643 A    
Zn3   O6    1.930280 S    
O8    C6    1.272785 A    
N7    H12   1.045769 S    
Zn4   O2    1.945982 S    
C13   H1    1.087115 S    
Zn7   O1    1.921710 S    
O24   C12   1.281002 A    
N2    H9    1.045488 S    
O17   C8    1.270901 A    
Zn6   O2    1.937727 S    
Zn5   O11   1.934619 S    
C24   N8    1.438903 S    
C26   H6    1.086296 S    
O3    C1    1.272307 A    
Zn3   O2    1.946016 S    
Zn6   O13   1.934619 S    
C9    C17   1.483336 S    
N8    H13   1.045899 S    
C15   C19   1.478680 S    
Zn1   O22   1.920469 S    
Zn3   O9    1.924082 S    
N4    O30   1.301629 A    
N1    H7    1.045493 S    
O9    C7    1.275652 A    
Zn4   O23   1.920487 S    
O19   C9    1.274386 A    
C20   N2    1.438058 S    
Zn8   O2    1.921710 S    
Zn2   O1    1.945982 S    
O15   C6    1.271614 A    
O18   C7    1.271360 A    
Zn6   O14   1.933121 S    
