data_mof_unit_27682.cif
_audit_creation_date              2012-12-10T21:28:58-0500
_audit_creation_method            fapswitch 2.2
_symmetry_space_group_name_H-M    P1
_symmetry_Int_Tables_number       1
_space_group_crystal_system       triclinic
_cell_length_a                    10.735018
_cell_length_b                    16.124143
_cell_length_c                    16.726873
_cell_angle_alpha                 88.004712
_cell_angle_beta                  91.830531
_cell_angle_gamma                 92.737324
_cell_volume                      2888.91700045

loop_
_atom_site_label
_atom_site_type_symbol
_atom_type_description
_atom_site_fract_x
_atom_site_fract_y
_atom_site_fract_z
_atom_type_partial_charge
C1    C     C_R   0.503041 0.489181 0.653132 0.913599
C2    C     C_R   0.527868 0.477252 0.905497 0.220059
C3    C     C_R   0.483499 0.406762 0.864207 0.079141
C4    C     C_R   0.739430 0.500289 0.498450 0.880672
C5    C     C_R   0.477943 0.410030 0.781131 -0.223355
C6    C     C_R   0.422474 0.450186 0.137043 0.113545
C7    C     C_R   0.448245 0.445504 0.218754 -0.228223
C8    C     C_R   0.442543 0.526592 0.095008 0.236039
C9    C     C_R   0.485251 0.517027 0.259920 -0.084678
C10   C     C_R   0.494378 0.594282 0.219091 -0.272545
C11   C     C_R   0.472452 0.599843 0.136334 -0.025409
C12   C     C_R   0.923570 0.459555 0.428501 0.069974
C13   C     C_R   0.460853 0.761572 0.448580 -0.008157
C14   C     C_R   0.455945 0.848503 0.450740 0.004101
C15   C     C_R   0.508773 0.890400 0.518063 0.279600
C16   C     C_R   0.501710 0.510895 0.346581 0.853313
C17   C     C_R   0.562439 0.842169 0.580388 -0.331259
C18   C     C_R   0.565962 0.755659 0.574892 -0.014230
C19   C     C_R   0.412174 0.142307 0.526195 0.044566
C20   C     C_R   0.403301 0.229575 0.530605 0.146018
C21   C     C_R   0.505229 0.110295 0.479407 0.282049
C22   C     C_R   0.571794 0.252464 0.443200 -0.020504
C23   C     C_R   0.870358 0.501590 0.490315 -0.090230
C24   C     C_R   0.582534 0.166821 0.436469 -0.356139
C25   C     C_R   0.259816 0.500131 0.494173 0.881471
C26   C     C_R   0.847667 0.420712 0.368608 -0.262392
C27   C     C_R   0.897310 0.370347 0.313344 -0.034182
C28   C     C_R   0.026982 0.366301 0.310076 0.024357
C29   C     C_R   0.104642 0.415755 0.360751 0.021209
C30   C     C_R   0.054403 0.458188 0.425826 0.026690
C31   C     C_R   0.484767 0.681784 0.093529 0.127434
C32   C     C_R   0.390004 0.707683 0.039605 -0.155118
C33   C     C_R   0.402061 0.784648 0.998780 -0.155142
C34   C     C_R   0.941048 0.544289 0.547396 -0.260924
C35   C     C_R   0.508234 0.836545 0.011716 -0.109812
C36   C     C_R   0.602452 0.811637 0.065615 -0.134904
C37   C     C_R   0.590893 0.734680 0.106527 -0.166997
C38   C     C_R   0.811426 0.322215 0.259735 0.114887
C39   C     C_R   0.797183 0.235572 0.270127 -0.146863
C40   C     C_R   0.718980 0.189767 0.217820 -0.134490
C41   C     C_R   0.656386 0.230045 0.154201 -0.120698
C42   C     C_R   0.671350 0.316205 0.143166 -0.134325
C43   C     C_R   0.746912 0.362498 0.196501 -0.168426
C44   C     C_R   0.083308 0.311069 0.253095 0.149011
C45   C     C_R   0.068381 0.543469 0.547542 -0.018183
C46   C     C_R   0.158800 0.247267 0.282487 -0.168546
C47   C     C_R   0.207305 0.192359 0.229976 -0.144573
C48   C     C_R   0.180141 0.200307 0.147890 -0.129018
C49   C     C_R   0.106070 0.264012 0.118068 -0.159673
C50   C     C_R   0.058976 0.319863 0.170247 -0.127712
C51   C     C_R   0.138228 0.583406 0.615002 0.140070
C52   C     C_R   0.173446 0.535772 0.683113 -0.173135
C53   C     C_R   0.239996 0.573343 0.746484 -0.130809
C54   C     C_R   0.273395 0.658195 0.741643 -0.104628
C55   C     C_R   0.238648 0.705909 0.673881 -0.138322
C56   C     C_R   0.126174 0.500567 0.487640 -0.152846
C57   C     C_R   0.170262 0.668865 0.610938 -0.095107
C58   C     C_R   0.516203 0.483054 0.739512 -0.127135
C59   C     C_R   0.568170 0.551108 0.780673 -0.211535
C60   C     C_R   0.575307 0.548593 0.863451 0.078538
H1    H     H_    0.896164 0.575611 0.594412 0.153417
H2    H     H_    0.418155 0.729214 0.398372 0.145312
H3    H     H_    0.437234 0.385862 0.250219 0.176989
H4    H     H_    0.698081 0.597738 0.945399 0.195127
H5    H     H_    0.562426 0.647298 0.933735 0.219424
H6    H     H_    0.306809 0.668374 0.029260 0.132054
H7    H     H_    0.329036 0.804055 0.957119 0.129393
H8    H     H_    0.517449 0.896091 0.980036 0.122964
H9    H     H_    0.684650 0.851905 0.075570 0.128389
H10   H     H_    0.665283 0.715968 0.147536 0.128609
H11   H     H_    0.344851 0.303335 0.616146 0.219682
H12   H     H_    0.439838 0.356654 0.749414 0.168320
H13   H     H_    0.243749 0.289929 0.536552 0.207051
H14   H     H_    0.329628 0.098688 0.627199 0.198732
H15   H     H_    0.234455 0.100268 0.544446 0.187557
H16   H     H_    0.455145 0.929872 0.355623 0.202394
H17   H     H_    0.323803 0.926763 0.410463 0.205639
H18   H     H_    0.846799 0.203718 0.318548 0.124569
H19   H     H_    0.707781 0.123000 0.226190 0.126504
H20   H     H_    0.596952 0.194486 0.113166 0.122466
H21   H     H_    0.625139 0.347056 0.092927 0.163030
H22   H     H_    0.757701 0.429265 0.187394 0.135973
H23   H     H_    0.518218 0.650160 0.251530 0.168508
H24   H     H_    0.178600 0.239391 0.346145 0.123465
H25   H     H_    0.265171 0.143255 0.253005 0.134873
H26   H     H_    0.217306 0.157540 0.107325 0.128354
H27   H     H_    0.086101 0.270598 0.054395 0.131851
H28   H     H_    0.002952 0.369475 0.146186 0.126988
H29   H     H_    0.258375 0.491868 0.343018 0.183008
H30   H     H_    0.285016 0.386539 0.366171 0.236082
H31   H     H_    0.149457 0.469770 0.686979 0.126441
H32   H     H_    0.266633 0.536551 0.799084 0.142763
H33   H     H_    0.326176 0.686914 0.790389 0.127502
H34   H     H_    0.602395 0.606736 0.748604 0.166481
H35   H     H_    0.264708 0.771579 0.670119 0.130789
H36   H     H_    0.143946 0.706276 0.558623 0.125572
H37   H     H_    0.288426 0.387403 0.074207 0.188102
H38   H     H_    0.374972 0.325427 0.134173 0.197659
H39   H     H_    0.508609 0.313287 0.946000 0.193476
H40   H     H_    0.361486 0.347212 0.938179 0.201352
H41   H     H_    0.600792 0.871590 0.633549 0.157508
H42   H     H_    0.606973 0.719302 0.623590 0.133341
H43   H     H_    0.634189 0.294866 0.410603 0.163363
H44   H     H_    0.747992 0.427063 0.364925 0.166056
H45   H     H_    0.652491 0.144389 0.398458 0.161502
N1    N     N_2   0.521223 0.476353 0.988896 -0.191489
N2    N     N_3   0.391226 0.890911 0.386512 -0.475376
N3    N     N_3   0.229693 0.429741 0.336369 -0.461233
N4    N     N_3   0.379381 0.377510 0.095228 -0.473857
N5    N     N_3   0.438569 0.332701 0.905689 -0.465979
N6    N     N_2   0.448513 0.528251 0.011137 -0.206312
N7    N     N_R   0.515300 0.716920 0.509720 -0.104677
N8    N     N_2   0.498576 0.977611 0.529520 -0.151752
N9    N     N_2   0.518148 0.023180 0.468701 -0.189866
N10   N     N_R   0.484690 0.283070 0.490290 -0.115750
N11   N     N_3   0.631324 0.618726 0.903531 -0.463805
N12   N     N_3   0.306100 0.260580 0.576044 -0.484608
N13   N     N_3   0.324017 0.086961 0.566072 -0.444476
O1    O     O_R   0.494530 0.422540 0.612660 -0.626539
O2    O     O_R   0.504350 0.561840 0.618900 -0.613497
O3    O     O_R   0.678320 0.430330 0.496880 -0.625678
O4    O     O_R   0.688140 0.569640 0.503120 -0.616110
O5    O     O_R   0.495650 0.438160 0.381100 -0.649065
O6    O     O_R   0.505470 0.577460 0.387340 -0.626649
O7    O     O_R   0.311860 0.430360 0.496880 -0.646590
O8    O     O_R   0.321680 0.569670 0.503120 -0.602235
Zn1   Zn    Zn3+2 0.493440 0.406980 0.495830 0.913467
Zn2   Zn    Zn3+2 0.506560 0.593020 0.504170 0.947331

loop_
_geom_bond_atom_site_label_1
_geom_bond_atom_site_label_2
_ccdc_geom_bond_type
H40   N5    S    
H4    N11   S    
C41   C42   A    
C49   H27   S    
C35   C36   A    
C25   C56   S    
C41   H20   S    
C53   C54   A    
C52   C53   A    
C42   H21   S    
C12   C23   A    
C26   C27   A    
C5    C58   A    
C47   H25   S    
C28   C29   A    
C19   C21   A    
C16   O5    A    
C18   N7    A    
O3    Zn1   S    
C13   N7    A    
C18   H42   S    
C38   C39   A    
C2    C60   A    
C45   C51   S    
C27   C38   S    
C10   H23   S    
N10   Zn1   S    
C15   C17   A    
C1    O1    A    
C25   O7    A    
C54   H33   S    
C17   H41   S    
C26   H44   S    
C46   C47   A    
C13   H2    S    
C47   C48   A    
C19   N13   S    
C57   H36   S    
C15   N8    S    
C29   N3    S    
C51   C57   A    
C59   H34   S    
C9    C10   A    
C50   H28   S    
O6    Zn2   S    
C11   C31   S    
C59   C60   A    
H38   N4    S    
C13   C14   A    
H15   N13   S    
C20   N12   S    
C44   C46   A    
N1    N6    D    
H14   N13   S    
H13   N12   S    
H11   N12   S    
C51   C52   A    
C39   H18   S    
H17   N2    S    
C45   C56   A    
C55   H35   S    
C8    N6    S    
C39   C40   A    
C4    C23   S    
C6    C8    A    
C58   C59   A    
H39   N5    S    
C30   C56   A    
C28   C44   S    
C34   H1    S    
C22   H43   S    
C31   C37   A    
C12   C26   A    
C1    O2    A    
C25   O8    A    
C29   C30   A    
H37   N4    S    
O5    Zn1   S    
C31   C32   A    
C23   C34   A    
C53   H32   S    
C17   C18   A    
C40   H19   S    
C4    O4    A    
C34   C45   A    
C7    H3    S    
C46   H24   S    
C22   N10   A    
H16   N2    S    
C55   C57   A    
H5    N11   S    
C48   H26   S    
C60   N11   S    
C42   C43   A    
C14   N2    S    
C36   H9    S    
C33   H7    S    
C32   H6    S    
N8    N9    D    
C44   C50   A    
C7    C9    A    
C54   C55   A    
C36   C37   A    
O8    Zn2   S    
C12   C30   A    
C9    C16   S    
C21   N9    S    
C3    C5    A    
C20   N10   A    
O2    Zn2   S    
C6    C7    A    
C6    N4    S    
C5    H12   S    
C32   C33   A    
C19   C20   A    
C2    C3    A    
C16   O6    A    
H30   N3    S    
C38   C43   A    
C1    C58   S    
C35   H8    S    
C8    C11   A    
C48   C49   A    
H29   N3    S    
C33   C35   A    
C2    N1    S    
C4    O3    A    
C22   C24   A    
O4    Zn2   S    
N7    Zn2   S    
C10   C11   A    
C49   C50   A    
C21   C24   A    
C27   C28   A    
O7    Zn1   S    
C43   H22   S    
C14   C15   A    
C52   H31   S    
C40   C41   A    
C24   H45   S    
C3    N5    S    
C37   H10   S    
O1    Zn1   S    
