data_mof_unit_24258.cif
_audit_creation_date              2012-12-11T15:12:46-0500
_audit_creation_method            fapswitch 2.2
_symmetry_space_group_name_H-M    P1
_symmetry_Int_Tables_number       1
_space_group_crystal_system       triclinic
_cell_length_a                    22.185075
_cell_length_b                    7.033114
_cell_length_c                    19.50718
_cell_angle_alpha                 90.187313
_cell_angle_beta                  99.33933
_cell_angle_gamma                 89.891214
_cell_volume                      3003.34379433

loop_
_atom_site_label
_atom_site_type_symbol
_atom_type_description
_atom_site_fract_x
_atom_site_fract_y
_atom_site_fract_z
_atom_type_partial_charge
O1    O     O_R   0.448420 0.506120 0.415750 -0.537452
O2    O     O_R   0.551580 0.006120 0.584250 -0.531854
O3    O     O_R   0.436490 0.174470 0.555610 -0.534837
O4    O     O_R   0.563510 0.674470 0.444390 -0.543145
C1    C     C_R   0.421345 0.344618 0.575642 0.720205
C2    C     C_R   0.578340 0.843925 0.423868 0.697392
O5    O     O_R   0.441310 0.176330 0.414520 -0.540581
O6    O     O_R   0.558690 0.676330 0.585480 -0.539930
O7    O     O_R   0.556430 0.007110 0.442150 -0.532646
O8    O     O_R   0.443570 0.507110 0.557850 -0.529250
C3    C     C_R   0.427168 0.344957 0.388463 0.718378
C4    C     C_R   0.572709 0.845214 0.611636 0.789560
O9    O     O_3   0.537770 0.339560 0.509230 -0.370299
O10   O     O_3   0.462230 0.839560 0.490770 -0.368833
V1    V     V_3+5 0.492990 0.064280 0.498290 1.429258
V2    V     V_3+5 0.507010 0.564280 0.501710 1.418795
C5    C     C_R   0.870681 0.865436 0.699210 -0.132969
C6    C     C_R   0.128770 0.376996 0.302067 -0.170268
H1    H     H_    0.958418 0.886689 0.763283 0.107954
H2    H     H_    0.041196 0.398350 0.237475 0.105599
H3    H     H_    0.891340 0.842097 0.653259 0.162484
H4    H     H_    0.107600 0.359021 0.347804 0.120444
C7    C     C_R   0.885378 0.933423 0.821865 -0.037604
C8    C     C_R   0.114453 0.435053 0.178647 -0.043390
C9    C     C_R   0.585428 0.851331 0.739749 0.048479
C10   C     C_R   0.413621 0.346693 0.259776 0.051569
C11   C     C_R   0.621272 0.834399 0.805546 0.474160
C12   C     C_R   0.377203 0.328127 0.194598 0.537006
C13   C     C_R   0.685442 0.841858 0.813547 0.106007
C14   C     C_R   0.313163 0.332897 0.187412 0.077260
C15   C     C_R   0.715459 0.866512 0.754250 -0.034323
C16   C     C_R   0.283801 0.363866 0.246890 -0.039370
C17   C     C_R   0.677943 0.857538 0.687018 -0.056567
C18   C     C_R   0.321683 0.358859 0.313880 -0.060259
C19   C     C_R   0.780786 0.888456 0.757781 0.068315
C20   C     C_R   0.218701 0.389255 0.243564 0.088984
C21   C     C_R   0.806709 0.865017 0.696017 0.139378
C22   C     C_R   0.192851 0.372921 0.305682 0.088577
C23   C     C_R   0.768779 0.845115 0.631538 0.167568
C24   C     C_R   0.231353 0.355192 0.370448 0.165945
C25   C     C_R   0.705571 0.849095 0.627275 -0.201423
C26   C     C_R   0.294378 0.355818 0.373960 -0.123758
C27   C     C_R   0.821743 0.938393 0.819241 -0.222994
C28   C     C_R   0.178117 0.436390 0.181564 -0.217597
C29   C     C_R   0.909416 0.893477 0.761831 -0.193512
C30   C     C_R   0.090233 0.401994 0.239007 -0.161478
C31   C     C_R   0.613127 0.853580 0.680231 -0.142168
C32   C     C_R   0.386500 0.352372 0.320029 -0.187099
H5    H     H_    0.806189 0.986189 0.865505 0.107651
H6    H     H_    0.194306 0.478762 0.135066 0.106951
H7    H     H_    0.678227 0.840172 0.576051 0.100231
H8    H     H_    0.322002 0.348432 0.425053 0.115758
C33   C     C_3   0.780533 0.678384 0.219701 0.574918
C34   C     C_3   0.215054 0.179439 0.770013 0.564777
C35   C     C_3   0.809462 0.013807 0.273355 0.223776
C36   C     C_3   0.188275 0.518247 0.725143 0.276910
C37   C     C_3   0.763016 0.983570 0.327517 0.577301
C38   C     C_3   0.232229 0.478404 0.668987 0.574582
H9    H     H_    0.741930 0.573947 0.310645 0.053113
H10   H     H_    0.258307 0.078844 0.681096 0.088664
C39   C     C_1   0.623036 0.851025 0.377061 -0.217565
C40   C     C_1   0.375639 0.353655 0.621028 -0.216373
C41   C     C_3   0.787328 0.897518 0.201743 -0.098262
C42   C     C_3   0.209714 0.394623 0.794270 -0.072617
C43   C     C_3   0.726185 0.663984 0.265020 0.267980
C44   C     C_3   0.271925 0.166308 0.728763 0.293627
C45   C     C_3   0.706749 0.867452 0.289623 -0.111874
C46   C     C_3   0.290592 0.370129 0.706506 -0.090217
C47   C     C_3   0.679289 0.978959 0.223004 -0.419927
C48   C     C_3   0.317430 0.479098 0.774028 -0.448424
C49   C     C_3   0.720851 0.969226 0.165078 0.792258
C50   C     C_3   0.276059 0.460502 0.832066 0.783942
C51   C     C_1   0.660135 0.856612 0.337418 0.039214
C52   C     C_1   0.337560 0.360680 0.659391 0.020103
C53   C     C_1   0.833913 0.924029 0.154653 -0.001184
C54   C     C_1   0.163535 0.420109 0.842052 0.001721
C55   C     C_1   0.873271 0.940342 0.118234 -0.252427
C56   C     C_1   0.125173 0.438035 0.879762 -0.252387
H11   H     H_    0.632934 0.923007 0.202381 0.190642
H12   H     H_    0.364164 0.425100 0.794122 0.192749
H13   H     H_    0.672008 0.128555 0.236773 0.175819
H14   H     H_    0.323703 0.629577 0.761074 0.166362
O11   O     O_R   0.056480 0.288780 0.942210 -0.536532
O12   O     O_R   0.943520 0.788780 0.057790 -0.536502
O13   O     O_R   0.058700 0.616820 0.085490 -0.537366
O14   O     O_R   0.941300 0.116820 0.914510 -0.538107
C57   C     C_R   0.072760 0.448210 0.111653 0.690064
C58   C     C_R   0.927185 0.947882 0.888522 0.692669
O15   O     O_R   0.063520 0.618570 0.944410 -0.538165
O16   O     O_R   0.936480 0.118570 0.055590 -0.538597
O17   O     O_R   0.948420 0.787670 0.915740 -0.534298
O18   O     O_R   0.051580 0.287670 0.084260 -0.533487
C59   C     C_R   0.078950 0.449656 0.924472 0.724988
C60   C     C_R   0.920644 0.950221 0.075018 0.723358
O19   O     O_3   0.962260 0.453430 0.990800 -0.370192
O20   O     O_3   0.037740 0.953430 0.009200 -0.369376
V3    V     V_3+5 0.007000 0.728750 0.001710 1.396645
V4    V     V_3+5 0.993000 0.228750 0.998290 1.395795
N1    N     N_3   0.837924 0.596972 0.257868 -0.702221
H15   H     H_    0.842413 0.596346 0.311477 0.228572
H16   H     H_    0.877110 0.655236 0.243113 0.241172
N2    N     N_3   0.159233 0.126111 0.721377 -0.677019
H17   H     H_    0.119279 0.118261 0.742735 0.237917
H18   H     H_    0.163771 0.011359 0.688855 0.269303
N3    N     N_3   0.813476 0.217116 0.258309 -0.621510
H19   H     H_    0.840734 0.239076 0.220232 0.261713
H20   H     H_    0.770551 0.275987 0.241779 0.322006
N4    N     N_3   0.189576 0.719934 0.742612 -0.654035
H21   H     H_    0.162843 0.745752 0.780866 0.252341
H22   H     H_    0.233751 0.769716 0.757808 0.318093
N5    N     N_3   0.871252 0.953915 0.305925 -0.673837
H23   H     H_    0.885184 0.034100 0.350912 0.265691
H24   H     H_    0.902915 0.985120 0.273305 0.230839
N6    N     N_3   0.124265 0.476176 0.694199 -0.614730
H25   H     H_    0.110456 0.570976 0.653390 0.244655
H26   H     H_    0.094743 0.503207 0.729729 0.226205
N7    N     N_3   0.791464 0.882553 0.391422 -0.676914
H27   H     H_    0.759480 0.869435 0.424841 0.217848
H28   H     H_    0.804671 0.745087 0.382802 0.191159
N8    N     N_3   0.200159 0.355694 0.612304 -0.676826
H29   H     H_    0.165591 0.428727 0.580175 0.244728
H30   H     H_    0.230103 0.299251 0.581346 0.224572
O21   O     O_3   0.739665 0.163177 0.347177 -0.556454
C61   C     C_3   0.778411 0.258041 0.401643 -0.158934
H31   H     H_    0.777642 0.188243 0.452327 0.141710
H32   H     H_    0.825940 0.270963 0.391363 0.164376
H33   H     H_    0.760532 0.403180 0.407413 0.110535
O22   O     O_3   0.250887 0.659147 0.644818 -0.558205
C62   C     C_3   0.251109 0.677792 0.572747 -0.233664
H34   H     H_    0.275749 0.810611 0.564344 0.152165
H35   H     H_    0.275763 0.560648 0.551108 0.157590
H36   H     H_    0.203930 0.694419 0.544163 0.142403
O23   O     O_3   0.692395 0.834414 0.114629 -0.528348
C63   C     C_3   0.707049 0.853616 0.047011 -0.113459
H37   H     H_    0.710558 0.709734 0.024642 0.159230
H38   H     H_    0.750218 0.930668 0.044769 0.119474
H39   H     H_    0.668902 0.925098 0.012921 0.153837
O24   O     O_3   0.303454 0.316670 0.879193 -0.526659
C64   C     C_3   0.291744 0.333077 0.948197 -0.111286
H40   H     H_    0.290641 0.188275 0.970279 0.155163
H41   H     H_    0.248001 0.404640 0.952773 0.120309
H42   H     H_    0.329992 0.408188 0.980862 0.151322
O25   O     O_3   0.725104 0.152691 0.134861 -0.577520
C65   C     C_3   0.668338 0.224533 0.100247 -0.213059
H43   H     H_    0.628442 0.129481 0.101103 0.130586
H44   H     H_    0.672319 0.254184 0.045338 0.135993
H45   H     H_    0.658387 0.361544 0.123603 0.242311
O26   O     O_3   0.271614 0.638593 0.866723 -0.575204
C66   C     C_3   0.328773 0.714341 0.898039 -0.229175
H46   H     H_    0.368298 0.616361 0.898783 0.128946
H47   H     H_    0.325892 0.754311 0.952477 0.147824
H48   H     H_    0.338027 0.845932 0.870897 0.234515
O27   O     O_3   0.762282 0.565380 0.158191 -0.491251
C67   C     C_3   0.807978 0.518955 0.117359 -0.084080
H49   H     H_    0.795187 0.383651 0.089732 0.164892
H50   H     H_    0.854570 0.496921 0.146183 0.112646
H51   H     H_    0.809186 0.624999 0.076009 0.099668
O28   O     O_3   0.227559 0.047718 0.826944 -0.508326
C68   C     C_3   0.182624 0.021240 0.870246 -0.124970
H52   H     H_    0.187502 0.875505 0.891824 0.170771
H53   H     H_    0.134757 0.034816 0.844692 0.090713
H54   H     H_    0.191116 0.115552 0.916091 0.122914
O29   O     O_3   0.675140 0.575116 0.223150 -0.510563
C69   C     C_3   0.632819 0.493913 0.261504 -0.180926
H55   H     H_    0.596313 0.597749 0.266881 0.143165
H56   H     H_    0.653808 0.437045 0.312982 0.150895
H57   H     H_    0.608975 0.375659 0.230843 0.150166
O30   O     O_3   0.321930 0.077983 0.772560 -0.513779
C70   C     C_3   0.364290 0.989806 0.735640 -0.204198
H58   H     H_    0.399818 0.092399 0.726385 0.150068
H59   H     H_    0.342975 0.920435 0.686389 0.153466
H60   H     H_    0.389178 0.878638 0.769073 0.137587
N9    N     N_3   0.794546 0.829674 0.569069 -0.687663
H61   H     H_    0.776704 0.708161 0.542141 0.226855
H62   H     H_    0.780344 0.948812 0.538949 0.229560
N10   N     N_3   0.207786 0.340958 0.434465 -0.711869
H63   H     H_    0.180473 0.219524 0.432693 0.233552
H64   H     H_    0.181187 0.461130 0.440021 0.220459
N11   N     N_3   0.520085 0.861377 0.732832 -0.675444
H65   H     H_    0.508867 0.975924 0.762666 0.243459
H66   H     H_    0.504008 0.736826 0.752569 0.232926
N12   N     N_3   0.478774 0.351845 0.263767 -0.652740
H67   H     H_    0.495037 0.476756 0.289451 0.221616
H68   H     H_    0.497799 0.235818 0.293022 0.217719
N13   N     N_3   0.717346 0.801639 0.881830 -0.698140
H69   H     H_    0.754505 0.710981 0.880480 0.232153
H70   H     H_    0.728196 0.928162 0.909119 0.219852
N14   N     N_3   0.280931 0.277384 0.120615 -0.690615
H71   H     H_    0.243312 0.191622 0.124828 0.235926
H72   H     H_    0.270245 0.397031 0.089453 0.221839
O31   O     O_3   0.592904 0.821803 0.863587 -0.549041
C71   C     C_3   0.587188 0.628191 0.880353 -0.229164
H73   H     H_    0.632427 0.563363 0.899809 0.162955
H74   H     H_    0.563407 0.544242 0.835551 0.115328
H75   H     H_    0.559432 0.618446 0.922670 0.162868
O32   O     O_3   0.404560 0.311334 0.135921 -0.535992
C72   C     C_3   0.417823 0.117819 0.126024 -0.185007
H76   H     H_    0.375712 0.029319 0.118887 0.140313
H77   H     H_    0.451583 0.061898 0.169780 0.139618
H78   H     H_    0.438349 0.104367 0.078027 0.155378

loop_
_geom_bond_atom_site_label_1
_geom_bond_atom_site_label_2
_ccdc_geom_bond_type
C44   C46   S    
C33   O27   S    
C7    C29   A    
C11   C13   A    
C64   H41   S    
C70   H58   S    
N5    H23   S    
O1    C3    A    
C23   N9    S    
O2    C4    A    
O22   C62   S    
C2    O7    A    
N6    H25   S    
O19   V4    S    
O18   V4    S    
O21   C61   S    
C23   C25   A    
N9    H61   S    
C33   N1    S    
C38   O22   S    
N3    H20   S    
C69   H56   S    
C41   C53   S    
C35   N3    S    
O12   V3    S    
C16   C20   A    
C2    C39   S    
C49   O25   S    
C69   H55   S    
C19   C21   A    
C5    C29   A    
C66   H47   S    
C47   H11   S    
C64   H42   S    
O14   C58   A    
N13   H70   S    
C37   O21   S    
C56   C59   S    
C46   C52   S    
O25   C65   S    
O11   C59   A    
C55   C60   S    
C7    C27   A    
N4    H21   S    
N14   H72   S    
C72   H77   S    
N12   H67   S    
C36   N4    S    
O29   C69   S    
C13   N13   S    
C18   C26   A    
C43   C45   S    
O11   V4    S    
O20   V4    S    
C36   C42   S    
C45   C51   S    
C24   C26   A    
C19   C27   A    
C9    C31   A    
C67   H50   S    
C10   C32   A    
C62   H36   S    
N10   H64   S    
H10   C44   S    
O6    V2    S    
C22   C24   A    
C57   O18   A    
O15   C59   A    
C70   H59   S    
C65   H45   S    
C3    C32   S    
N2    H17   S    
C11   O31   S    
C37   C45   S    
C4    C31   S    
O14   V4    S    
C6    C30   A    
C26   H8    S    
N8    H30   S    
O16   C60   A    
O13   C57   A    
C47   C49   S    
C15   C17   A    
C48   H12   S    
O31   C71   S    
C71   H75   S    
C47   H13   S    
O26   C66   S    
C67   H51   S    
C65   H44   S    
C66   H48   S    
C24   N10   S    
C27   H5    S    
O12   C60   A    
O5    V1    S    
C39   C51   T    
C50   O26   S    
C50   O24   S    
C5    H3    S    
C35   C41   S    
N14   H71   S    
C45   C47   S    
C16   C18   A    
O4    V2    S    
C72   H78   S    
O5    C3    A    
C9    N11   S    
C34   O28   S    
N6    H26   S    
C68   H52   S    
C58   O17   A    
O6    C4    A    
O20   V3    S    
C43   O29   S    
C38   N8    S    
C42   C54   S    
C68   H54   S    
N5    H24   S    
O1    V2    S    
C5    C21   A    
O16   V4    S    
O17   V3    S    
C63   H39   S    
N2    H18   S    
O2    V1    S    
C53   C55   T    
C67   H49   S    
N9    H62   S    
C61   H33   S    
C10   N12   S    
C38   C46   S    
O30   C70   S    
N1    H16   S    
C41   C49   S    
C7    C58   S    
C35   C37   S    
O9    V1    S    
O28   C68   S    
C17   C31   A    
C70   H60   S    
C15   C19   A    
C20   C28   A    
O4    C2    A    
C18   C32   A    
C37   N7    S    
C20   C22   A    
C33   C43   S    
N8    H29   S    
C61   H32   S    
C62   H34   S    
C28   H6    S    
O19   V3    S    
N10   H63   S    
C35   N5    S    
C6    H4    S    
C34   N2    S    
C69   H57   S    
C54   C56   T    
O32   C72   S    
O3    C1    A    
C49   O23   S    
C63   H38   S    
C64   H40   S    
H1    C29   S    
C63   H37   S    
C34   C44   S    
C9    C11   A    
N3    H19   S    
C10   C12   A    
N1    H15   S    
C44   O30   S    
C65   H43   S    
C8    C30   A    
C71   H73   S    
N7    H28   S    
C68   H53   S    
O7    V1    S    
C17   C25   A    
C1    O8    A    
C21   C23   A    
O8    V2    S    
N7    H27   S    
H9    C43   S    
C14   C16   A    
C33   C41   S    
N13   H69   S    
O23   C63   S    
N4    H22   S    
C34   C42   S    
C8    C28   A    
C12   C14   A    
C12   O32   S    
C36   C38   S    
C1    C40   S    
O10   V2    S    
C42   C50   S    
C6    C22   A    
C72   H76   S    
C48   H14   S    
C8    C57   S    
N12   H68   S    
O13   V3    S    
O24   C64   S    
N11   H65   S    
C13   C15   A    
O9    V2    S    
O15   V3    S    
C46   C48   S    
C36   N6    S    
O10   V1    S    
C40   C52   T    
O3    V1    S    
C48   C50   S    
C62   H35   S    
O27   C67   S    
C66   H46   S    
C25   H7    S    
H2    C30   S    
C14   N14   S    
C61   H31   S    
N11   H66   S    
C71   H74   S    
