data_mof_unit_16091.cif
_audit_creation_date              2013-03-05T15:44:34-0500
_audit_creation_method            fapswitch 2.2
_symmetry_space_group_name_H-M    P1
_symmetry_Int_Tables_number       1
_space_group_crystal_system       triclinic
_cell_length_a                    27.840011
_cell_length_b                    10.924294
_cell_length_c                    9.681977
_cell_angle_alpha                 90.682014
_cell_angle_beta                  89.388346
_cell_angle_gamma                 90.326173
_cell_volume                      2944.18153431

loop_
_atom_site_label
_atom_site_type_symbol
_atom_site_description
_atom_site_fract_x
_atom_site_fract_y
_atom_site_fract_z
_atom_type_partial_charge
O1    O     O_R   0.500010 0.321960 0.617040 -0.561715
O2    O     O_R   0.499990 0.321920 0.382900 -0.501606
C1    C     C_R   0.501411 0.265204 0.498558 0.939899
O3    O     O_R   0.430270 0.500040 0.617060 -0.601094
O4    O     O_R   0.430260 0.500000 0.382910 -0.557044
C2    C     C_R   0.407509 0.499026 0.500627 0.807430
Cu1   Cu    Cu3+1 0.500010 0.500020 0.638630 0.994305
Cu2   Cu    Cu3+1 0.499990 0.499980 0.361370 1.073653
O5    O     O_R   0.500010 0.678080 0.617100 -0.585982
O6    O     O_R   0.499990 0.678040 0.382960 -0.567948
O7    O     O_R   0.569740 0.500000 0.617090 -0.555506
O8    O     O_R   0.569730 0.499960 0.382940 -0.566862
C3    C     C_R   0.501072 0.734810 0.500966 0.847643
C4    C     C_R   0.592440 0.496937 0.499822 0.921393
C5    C     C_R   0.178181 0.382028 0.472223 0.600022
O9    O     O_2   0.202923 0.278478 0.444960 -0.517230
N1    N     N_R   0.202292 0.488010 0.503796 -0.453414
C6    C     C_R   0.178194 0.593697 0.535308 0.502338
C7    C     C_R   0.279341 0.477315 0.376517 0.499553
C8    C     C_R   0.329711 0.478594 0.377674 -0.315411
C9    C     C_R   0.328755 0.509154 0.626110 -0.227606
C10   C     C_R   0.278730 0.505653 0.626205 -0.179108
C11   C     C_R   0.253864 0.489170 0.502213 0.282008
C12   C     C_R   0.102230 0.488409 0.499337 -0.054609
C13   C     C_R   0.127777 0.380408 0.468712 -0.040552
C14   C     C_R   0.102617 0.273669 0.434037 -0.149792
C15   C     C_R   0.127815 0.595907 0.533465 -0.017209
C16   C     C_R   0.354654 0.496159 0.501670 -0.079704
H1    H     H_    0.347089 0.521980 0.723374 0.165004
H2    H     H_    0.259144 0.515502 0.722929 0.154412
H3    H     H_    0.121432 0.189941 0.407498 0.185995
C17   C     C_R   0.645401 0.493825 0.499803 -0.246343
C18   C     C_R   0.974809 0.378091 0.471462 -0.008439
C19   C     C_R   0.975223 0.601065 0.511716 -0.008386
C20   C     C_R   0.949692 0.489761 0.490568 0.061745
C21   C     C_R   0.947920 0.268582 0.462027 -0.287233
C22   C     C_R   0.897950 0.267931 0.469071 0.480535
C23   C     C_R   0.872680 0.379303 0.474298 -0.116677
C24   C     C_R   0.898570 0.490132 0.488884 -0.161011
C25   C     C_R   0.873283 0.601341 0.502313 -0.109851
C26   C     C_R   0.822734 0.598216 0.509878 0.554586
N2    N     N_R   0.798279 0.490843 0.488266 -0.443201
C27   C     C_R   0.822182 0.383186 0.466352 0.562202
C28   C     C_R   0.721324 0.414629 0.581827 -0.178917
C29   C     C_R   0.671086 0.412857 0.585444 0.361195
C30   C     C_R   0.671003 0.576992 0.416072 0.379292
C31   C     C_R   0.721126 0.570013 0.406354 -0.183752
C32   C     C_R   0.746514 0.490927 0.491000 0.201854
O10   O     O_2   0.797060 0.280786 0.434893 -0.498012
C33   C     C_R   0.025868 0.378728 0.466310 0.066516
C34   C     C_R   0.051201 0.488880 0.496074 0.073175
C35   C     C_R   0.026072 0.599501 0.522720 0.066507
C36   C     C_R   0.052724 0.272705 0.432180 -0.212817
H4    H     H_    0.741329 0.355915 0.649410 0.205896
H5    H     H_    0.964612 0.180004 0.456479 0.140548
H6    H     H_    0.036346 0.187561 0.400268 0.137260
O11   O     O_2   0.202958 0.696700 0.566840 -0.554671
C37   C     C_R   0.102704 0.703030 0.565295 -0.152151
H7    H     H_    0.349277 0.464534 0.281712 0.172746
H8    H     H_    0.121501 0.786397 0.594346 0.187844
C38   C     C_R   0.949012 0.711121 0.517794 -0.289857
C39   C     C_R   0.899195 0.712385 0.507865 0.482750
O12   O     O_2   0.798120 0.700999 0.541719 -0.529001
C40   C     C_R   0.052872 0.704944 0.560629 -0.217630
H9    H     H_    0.966254 0.799507 0.523399 0.142050
H10   H     H_    0.740498 0.628921 0.335603 0.159135
H11   H     H_    0.036388 0.790268 0.590787 0.138718
C41   C     C_2   0.514354 0.930786 0.390609 -0.218779
C42   C     C_2   0.506287 0.866713 0.505505 -0.400661
H12   H     H_    0.517539 0.883985 0.291296 0.214541
H13   H     H_    0.506938 0.909760 0.607003 0.170279
C43   C     C_2   0.521711 0.063936 0.393749 0.456339
C44   C     C_2   0.500766 0.132582 0.494826 -0.398237
H14   H     H_    0.479658 0.090792 0.576479 0.113754
C45   C     C_2   0.464243 0.459813 0.923468 -0.153532
N3    N     N_2   0.499480 0.498660 0.846910 -0.269092
H15   H     H_    0.430356 0.440613 0.873895 0.142689
H16   H     H_    0.532879 0.496330 0.890761 0.245537
C46   C     C_2   0.469568 0.434445 0.078551 0.689795
N4    N     N_2   0.499460 0.498630 0.153040 -0.040302
O13   O     O_3   0.254631 0.451167 0.256063 -0.592542
C47   C     C_3   0.260342 0.546695 0.159647 0.019983
H17   H     H_    0.254706 0.506353 0.055122 0.177407
H18   H     H_    0.297045 0.587880 0.157953 0.124709
C48   C     C_3   0.222618 0.646162 0.185544 -0.352098
H19   H     H_    0.186292 0.603562 0.191035 0.233037
H20   H     H_    0.229819 0.693011 0.285701 0.241201
C49   C     C_3   0.223577 0.741012 0.071117 -0.860330
H21   H     H_    0.259497 0.785524 0.064724 0.258394
H22   H     H_    0.196254 0.812386 0.093699 0.263739
H23   H     H_    0.215216 0.697049 0.970066 0.260647
O14   O     O_3   0.646373 0.665382 0.344455 -0.636753
C50   C     C_3   0.657163 0.783836 0.397734 0.030277
H24   H     H_    0.640075 0.850802 0.328820 0.220540
H25   H     H_    0.696349 0.804372 0.394398 0.162704
C51   C     C_3   0.636891 0.803714 0.544700 -0.428862
H26   H     H_    0.599062 0.771905 0.549177 0.223256
H27   H     H_    0.657812 0.749541 0.619370 0.219759
C52   C     C_3   0.639117 0.938366 0.587941 -0.726845
H28   H     H_    0.676921 0.971419 0.587097 0.275254
H29   H     H_    0.624073 0.949592 0.693975 0.242042
H30   H     H_    0.617707 0.994699 0.516702 0.295541
O15   O     O_3   0.876479 0.824600 0.506560 -0.597508
C53   C     C_3   0.866182 0.856647 0.368678 0.132784
H31   H     H_    0.837405 0.926626 0.373219 0.210247
H32   H     H_    0.851480 0.778408 0.306900 0.114036
C54   C     C_3   0.910494 0.911090 0.295682 -0.387739
H33   H     H_    0.929021 0.976974 0.365289 0.241545
H34   H     H_    0.936064 0.836762 0.268203 0.201335
C55   C     C_3   0.896637 0.976760 0.164254 -0.867849
H35   H     H_    0.878371 0.911960 0.092553 0.253744
H36   H     H_    0.929488 0.013340 0.113086 0.252491
H37   H     H_    0.872299 0.054448 0.188771 0.291019
S1    S     S_3+6 0.558632 0.125057 0.260129 0.006184
O16   O     O_2   0.527473 0.179129 0.151081 -0.295276
O17   O     O_2   0.591517 0.222339 0.317243 -0.261995
O18   O     O_3   0.591918 0.012947 0.187892 -0.593108
H38   H     H_    0.609569 0.052334 0.110796 0.379930
O19   O     O_3   0.441383 0.347978 0.148008 -0.599224
C56   C     C_3   0.418268 0.261677 0.060688 0.039499
H39   H     H_    0.417114 0.173022 0.115706 0.189740
H40   H     H_    0.438589 0.241696 0.963372 0.147840
C57   C     C_3   0.366216 0.300287 0.034772 -0.412231
H41   H     H_    0.344305 0.283938 0.129458 0.245818
H42   H     H_    0.364434 0.399564 0.012111 0.202850
C58   C     C_3   0.344405 0.228353 0.914667 -0.855202
H43   H     H_    0.364670 0.247012 0.817614 0.252002
H44   H     H_    0.306528 0.256680 0.900825 0.264728
H45   H     H_    0.345153 0.128650 0.935716 0.261143
O20   O     O_3   0.509907 0.609344 0.098813 -0.573971
C59   C     C_3   0.559688 0.630749 0.110738 0.178291
H46   H     H_    0.580797 0.545122 0.094405 0.167785
H47   H     H_    0.567530 0.670257 0.213812 0.218176
C60   C     C_3   0.575096 0.724787 0.002341 -0.404825
H48   H     H_    0.561788 0.696710 0.898954 0.235881
H49   H     H_    0.558903 0.814908 0.028901 0.252265
C61   C     C_3   0.629592 0.738669 0.993160 -0.829289
H50   H     H_    0.644087 0.772052 0.092939 0.280645
H51   H     H_    0.639086 0.806114 0.912287 0.247606
H52   H     H_    0.646431 0.649685 0.965203 0.273022
S2    S     S_3+6 0.642506 0.307752 0.698120 0.012296
O21   O     O_2   0.621720 0.376449 0.819980 -0.297478
O22   O     O_2   0.603006 0.241117 0.623708 -0.292650
O23   O     O_3   0.682287 0.205037 0.754946 -0.547320
H53   H     H_    0.663741 0.152545 0.819256 0.371448
O24   O     O_3   0.874523 0.155948 0.468595 -0.598172
C62   C     C_3   0.862698 0.122707 0.605912 0.142721
H54   H     H_    0.834129 0.051518 0.599796 0.213137
H55   H     H_    0.847085 0.200059 0.667437 0.121710
C63   C     C_3   0.906237 0.069892 0.680520 -0.394364
H56   H     H_    0.926334 0.006965 0.610544 0.244261
H57   H     H_    0.930845 0.145475 0.711718 0.201060
C64   C     C_3   0.890907 0.000257 0.809110 -0.859270
H58   H     H_    0.871762 0.062392 0.882455 0.256384
H59   H     H_    0.923243 0.963457 0.859882 0.251260
H60   H     H_    0.866976 0.922298 0.781235 0.291325

loop_
_geom_bond_atom_site_label_1
_geom_bond_atom_site_label_2
_geom_bond_distance
_ccdc_geom_bond_type
C50   H24   1.108619 S    
C26   N2    1.367955 A    
C20   C24   1.423545 A    
C7    C8    1.402454 A    
C12   C15   1.407792 A    
C59   C60   1.533570 S    
C60   C61   1.525617 S    
C53   H32   1.115746 S    
S1    O16   1.502142 D    
C57   H41   1.111364 S    
C48   H19   1.111861 S    
C56   H39   1.110998 S    
Cu1   O7    1.950237 S    
C61   H51   1.110369 S    
N1    C11   1.435652 S    
C21   C22   1.392074 A    
C62   H55   1.115564 S    
N3    H16   1.026854 S    
O24   C62   1.417260 S    
S2    O22   1.501174 D    
C23   C24   1.411907 A    
O7    C4    1.293679 A    
C36   H6    1.076968 S    
C30   O14   1.384556 S    
C37   H8    1.083515 S    
C5    O9    1.349692 S    
C51   C52   1.525701 S    
C43   S1    1.777743 S    
C18   C21   1.410166 A    
C25   C39   1.408597 A    
N1    C6    1.368306 A    
C19   C20   1.418778 A    
C44   H14   1.083682 S    
C42   H13   1.084644 S    
O5    C3    1.290314 A    
C55   H35   1.110581 S    
C2    C16   1.471557 S    
C62   H54   1.110747 S    
C41   C42   1.337639 D    
C63   C64   1.522629 S    
C51   H27   1.111407 S    
C31   C32   1.397793 A    
C54   H33   1.109006 S    
C22   O24   1.383043 S    
C64   H59   1.109927 S    
C31   H10   1.083003 S    
C56   C57   1.535606 S    
Cu2   O8    1.954976 S    
C12   C34   1.421368 A    
C14   H3    1.083522 S    
C50   H25   1.112726 S    
C9    C10   1.392997 A    
C29   S2    1.772693 S    
C54   H34   1.110982 S    
O3    Cu1   1.954981 S    
C53   H31   1.110683 S    
C56   H40   1.113826 S    
O13   C47   1.415587 S    
Cu1   O5    1.958784 S    
C48   H20   1.110686 S    
C37   C40   1.388839 A    
C61   H52   1.110956 S    
C33   C36   1.416042 A    
N4    O20   1.353114 S    
C34   C35   1.419403 A    
C40   H11   1.077127 S    
Cu1   Cu2   2.684426 S    
C62   C63   1.536408 S    
C12   C13   1.408010 A    
O3    C2    1.298978 A    
C35   C40   1.415707 A    
S2    O23   1.682342 S    
C4    C17   1.475038 S    
C24   C25   1.411538 A    
C27   O10   1.349384 S    
C57   C58   1.525250 S    
C60   H49   1.111383 S    
C8    C16   1.403965 A    
C58   H45   1.110818 S    
C18   C33   1.421798 A    
C9    H1    1.083175 S    
C15   C37   1.396173 A    
C19   C38   1.410251 A    
C46   O19   1.398427 S    
O1    C1    1.297787 A    
C7    C11   1.407040 A    
C45   N3    1.295795 D    
C22   C23   1.408996 A    
C38   H9    1.076875 S    
C6    O11   1.349864 S    
C52   H28   1.110736 S    
C49   H23   1.111060 S    
C41   C43   1.467771 S    
C51   H26   1.107700 S    
C33   C34   1.419472 A    
C17   C29   1.420755 A    
N2    C32   1.441110 S    
C8    H7    1.081802 S    
C45   H15   1.081411 S    
C55   H37   1.110876 S    
C60   H48   1.110240 S    
Cu2   O6    1.953904 S    
C25   C26   1.408644 A    
C52   H29   1.110321 S    
C9    C16   1.403624 A    
O8    C4    1.303017 A    
C50   C51   1.538593 S    
C47   H18   1.114181 S    
C54   C55   1.522511 S    
C63   H57   1.111041 S    
N2    C27   1.367832 A    
C26   O12   1.349592 S    
C59   H46   1.116301 S    
C14   C36   1.389308 A    
C28   C29   1.398721 A    
C39   O15   1.382829 S    
C48   C49   1.525825 S    
C5    N1    1.368066 A    
C30   C31   1.400018 A    
C58   H44   1.110578 S    
C10   H2    1.083166 S    
O1    Cu1   1.953904 S    
C17   C30   1.410142 A    
O2    Cu2   1.958784 S    
C6    C15   1.403202 A    
C49   H22   1.110641 S    
C43   C44   1.354774 D    
C59   H47   1.105967 S    
O6    C3    1.294046 A    
O4    Cu2   1.950240 S    
S1    O17   1.503034 D    
O19   C56   1.415421 S    
Cu1   N3    2.016689 S    
C47   C48   1.532137 S    
C61   H50   1.107870 S    
C19   C35   1.421005 A    
C63   H56   1.108967 S    
O23   H53   0.990646 S    
O2    C1    1.287302 A    
C13   C14   1.396221 A    
C23   C27   1.409698 A    
C21   H5    1.076362 S    
C7    O13   1.386315 S    
O18   H38   0.990555 S    
O4    C2    1.298118 A    
C3    C42   1.447610 S    
C58   H43   1.111197 S    
C64   H60   1.110810 S    
O14   C50   1.419094 S    
C18   C20   1.418779 A    
O20   C59   1.409905 S    
C38   C39   1.391429 A    
C1    C44   1.448833 S    
C55   H36   1.110134 S    
S1    O18   1.681226 S    
C57   H42   1.110548 S    
C46   N4    1.303250 D    
C28   H4    1.082403 S    
C52   H30   1.110302 S    
C49   H21   1.110930 S    
C5    C13   1.404020 A    
C41   H12   1.086661 S    
C47   H17   1.111305 S    
O15   C53   1.416805 S    
Cu2   N4    2.017136 S    
C10   C11   1.401441 A    
C64   H58   1.110709 S    
S2    O21   1.503124 D    
C45   C46   1.538967 S    
C53   C54   1.535630 S    
C28   C32   1.399099 A    
