data_mof_unit_29022.cif
_audit_creation_date              2012-12-11T16:25:33-0500
_audit_creation_method            fapswitch 2.2
_symmetry_space_group_name_H-M    P1
_symmetry_Int_Tables_number       1
_space_group_crystal_system       triclinic
_cell_length_a                    20.173322
_cell_length_b                    7.265299
_cell_length_c                    13.458364
_cell_angle_alpha                 89.569326
_cell_angle_beta                  103.226053
_cell_angle_gamma                 90.65144
_cell_volume                      1920.05806841

loop_
_atom_site_label
_atom_site_type_symbol
_atom_type_description
_atom_site_fract_x
_atom_site_fract_y
_atom_site_fract_z
_atom_type_partial_charge
O1    O     O_R   0.449520 0.506760 0.599710 -0.537015
O2    O     O_R   0.550480 0.006760 0.400290 -0.537110
O3    O     O_R   0.587930 0.180200 0.595790 -0.538591
O4    O     O_R   0.412070 0.680200 0.404210 -0.538582
C1    C     C_R   0.614493 0.344758 0.617289 0.693684
C2    C     C_R   0.385502 0.843987 0.382705 0.693294
O5    O     O_R   0.452350 0.177380 0.611700 -0.541068
O6    O     O_R   0.547650 0.677380 0.388300 -0.540773
O7    O     O_R   0.413930 0.001760 0.416320 -0.535915
O8    O     O_R   0.586070 0.501760 0.583680 -0.535177
C3    C     C_R   0.436460 0.344346 0.637978 0.679307
C4    C     C_R   0.563469 0.846814 0.362044 0.679457
O9    O     O_3   0.487550 0.337460 0.435880 -0.377346
O10   O     O_3   0.512450 0.837460 0.564120 -0.377217
V1    V     V_3+5 0.502310 0.064670 0.511900 1.418281
V2    V     V_3+5 0.497690 0.564670 0.488100 1.418991
C5    C     C_R   0.611323 0.943147 0.113255 -0.164949
C6    C     C_R   0.389156 0.291397 0.890403 -0.166280
H1    H     H_    0.517751 0.937823 0.163289 0.102238
H2    H     H_    0.482677 0.287025 0.840404 0.101808
H3    H     H_    0.695735 0.992966 0.990600 0.140423
H4    H     H_    0.305064 0.262445 0.014880 0.139785
H5    H     H_    0.586273 0.985088 0.036499 0.114919
H6    H     H_    0.414452 0.261701 0.968892 0.114952
C7    C     C_R   0.603182 0.860670 0.284167 -0.025078
C8    C     C_R   0.396858 0.346124 0.716223 -0.025130
C9    C     C_R   0.930080 0.802596 0.314720 -0.174722
C10   C     C_R   0.069525 0.401257 0.682629 -0.174516
C11   C     C_R   0.893960 0.776361 0.390043 -0.122843
C12   C     C_R   0.105434 0.413212 0.606248 -0.124214
C13   C     C_R   0.823559 0.797358 0.367580 -0.165482
C14   C     C_R   0.175960 0.395031 0.629682 -0.163981
C15   C     C_R   0.787203 0.847147 0.268090 0.063454
C16   C     C_R   0.212656 0.362549 0.731316 0.064961
C17   C     C_R   0.824861 0.878105 0.191716 0.060382
C18   C     C_R   0.175196 0.345088 0.808922 0.059876
C19   C     C_R   0.714864 0.866525 0.241765 0.058923
C20   C     C_R   0.285152 0.347652 0.758577 0.060149
C21   C     C_R   0.682189 0.920240 0.140669 0.131704
C22   C     C_R   0.318150 0.310320 0.861900 0.132176
C23   C     C_R   0.720339 0.951847 0.067719 -0.195588
C24   C     C_R   0.280192 0.290921 0.936045 -0.193376
C25   C     C_R   0.790436 0.930116 0.092463 -0.201860
C26   C     C_R   0.209970 0.309471 0.910344 -0.202457
C27   C     C_R   0.673593 0.835491 0.312336 -0.221923
C28   C     C_R   0.326278 0.367502 0.686884 -0.222157
C29   C     C_R   0.572160 0.915256 0.184928 -0.180561
C30   C     C_R   0.428154 0.307088 0.817717 -0.179986
C31   C     C_R   0.896361 0.853871 0.215970 -0.068832
C32   C     C_R   0.103557 0.366624 0.783595 -0.068936
H7    H     H_    0.694418 0.795580 0.390401 0.103573
H8    H     H_    0.305212 0.395043 0.607207 0.104052
H9    H     H_    0.984618 0.781587 0.333366 0.101001
H10   H     H_    0.014879 0.420277 0.663000 0.100826
H11   H     H_    0.799380 0.773678 0.430072 0.120557
H12   H     H_    0.199970 0.406957 0.566231 0.120982
H13   H     H_    0.920662 0.737427 0.466430 0.121720
H14   H     H_    0.078466 0.438981 0.528182 0.121724
H15   H     H_    0.817452 0.954992 0.032743 0.134307
H16   H     H_    0.183155 0.295195 0.971085 0.134643
H17   H     H_    0.102862 0.004433 0.468702 0.119335
H18   H     H_    0.898733 0.184502 0.537581 0.119264
C33   C     C_R   0.232873 0.788986 0.037933 -0.140213
C34   C     C_R   0.766250 0.442936 0.959373 -0.139980
C35   C     C_R   0.289104 0.753163 0.997517 -0.099898
C36   C     C_R   0.709691 0.483518 0.998075 -0.101701
C37   C     C_R   0.353898 0.746925 0.061060 -0.135770
C38   C     C_R   0.644976 0.483260 0.934061 -0.135482
C39   C     C_R   0.363014 0.777774 0.165441 -0.146602
C40   C     C_R   0.636275 0.441288 0.830939 -0.146293
C41   C     C_R   0.306938 0.815313 0.208692 0.068782
C42   C     C_R   0.692687 0.398642 0.789522 0.067841
C43   C     C_R   0.240480 0.820288 0.143698 0.058526
C44   C     C_R   0.759042 0.400073 0.854956 0.058498
C45   C     C_R   0.316349 0.850941 0.314514 -0.178925
C46   C     C_R   0.683780 0.352436 0.685098 -0.178170
C47   C     C_R   0.259380 0.892814 0.355258 0.064146
C48   C     C_R   0.741164 0.306954 0.646154 0.064421
C49   C     C_R   0.192911 0.897331 0.290301 0.071375
C50   C     C_R   0.807518 0.308629 0.711562 0.070712
C51   C     C_R   0.183410 0.859680 0.184688 -0.177329
C52   C     C_R   0.816480 0.356341 0.815768 -0.176883
C53   C     C_R   0.267141 0.928321 0.460662 -0.148635
C54   C     C_R   0.733873 0.261175 0.542084 -0.147543
C55   C     C_R   0.211099 0.968555 0.500673 -0.124377
C56   C     C_R   0.790314 0.217507 0.503777 -0.123807
C57   C     C_R   0.146255 0.973433 0.437208 -0.126439
C58   C     C_R   0.855053 0.218525 0.567737 -0.125918
C59   C     C_R   0.136960 0.937824 0.333272 -0.140466
C60   C     C_R   0.863853 0.263747 0.670449 -0.141016
H19   H     H_    0.183596 0.793222 0.985179 0.113943
H20   H     H_    0.815482 0.444157 0.012379 0.113144
H21   H     H_    0.282326 0.729952 0.916415 0.129249
H22   H     H_    0.716147 0.515317 0.078211 0.130820
H23   H     H_    0.397397 0.718763 0.029264 0.118780
H24   H     H_    0.601230 0.515221 0.964511 0.118744
H25   H     H_    0.414486 0.773243 0.211547 0.094562
H26   H     H_    0.584913 0.441948 0.784281 0.094460
H27   H     H_    0.218042 0.995638 0.581427 0.128999
H28   H     H_    0.783755 0.183111 0.423962 0.130183
O11   O     O_R   0.913760 0.203480 0.916370 -0.535468
O12   O     O_R   0.086240 0.703480 0.083630 -0.533211
O13   O     O_R   0.047590 0.535230 0.888250 -0.539590
O14   O     O_R   0.952410 0.035230 0.111750 -0.541286
C61   C     C_R   0.063879 0.369489 0.862194 0.672007
C62   C     C_R   0.936194 0.867181 0.137781 0.672074
O15   O     O_R   0.912020 0.532880 0.904260 -0.536673
O16   O     O_R   0.087980 0.032880 0.095740 -0.539457
O17   O     O_R   0.949590 0.708460 0.099750 -0.536504
O18   O     O_R   0.050410 0.208460 0.900250 -0.538641
C63   C     C_R   0.885793 0.364447 0.883418 0.683597
C64   C     C_R   0.114194 0.865435 0.116672 0.683194
O19   O     O_3   0.012370 0.375360 0.064120 -0.376516
O20   O     O_3   0.987630 0.875360 0.935880 -0.376537
V3    V     V_3+5 0.997700 0.648160 0.988110 1.420313
V4    V     V_3+5 0.002300 0.148160 0.011890 1.412732
H29   H     H_    0.316426 0.924849 0.513411 0.115460
H30   H     H_    0.684642 0.259443 0.489083 0.114333
H31   H     H_    0.085488 0.942050 0.287198 0.094450
H32   H     H_    0.915205 0.263156 0.717112 0.094901

loop_
_geom_bond_atom_site_label_1
_geom_bond_atom_site_label_2
_ccdc_geom_bond_type
C36   C38   A    
C61   O18   A    
C33   C35   A    
C7    C27   A    
C9    C11   A    
O12   C64   A    
O1    C3    A    
C42   C46   A    
O2    C4    A    
C2    O7    A    
O14   C62   A    
O20   V3    S    
O3    V1    S    
C2    C45   S    
C21   C23   A    
O5    C3    A    
C5    H5    S    
C27   H7    S    
C6    H6    S    
C20   C22   A    
C46   C48   A    
O17   V3    S    
C56   C58   A    
C47   C53   A    
C28   H8    S    
C5    C21   A    
C39   C41   A    
C6    C22   A    
O12   V3    S    
H17   C57   S    
C14   C16   A    
O14   V4    S    
C10   C32   A    
C59   H31   S    
C35   C37   A    
C17   C31   A    
C32   C61   S    
C13   C15   A    
C12   C14   A    
C17   C25   A    
C7    C29   A    
C16   C18   A    
C8    C30   A    
C36   H22   S    
O19   V4    S    
O5    V1    S    
O6    V2    S    
C37   H23   S    
C23   C25   A    
C24   C26   A    
C44   C52   A    
C11   C13   A    
C43   C51   A    
C47   C49   A    
C49   C59   A    
C55   C57   A    
C9    C31   A    
C42   C44   A    
C49   C51   A    
C10   H10   S    
C33   C43   A    
C3    C8    S    
H18   C58   S    
C15   C19   A    
O16   C64   A    
C37   C39   A    
C34   C36   A    
O4    V2    S    
O13   V3    S    
C55   H27   S    
C51   C64   S    
O6    C4    A    
H1    C29   S    
O13   C61   A    
O1    V2    S    
C38   H24   S    
O2    V1    S    
C45   C47   A    
O15   V3    S    
H2    C30   S    
H3    C23   S    
O4    C2    A    
C53   C55   A    
C58   C60   A    
C57   C59   A    
C54   H30   S    
C18   C26   A    
C34   H20   S    
C19   C27   A    
O18   V4    S    
C18   C32   A    
C41   C43   A    
C16   C20   A    
O15   C63   A    
C5    C29   A    
C11   H13   S    
O3    C1    A    
C6    C30   A    
C9    H9    S    
C31   C62   S    
C25   H15   S    
O11   C63   A    
C4    C7    S    
C52   C63   S    
C53   H29   S    
C1    C46   S    
C10   C12   A    
O7    V1    S    
C1    O8    A    
C19   C21   A    
O8    V2    S    
C41   C45   A    
C56   H28   S    
O16   V4    S    
H4    C24   S    
C26   H16   S    
C12   H14   S    
C22   C24   A    
C35   H21   S    
C15   C17   A    
C50   C52   A    
C48   C50   A    
C50   C60   A    
C20   C28   A    
C8    C28   A    
C48   C54   A    
C38   C40   A    
O9    V2    S    
C33   H19   S    
O11   V4    S    
C34   C44   A    
O10   V1    S    
C54   C56   A    
C40   C42   A    
C13   H11   S    
C14   H12   S    
C40   H26   S    
C60   H32   S    
C62   O17   A    
C39   H25   S    
