data_mof_unit_47481.cif
_audit_creation_date              2012-12-11T15:57:41-0500
_audit_creation_method            fapswitch 2.2
_symmetry_space_group_name_H-M    P1
_symmetry_Int_Tables_number       1
_space_group_crystal_system       triclinic
_cell_length_a                    10.761023
_cell_length_b                    10.734132
_cell_length_c                    17.027441
_cell_angle_alpha                 99.058943
_cell_angle_beta                  99.457414
_cell_angle_gamma                 61.316555
_cell_volume                      1694.99703168

loop_
_atom_site_label
_atom_site_type_symbol
_atom_type_description
_atom_site_fract_x
_atom_site_fract_y
_atom_site_fract_z
_atom_type_partial_charge
C1    C     C_R   0.354525 0.777613 0.403012 0.539295
C2    C     C_2   0.841544 0.315683 0.160787 0.117954
C3    C     C_2   0.920637 0.210741 0.209243 -0.029824
C4    C     C_2   0.878467 0.216362 0.287092 0.107269
C5    C     C_2   0.336691 0.852336 0.334627 0.248972
C6    C     C_2   0.341815 0.817262 0.155609 0.129734
C7    C     C_2   0.437251 0.834978 0.212145 0.090121
C8    C     C_2   0.449514 0.800096 0.292581 -0.039655
C9    C     C_2   0.377447 0.353556 0.672578 0.277552
C10   C     C_2   0.340743 0.369209 0.844039 0.135067
C11   C     C_2   0.462775 0.301078 0.810265 -0.101140
C12   C     C_R   0.395797 0.366615 0.353319 0.575062
C13   C     C_2   0.473765 0.342281 0.735553 -0.090270
C14   C     C_1   0.820503 0.340139 0.708107 -0.019790
C15   C     C_1   0.847478 0.312764 0.776014 -0.025939
C16   C     C_1   0.338884 0.810893 0.708966 -0.013291
C17   C     C_1   0.312849 0.839250 0.776975 -0.004809
C18   C     C_R   0.895646 0.305993 0.086890 0.554196
C19   C     C_R   0.296714 0.267949 0.124065 0.558014
C20   C     C_R   0.293906 0.890368 0.083481 0.558976
C21   C     C_R   0.887204 0.296756 0.858282 0.551231
C22   C     C_R   0.309087 0.297715 0.897330 0.579031
C23   C     C_R   0.781160 0.375185 0.406843 0.547141
C24   C     C_R   0.278145 0.885685 0.856515 0.566542
C25   C     C_R   0.358445 0.769107 0.627172 0.545401
C26   C     C_R   0.406871 0.375083 0.597762 0.532311
C27   C     C_R   0.774418 0.379977 0.629271 0.542120
C28   C     C_1   0.351858 0.339981 0.272988 0.042618
C29   C     C_1   0.322618 0.310189 0.204765 0.042013
C30   C     C_2   0.873177 0.323748 0.341564 0.238324
Cr1   Cr    Cr6+3 0.608020 0.610770 0.522990 1.049265
Cr2   Cr    Cr6+3 0.289390 0.599570 0.488050 1.072890
Cr3   Cr    Cr6+3 0.602610 0.289690 0.489020 1.065343
Cr4   Cr    Cr6+3 0.053780 0.052210 0.965970 1.074968
Cr5   Cr    Cr6+3 0.060060 0.372530 0.992430 1.107344
Cr6   Cr    Cr6+3 0.372600 0.061970 0.991430 1.079474
H1    H     H_    0.022470 0.123413 0.193581 0.166596
H2    H     H_    0.568999 0.348797 0.729382 0.065616
H3    H     H_    0.554035 0.720445 0.315108 0.151739
H4    H     H_    0.548378 0.200829 0.830009 0.137987
O1    O     O_R   0.749250 0.499990 0.439200 -0.516257
O2    O     O_R   0.299400 0.468710 0.556310 -0.492256
O3    O     O_R   0.489240 0.256450 0.560730 -0.499144
O4    O     O_R   0.723350 0.306730 0.584410 -0.520682
O5    O     O_3   0.500010 0.500010 0.500020 -0.306618
O6    O     O_R   0.170650 0.915100 0.051290 -0.483861
O7    O     O_R   0.941960 0.184500 0.049060 -0.514630
O8    O     O_R   0.922640 0.402670 0.071640 -0.475945
O9    O     O_R   0.196880 0.368740 0.083740 -0.475009
O10   O     O_R   0.411120 0.181190 0.091480 -0.473509
O11   O     O_R   0.364220 0.944920 0.062310 -0.499354
O12   O     O_R   0.477870 0.725740 0.440280 -0.517797
O13   O     O_R   0.158740 0.906940 0.874970 -0.477186
O14   O     O_R   0.930920 0.176940 0.885610 -0.495958
O15   O     O_R   0.910730 0.394510 0.895320 -0.490001
O16   O     O_R   0.185840 0.361180 0.920280 -0.468636
O17   O     O_R   0.399210 0.173040 0.915160 -0.520213
O18   O     O_R   0.353170 0.937370 0.898860 -0.495186
O19   O     O_3   0.162150 0.162240 0.983280 -0.304357
O20   O     O_R   0.260770 0.742210 0.412610 -0.488677
O21   O     O_R   0.297990 0.466320 0.394220 -0.474938
O22   O     O_R   0.487720 0.253870 0.385870 -0.472426
O23   O     O_R   0.721940 0.304340 0.422320 -0.496254
O24   O     O_R   0.750770 0.502570 0.614050 -0.488314
O25   O     O_R   0.479280 0.728140 0.602370 -0.491536
O26   O     O_R   0.262290 0.744790 0.587460 -0.506847
I1    I     I_    0.181881 0.580769 0.819333 -0.256169
O27   O     O_3   0.264997 0.326814 0.676755 -0.676732
H5    H     H_    0.211867 0.332193 0.622911 0.343861
I2    I     I_    0.827989 0.053187 0.301324 -0.229818
I3    I     I_    0.630199 0.467133 0.176563 -0.336208
O28   O     O_3   0.940022 0.400156 0.327548 -0.688222
H6    H     H_    0.941394 0.465398 0.375375 0.352579
I4    I     I_    0.598932 0.883004 0.192149 -0.205654
I5    I     I_    0.226479 0.706858 0.172514 -0.223506
O29   O     O_3   0.207222 0.961883 0.308977 -0.702244
H7    H     H_    0.142086 0.987291 0.350399 0.342260

loop_
_geom_bond_atom_site_label_1
_geom_bond_atom_site_label_2
_ccdc_geom_bond_type
C9    C26   S    
C2    C18   S    
Cr3   O5    S    
Cr2   O5    S    
Cr1   O12   S    
Cr6   O19   S    
C18   O7    A    
C22   O17   A    
C4    I2    S    
C7    C8    S    
C10   I1    S    
C10   C22   S    
C12   C28   S    
C1    C5    S    
C28   C29   T    
Cr2   O21   S    
Cr3   O22   S    
C20   O11   A    
Cr6   O18   S    
C21   O14   A    
Cr5   O19   S    
C9    C13   D    
C27   O4    A    
C16   C17   T    
Cr5   O9    S    
Cr4   O6    S    
C8    H3    S    
C14   C27   S    
C23   O23   A    
Cr5   O8    S    
C26   O3    A    
C7    I4    S    
C17   C24   S    
Cr5   O15   S    
Cr3   O3    S    
C23   C30   S    
C6    I5    S    
C25   O25   A    
O29   H7    S    
Cr6   O17   S    
C27   O24   A    
C1    O20   A    
C21   O15   A    
O27   H5    S    
C22   O16   A    
C24   O13   A    
C12   O22   A    
C19   O9    A    
Cr3   O23   S    
C13   H2    S    
Cr6   O11   S    
Cr4   O14   S    
Cr4   O19   S    
Cr2   O20   S    
C2    I3    S    
C19   C29   S    
Cr6   O10   S    
C26   O2    A    
Cr2   O26   S    
C16   C25   S    
Cr1   O25   S    
Cr1   O1    S    
Cr5   O16   S    
Cr3   O4    S    
Cr1   O24   S    
C25   O26   A    
O28   H6    S    
C18   O8    A    
C5    C8    D    
C30   O28   S    
C6    C7    D    
C6    C20   S    
C23   O1    A    
C5    O29   S    
C2    C3    D    
C9    O27   S    
C12   O21   A    
C11   C13   S    
C19   O10   A    
C11   H4    S    
C1    O12   A    
C20   O6    A    
C10   C11   D    
C15   C21   S    
C3    H1    S    
Cr4   O13   S    
C24   O18   A    
Cr1   O5    S    
Cr2   O2    S    
C14   C15   T    
Cr4   O7    S    
C4    C30   D    
C3    C4    S    
