data_mof_unit_33257.cif
_audit_creation_date              2012-12-10T17:19:24-0500
_audit_creation_method            fapswitch 2.2
_symmetry_space_group_name_H-M    P1
_symmetry_Int_Tables_number       1
_space_group_crystal_system       triclinic
_cell_length_a                    15.031083
_cell_length_b                    10.852414
_cell_length_c                    9.643155
_cell_angle_alpha                 91.005251
_cell_angle_beta                  90.743491
_cell_angle_gamma                 94.490897
_cell_volume                      1567.7921685

loop_
_atom_site_label
_atom_site_type_symbol
_atom_type_description
_atom_site_fract_x
_atom_site_fract_y
_atom_site_fract_z
_atom_type_partial_charge
C1    C     C_R   0.507042 0.263867 0.499406 0.805081
C2    C     C_R   0.912724 0.588646 0.570715 0.041654
C3    C     C_R   0.943275 0.314038 0.341981 -0.156277
C4    C     C_R   0.036065 0.315666 0.338879 0.348853
C5    C     C_R   0.088800 0.406572 0.415370 0.031267
C6    C     C_R   0.047124 0.496613 0.494055 0.031895
C7    C     C_R   0.099292 0.587642 0.572299 0.066279
C8    C     C_R   0.058530 0.679624 0.645334 -0.209327
C9    C     C_R   0.966072 0.682120 0.643292 0.378647
C10   C     C_R   0.182178 0.410055 0.415856 -0.158111
C11   C     C_R   0.232825 0.498279 0.496886 -0.074314
C12   C     C_R   0.329168 0.498949 0.499136 0.786560
C13   C     C_R   0.191856 0.586257 0.575309 -0.204050
C14   C     C_R   0.586031 0.135723 0.735166 -0.121770
C15   C     C_R   0.591810 0.081214 0.864162 -0.118364
C16   C     C_R   0.551795 0.963270 0.883182 -0.147792
C17   C     C_R   0.513648 0.895511 0.770264 -0.116691
C18   C     C_R   0.516596 0.944073 0.634259 0.092198
C19   C     C_R   0.540699 0.071583 0.622534 0.091517
C20   C     C_R   0.517111 0.131180 0.499524 -0.081062
C21   C     C_R   0.491432 0.061333 0.380582 -0.154232
C22   C     C_R   0.485033 0.933824 0.384275 -0.180358
C23   C     C_R   0.497252 0.737778 0.502442 0.841111
C24   C     C_R   0.496556 0.873069 0.509558 -0.125966
C25   C     C_R   0.646187 0.627319 0.146174 0.480699
C26   C     C_R   0.727638 0.641433 0.078053 -0.288233
C27   C     C_R   0.727154 0.641873 0.936128 -0.310311
C28   C     C_R   0.645550 0.627036 0.864710 0.452380
C29   C     C_R   0.570710 0.562389 0.928057 0.070289
C30   C     C_R   0.570658 0.562932 0.077263 0.024844
C31   C     C_R   0.434393 0.436657 0.071676 0.501328
C32   C     C_R   0.434543 0.437993 0.923206 -0.164233
C33   C     C_R   0.670855 0.497913 0.500354 0.888971
C34   C     C_R   0.819800 0.585996 0.571364 -0.254083
C35   C     C_R   0.767433 0.493550 0.499586 -0.160639
C36   C     C_R   0.807111 0.401598 0.422732 0.327566
C37   C     C_R   0.900837 0.403017 0.419261 -0.002860
C38   C     C_R   0.953471 0.495945 0.494794 -0.038212
Cu1   Cu    Cu3+1 0.499990 0.499990 0.640660 0.984619
Cu2   Cu    Cu3+1 0.500010 0.500010 0.359340 1.061865
H1    H     H_    0.787316 0.657129 0.625423 0.196719
H2    H     H_    0.618107 0.227724 0.724349 0.166255
H3    H     H_    0.624615 0.132177 0.950468 0.171250
H4    H     H_    0.551147 0.923388 0.985373 0.151083
H5    H     H_    0.479391 0.808058 0.794846 0.179661
H6    H     H_    0.468437 0.882673 0.288707 0.172691
H7    H     H_    0.788149 0.676171 0.132730 0.185576
H8    H     H_    0.787111 0.676599 0.884606 0.222097
H9    H     H_    0.381417 0.386900 0.864803 0.152293
H10   H     H_    0.905044 0.242452 0.282404 0.235083
H11   H     H_    0.216401 0.343156 0.356336 0.209015
H12   H     H_    0.232393 0.655091 0.636170 0.139917
H13   H     H_    0.098775 0.750856 0.702998 0.185858
H14   H     H_    0.475223 0.105196 0.284399 0.180216
N1    N     N_R   0.500860 0.501210 0.147910 -0.187746
N2    N     N_R   0.500890 0.501290 0.852040 -0.196263
O1    O     O_R   0.499990 0.319640 0.618810 -0.603212
O2    O     O_R   0.500000 0.319660 0.381240 -0.534829
O3    O     O_R   0.370250 0.499960 0.618800 -0.591943
O4    O     O_R   0.370260 0.499980 0.381230 -0.529642
O5    O     O_R   0.500000 0.680340 0.618760 -0.547701
O6    O     O_R   0.500010 0.680360 0.381190 -0.528581
O7    O     O_R   0.629740 0.500020 0.618770 -0.554008
O8    O     O_R   0.629750 0.500040 0.381200 -0.521935
O9    O     O_3   0.368214 0.368925 0.141207 -0.698488
H15   H     H_    0.325496 0.327651 0.072682 0.312714
O10   O     O_3   0.637337 0.697368 0.264319 -0.692574
H16   H     H_    0.695782 0.738817 0.294534 0.315190
O11   O     O_3   0.635754 0.695505 0.748386 -0.697963
H17   H     H_    0.686242 0.759581 0.741021 0.324094
Cl1   Cl    Cl    0.738580 0.283074 0.335861 -0.646112
Cl2   Cl    Cl    0.082945 0.200661 0.238039 -0.583065
Cl3   Cl    Cl    0.920941 0.806144 0.731270 -0.626391

loop_
_geom_bond_atom_site_label_1
_geom_bond_atom_site_label_2
_ccdc_geom_bond_type
C27   H8    S    
Cu2   O4    S    
C35   C36   A    
C25   O10   S    
C7    C8    A    
C26   C27   A    
C37   C38   A    
C18   C24   A    
C28   C29   A    
C17   H5    S    
C18   C19   A    
C5    C6    A    
C15   C16   A    
Cu1   O1    S    
Cu2   O6    S    
C34   C35   A    
C12   O3    A    
C23   O6    A    
C28   O11   S    
C16   C17   A    
C23   C24   S    
C6    C38   A    
C16   H4    S    
C36   Cl1   S    
C14   H2    S    
C2    C34   A    
C21   C22   A    
C34   H1    S    
C9    Cl3   S    
C10   H11   S    
C3    H10   S    
Cu1   O5    S    
Cu2   O2    S    
O10   H16   S    
Cu1   Cu2   S    
C8    C9    A    
C25   C26   A    
C29   C30   A    
C1    O1    A    
C13   H12   S    
C2    C38   A    
Cu1   N2    S    
C23   O5    A    
C33   O7    A    
Cu2   N1    S    
Cu1   O3    S    
C17   C18   A    
C26   H7    S    
C22   H6    S    
C22   C24   A    
C3    C4    A    
C4    Cl2   S    
C25   C30   A    
C31   O9    S    
C36   C37   A    
C1    C20   S    
C14   C19   A    
C31   C32   A    
C4    C5    A    
C8    H13   S    
C11   C12   S    
C6    C7    A    
C29   N2    A    
Cu1   O7    S    
C30   N1    A    
Cu2   O8    S    
C19   C20   A    
C15   H3    S    
C5    C10   A    
C1    O2    A    
C11   C13   A    
C21   H14   S    
C33   O8    A    
C33   C35   S    
O11   H17   S    
C32   H9    S    
C10   C11   A    
C12   O4    A    
C7    C13   A    
C20   C21   A    
C3    C37   A    
O9    H15   S    
C27   C28   A    
C14   C15   A    
C31   N1    A    
C2    C9    A    
C32   N2    A    
