data_mof_unit_9509.cif
_audit_creation_date              2012-12-11T16:57:23-0500
_audit_creation_method            fapswitch 2.2
_symmetry_space_group_name_H-M    P1
_symmetry_Int_Tables_number       1
_space_group_crystal_system       monoclinic
_cell_length_a                    14.646211
_cell_length_b                    16.12399
_cell_length_c                    6.962788
_cell_angle_alpha                 90.0
_cell_angle_beta                  99.277698
_cell_angle_gamma                 90.0
_cell_volume                      1622.78987184

loop_
_atom_site_label
_atom_site_type_symbol
_atom_type_description
_atom_site_fract_x
_atom_site_fract_y
_atom_site_fract_z
_atom_type_partial_charge
O1    O     O_R   0.584990 0.413650 0.534420 -0.537857
O2    O     O_R   0.584990 0.586350 0.534420 -0.537857
O3    O     O_R   0.596190 0.585230 0.208380 -0.551480
O4    O     O_R   0.596190 0.414770 0.208380 -0.551480
O5    O     O_R   0.415010 0.586420 0.976930 -0.540985
O6    O     O_R   0.415010 0.413580 0.976930 -0.540985
C1    C     C_R   0.616699 0.615907 0.384356 0.688574
C2    C     C_R   0.616699 0.384093 0.384356 0.688575
O7    O     O_3   0.440560 0.500000 0.319140 -0.342559
V1    V     V_3+5 0.511030 0.500000 0.068070 1.411316
O8    O     O_R   0.403810 0.414840 0.643540 -0.514836
O9    O     O_R   0.403810 0.585160 0.643540 -0.514836
C3    C     C_R   0.382313 0.385393 0.806503 0.750005
C4    C     C_R   0.382313 0.614607 0.806503 0.750005
V2    V     V_3+5 0.488970 0.500000 0.560620 1.492295
O10   O     O_3   0.559440 0.500000 0.859420 -0.392159
H1    H     H_    0.182690 0.798530 0.814532 0.148403
H2    H     H_    0.182690 0.201469 0.814532 0.148403
C5    C     C_2   0.313534 0.682889 0.802810 -0.386036
C6    C     C_2   0.313534 0.317111 0.802810 -0.386035
C7    C     C_2   0.303677 0.728573 0.963757 0.027461
C8    C     C_2   0.303677 0.271427 0.963757 0.027461
H3    H     H_    0.236419 0.811402 0.259879 0.178957
H4    H     H_    0.236419 0.188598 0.259879 0.178957
C9    C     C_2   0.199755 0.824018 0.115286 -0.322557
C10   C     C_2   0.199755 0.175982 0.115286 -0.322557
C11   C     C_2   0.223397 0.786239 0.956500 -0.162488
C12   C     C_2   0.223397 0.213761 0.956500 -0.162489
H5    H     H_    0.265444 0.692017 0.668433 0.158252
H6    H     H_    0.265443 0.307983 0.668433 0.158251
C13   C     C_R   0.742701 0.696542 0.596992 0.073631
C14   C     C_R   0.742701 0.303458 0.596992 0.073632
C15   C     C_R   0.684684 0.685759 0.418541 -0.102331
C16   C     C_R   0.684684 0.314240 0.418541 -0.102331
C17   C     C_R   0.695392 0.742596 0.271639 -0.203543
C18   C     C_R   0.695392 0.257404 0.271639 -0.203542
H7    H     H_    0.648061 0.739138 0.137659 0.143446
H8    H     H_    0.648061 0.260862 0.137659 0.143446
C19   C     C_R   0.761728 0.807167 0.302777 -0.201638
C20   C     C_R   0.761728 0.192833 0.302777 -0.201637
H9    H     H_    0.763480 0.852860 0.189744 0.127435
H10   H     H_    0.763481 0.147140 0.189744 0.127434
C21   C     C_R   0.823140 0.814142 0.480550 -0.137595
C22   C     C_R   0.823140 0.185858 0.480550 -0.137596
C23   C     C_R   0.816779 0.753138 0.621565 0.083048
C24   C     C_R   0.816779 0.246862 0.621565 0.083046
C25   C     C_3   0.810076 0.767271 0.830040 -0.100636
C26   C     C_3   0.810076 0.232729 0.830040 -0.100636
C27   C     C_3   0.717881 0.721229 0.790689 -0.043884
C28   C     C_3   0.717881 0.278771 0.790689 -0.043883
H11   H     H_    0.803543 0.833775 0.867573 0.128962
H12   H     H_    0.803543 0.166225 0.867572 0.128962
H13   H     H_    0.712074 0.668139 0.889746 0.149866
H14   H     H_    0.712074 0.331861 0.889746 0.149866
O11   O     O_R   0.921430 0.915960 0.371040 -0.536402
O12   O     O_R   0.921430 0.084040 0.371040 -0.536402
O13   O     O_R   0.910450 0.087500 0.697310 -0.550404
O14   O     O_R   0.910450 0.912500 0.697310 -0.550403
O15   O     O_R   0.091710 0.087460 0.928430 -0.537649
O16   O     O_R   0.091710 0.912540 0.928430 -0.537649
C29   C     C_R   0.889091 0.115007 0.519100 0.696252
C30   C     C_R   0.889091 0.884992 0.519100 0.696252
O17   O     O_3   0.065970 1.000000 0.586140 -0.366150
V3    V     V_3+5 0.995640 1.000000 0.837400 1.383989
O18   O     O_R   0.103020 0.915700 0.261710 -0.540414
O19   O     O_R   0.103020 0.084300 0.261710 -0.540414
C31   C     C_R   0.125601 0.886642 0.100753 0.736424
C32   C     C_R   0.125601 0.113358 0.100753 0.736424
V4    V     V_3+5 0.017940 1.000000 0.344880 1.392337
O20   O     O_3   0.947330 1.000000 0.046180 -0.380035
C33   C     C_2   0.375995 0.726788 0.140851 0.436559
H15   H     H_    0.448154 0.735146 0.126775 0.005021
O21   O     O_2   0.356327 0.711331 0.300784 -0.550301
C34   C     C_2   0.375996 0.273211 0.140850 0.436559
H16   H     H_    0.448154 0.264854 0.126774 0.005021
O22   O     O_2   0.356327 0.288668 0.300784 -0.550301
C35   C     C_3   0.889120 0.724095 0.969928 -0.330128
C36   C     C_3   0.913385 0.635709 0.913726 -0.749927
H17   H     H_    0.852749 0.593898 0.906352 0.215874
H18   H     H_    0.938630 0.635411 0.771701 0.226195
H19   H     H_    0.969433 0.611001 0.025583 0.218247
H20   H     H_    0.952327 0.762965 0.978686 0.181845
H21   H     H_    0.870884 0.721616 0.117834 0.197575
C37   C     C_3   0.889120 0.275904 0.969928 -0.330127
C38   C     C_3   0.913384 0.364292 0.913728 -0.749924
H22   H     H_    0.938627 0.364591 0.771700 0.226195
H23   H     H_    0.852747 0.406102 0.906361 0.215873
H24   H     H_    0.969434 0.388999 0.025583 0.218247
H25   H     H_    0.870886 0.278382 0.117834 0.197575
H26   H     H_    0.952327 0.237035 0.978682 0.181844
C39   C     C_3   0.636826 0.785115 0.768965 -0.396575
C40   C     C_3   0.542274 0.744777 0.753956 -0.695317
H27   H     H_    0.545355 0.691929 0.856446 0.210771
H28   H     H_    0.491468 0.790782 0.791147 0.193905
H29   H     H_    0.517898 0.723640 0.603109 0.248900
H30   H     H_    0.645829 0.827707 0.895742 0.167372
H31   H     H_    0.637324 0.825664 0.639789 0.200483
C41   C     C_3   0.636826 0.214885 0.768965 -0.396575
C42   C     C_3   0.542274 0.255223 0.753956 -0.695315
H32   H     H_    0.491468 0.209219 0.791148 0.193905
H33   H     H_    0.545355 0.308071 0.856445 0.210772
H34   H     H_    0.517898 0.276359 0.603109 0.248900
H35   H     H_    0.637324 0.174336 0.639789 0.200483
H36   H     H_    0.645829 0.172293 0.895742 0.167372

loop_
_geom_bond_atom_site_label_1
_geom_bond_atom_site_label_2
_ccdc_geom_bond_type
O14   C30   A    
O19   C32   A    
C27   H13   S    
O1    C2    A    
O2    C1    A    
C9    C31   S    
O4    C2    A    
C13   C27   S    
C25   C27   S    
C6    H6    S    
C35   C36   S    
O15   V3    S    
C28   H14   S    
C34   O22   D    
C7    C33   S    
C5    C7    D    
H4    C10   S    
O3    C1    A    
C36   H18   S    
O19   V4    S    
C35   H21   S    
C41   H35   S    
O11   C30   A    
C39   H30   S    
O8    V2    S    
O17   V4    S    
O16   C31   A    
O18   C31   A    
C13   C15   A    
O1    V2    S    
V3    O20   S    
O7    V1    S    
C20   H10   S    
C7    C11   S    
C8    C12   S    
C1    C15   S    
C37   H26   S    
C27   C39   S    
C22   C24   A    
C23   C25   S    
O14   V3    S    
C24   C26   S    
C28   C41   S    
C34   H16   S    
C38   H23   S    
H1    C11   S    
C18   C20   A    
H2    C12   S    
C37   C38   S    
C19   H9    S    
C39   C40   S    
C33   O21   D    
C36   H17   S    
C25   H11   S    
C38   H22   S    
C40   H29   S    
C26   C37   S    
C14   C16   A    
C17   C19   A    
O15   C32   A    
C42   H32   S    
O9    V2    S    
C26   H12   S    
C40   H28   S    
C2    C16   S    
C39   H31   S    
O2    V2    S    
C21   C23   A    
C14   C28   S    
O5    C4    A    
O11   V4    S    
C42   H33   S    
C6    C8    D    
C41   C42   S    
C37   H25   S    
C8    C34   S    
O4    V1    S    
C5    H5    S    
O13   V3    S    
C38   H24   S    
C3    C6    S    
C17   H7    S    
C14   C24   A    
C4    C5    S    
O9    C4    A    
O6    V1    S    
C19   C21   A    
O13   C29   A    
C22   C29   S    
C9    C11   D    
C10   C12   D    
O16   V3    S    
C10   C32   S    
C18   H8    S    
O7    V2    S    
O5    V1    S    
O3    V1    S    
V1    O10   S    
O6    C3    A    
O8    C3    A    
C36   H19   S    
C35   H20   S    
O18   V4    S    
C26   C28   S    
C40   H27   S    
C15   C17   A    
C16   C18   A    
H3    C9    S    
V4    O20   S    
O17   V3    S    
C20   C22   A    
C42   H34   S    
C33   H15   S    
O12   V4    S    
C13   C23   A    
C25   C35   S    
O12   C29   A    
C41   H36   S    
V2    O10   S    
C21   C30   S    
