data_mof_unit_46087.cif
_audit_creation_date              2012-12-10T17:00:44-0500
_audit_creation_method            fapswitch 2.2
_symmetry_space_group_name_H-M    P1
_symmetry_Int_Tables_number       1
_space_group_crystal_system       triclinic
_cell_length_a                    27.684872
_cell_length_b                    10.892233
_cell_length_c                    9.693971
_cell_angle_alpha                 89.964824
_cell_angle_beta                  90.677468
_cell_angle_gamma                 90.821221
_cell_volume                      2922.71282474

loop_
_atom_site_label
_atom_site_type_symbol
_atom_type_description
_atom_site_fract_x
_atom_site_fract_y
_atom_site_fract_z
_atom_type_partial_charge
C1    C     C_R   0.500497 0.265474 0.500072 0.872343
C2    C     C_R   0.277452 0.426705 0.585900 0.403737
C3    C     C_R   0.253797 0.528304 0.522864 -0.006813
C4    C     C_R   0.103884 0.568714 0.569510 -0.117389
C5    C     C_R   0.129546 0.494699 0.662975 -0.224950
C6    C     C_R   0.104440 0.408617 0.744410 0.345392
C7    C     C_R   0.129564 0.656991 0.492596 -0.012267
C8    C     C_R   0.354612 0.498637 0.498561 -0.279793
C9    C     C_R   0.645747 0.507470 0.503208 -0.033377
C10   C     C_R   0.975913 0.476202 0.642085 0.065822
C11   C     C_R   0.976839 0.626935 0.452220 0.037756
C12   C     C_R   0.407545 0.498946 0.499408 0.866590
C13   C     C_R   0.951080 0.547132 0.541673 0.061653
C14   C     C_R   0.948195 0.413455 0.742128 -0.175236
C15   C     C_R   0.898160 0.406385 0.732205 -0.186768
C16   C     C_R   0.873625 0.466979 0.626114 -0.014486
C17   C     C_R   0.899842 0.539854 0.532456 -0.049937
C18   C     C_R   0.874713 0.606388 0.430619 -0.016797
C19   C     C_R   0.824002 0.598438 0.424104 0.533247
C20   C     C_R   0.823110 0.459479 0.614300 0.537695
C21   C     C_R   0.720657 0.555233 0.625451 -0.099662
C22   C     C_R   0.670404 0.547498 0.622688 -0.219070
C23   C     C_R   0.498304 0.734743 0.499665 0.865676
C24   C     C_R   0.672281 0.475141 0.386367 -0.218299
C25   C     C_R   0.722721 0.480811 0.390091 -0.099823
C26   C     C_R   0.747222 0.520891 0.509761 0.342341
C27   C     C_R   0.027331 0.474941 0.643138 -0.118720
C28   C     C_R   0.052765 0.561464 0.560759 0.015839
C29   C     C_R   0.027662 0.640635 0.468901 0.083590
C30   C     C_R   0.054601 0.388986 0.721353 0.316859
C31   C     C_R   0.104392 0.740705 0.410852 -0.168160
C32   C     C_R   0.950659 0.690465 0.348991 -0.220738
C33   C     C_R   0.900613 0.680141 0.338541 -0.143871
C34   C     C_R   0.592606 0.501503 0.500770 0.775175
C35   C     C_R   0.054395 0.732256 0.398200 -0.219375
C36   C     C_2   0.487828 0.934074 0.384823 0.481209
C37   C     C_2   0.494918 0.867239 0.500350 -0.397787
C38   C     C_2   0.485407 0.069016 0.393274 -0.282085
C39   C     C_2   0.502697 0.133640 0.500776 -0.399319
C40   C     C_2   0.468177 0.440070 0.921590 -0.050367
C41   C     C_2   0.472106 0.425783 0.078765 0.543475
C42   C     C_R   0.180326 0.506124 0.667431 0.661551
C43   C     C_R   0.180266 0.659213 0.499969 0.587973
C44   C     C_R   0.279780 0.584928 0.412479 0.454204
C45   C     C_R   0.329930 0.573657 0.405803 -0.369417
C46   C     C_R   0.328060 0.419581 0.584598 0.322565
Cu1   Cu    Cu3+1 0.500010 0.500020 0.638630 0.979011
Cu2   Cu    Cu3+1 0.499990 0.499980 0.361370 0.993707
H1    H     H_    0.123369 0.811396 0.353352 0.174138
H2    H     H_    0.967970 0.747029 0.272307 0.139555
H3    H     H_    0.654100 0.444011 0.292947 0.164739
H4    H     H_    0.882259 0.730938 0.257889 0.185710
H5    H     H_    0.742772 0.453376 0.300254 0.154793
H6    H     H_    0.037566 0.800755 0.334212 0.141557
H7    H     H_    0.497570 0.908831 0.601430 0.113932
H8    H     H_    0.469433 0.116662 0.306017 0.212706
H9    H     H_    0.519387 0.092184 0.590484 0.160973
H10   H     H_    0.437360 0.399730 0.867823 0.117922
H11   H     H_    0.509664 0.580508 0.109553 0.184124
H12   H     H_    0.650868 0.574260 0.713561 0.158634
H13   H     H_    0.739041 0.587625 0.717994 0.152699
H14   H     H_    0.878706 0.354953 0.810049 0.191115
H15   H     H_    0.964101 0.373087 0.833067 0.201472
H16   H     H_    0.349594 0.624810 0.328070 0.210266
N1    N     N_R   0.204371 0.563729 0.561520 -0.444690
N2    N     N_R   0.799210 0.525514 0.515110 -0.465369
N3    N     N_2   0.499480 0.498660 0.846910 -0.018531
N4    N     N_2   0.499460 0.498630 0.153040 -0.281390
O1    O     O_R   0.500010 0.321960 0.617040 -0.576501
O2    O     O_2   0.798071 0.386053 0.700919 -0.541385
O3    O     O_2   0.204254 0.760251 0.456714 -0.499150
O4    O     O_2   0.799676 0.664650 0.329049 -0.545976
O5    O     O_R   0.499990 0.321920 0.382900 -0.520849
O6    O     O_R   0.430270 0.500040 0.617060 -0.566456
O7    O     O_R   0.430260 0.500000 0.382910 -0.563318
O8    O     O_R   0.500010 0.678080 0.617100 -0.623226
O9    O     O_R   0.499990 0.678040 0.382960 -0.539700
O10   O     O_R   0.569740 0.500000 0.617090 -0.568015
O11   O     O_R   0.569730 0.499960 0.382940 -0.584942
O12   O     O_2   0.204702 0.467802 0.780132 -0.468694
O13   O     O_3   0.350747 0.338106 0.672896 -0.583576
C47   C     C_3   0.363942 0.231313 0.600442 0.072603
H17   H     H_    0.400742 0.244312 0.558226 0.141471
H18   H     H_    0.338890 0.208211 0.513207 0.110730
C48   C     C_3   0.364130 0.123375 0.701226 -0.324399
H19   H     H_    0.391917 0.140444 0.782782 0.207038
H20   H     H_    0.328272 0.115483 0.751144 0.241485
C49   C     C_3   0.374788 0.002693 0.628813 -0.903824
H21   H     H_    0.346653 0.981990 0.549213 0.268614
H22   H     H_    0.375163 0.926872 0.705416 0.261426
H23   H     H_    0.410587 0.008130 0.579357 0.265387
O14   O     O_3   0.257559 0.647098 0.305812 -0.515711
C50   C     C_3   0.235860 0.561199 0.214616 0.055177
H24   H     H_    0.208620 0.502331 0.267951 0.121632
H25   H     H_    0.263712 0.501892 0.167632 0.144891
C51   C     C_3   0.210185 0.630660 0.099891 -0.709669
H26   H     H_    0.236348 0.690459 0.044413 0.256016
H27   H     H_    0.193645 0.564952 0.025577 0.227234
H28   H     H_    0.181334 0.688182 0.143745 0.238429
O15   O     O_3   0.475501 0.875339 0.261567 -0.589386
C52   C     C_3   0.503314 0.919612 0.149796 0.057346
H29   H     H_    0.523804 0.841087 0.109016 0.154728
H30   H     H_    0.530680 0.992009 0.177491 0.140722
C53   C     C_3   0.469574 0.966665 0.035849 -0.342946
H31   H     H_    0.444415 0.891499 0.002942 0.226207
H32   H     H_    0.447800 0.043281 0.076149 0.227905
C54   C     C_3   0.497727 0.011952 0.910852 -0.923674
H33   H     H_    0.522685 0.088401 0.940762 0.274005
H34   H     H_    0.472197 0.045873 0.830847 0.259051
H35   H     H_    0.518756 0.935985 0.866040 0.245318
O16   O     O_3   0.251694 0.327228 0.637267 -0.533623
C55   C     C_3   0.240877 0.242421 0.529737 0.066288
H36   H     H_    0.253733 0.150982 0.563827 0.180539
H37   H     H_    0.258939 0.263284 0.429590 0.077047
C56   C     C_3   0.186294 0.234092 0.504870 -0.341254
H38   H     H_    0.167907 0.218802 0.604684 0.261601
H39   H     H_    0.173533 0.321572 0.459254 0.193570
C57   C     C_3   0.172828 0.128957 0.407118 -0.921146
H40   H     H_    0.191812 0.140172 0.307517 0.263858
H41   H     H_    0.133276 0.128726 0.386848 0.246301
H42   H     H_    0.182679 0.039489 0.453926 0.289482
O17   O     O_3   0.543596 0.513734 0.905960 -0.523361
C58   C     C_3   0.558047 0.637727 0.888458 0.161108
H43   H     H_    0.528444 0.701344 0.915336 0.101000
H44   H     H_    0.568674 0.656380 0.781067 0.188354
C59   C     C_3   0.601828 0.664694 0.982127 -0.420789
H45   H     H_    0.590935 0.659737 0.091963 0.224654
H46   H     H_    0.629805 0.594289 0.965044 0.241245
C60   C     C_3   0.623818 0.791345 0.953461 -0.920523
H47   H     H_    0.636525 0.796911 0.845332 0.256236
H48   H     H_    0.655169 0.807779 0.023854 0.278870
H49   H     H_    0.596913 0.864043 0.970958 0.251883
O18   O     O_3   0.447585 0.331757 0.147220 -0.561765
C61   C     C_3   0.400320 0.312986 0.094046 0.039927
H50   H     H_    0.401377 0.253232 0.001344 0.146620
H51   H     H_    0.382385 0.401328 0.068291 0.145028
C62   C     C_3   0.369719 0.247872 0.201756 -0.801516
H52   H     H_    0.367718 0.305286 0.295799 0.235516
H53   H     H_    0.332553 0.232119 0.160524 0.208898
H54   H     H_    0.385605 0.157971 0.229132 0.238394
O19   O     O_3   0.129587 0.330702 0.831563 -0.541175
C63   C     C_3   0.117555 0.356976 0.969694 0.145673
H55   H     H_    0.080885 0.320598 0.993653 0.167615
H56   H     H_    0.118762 0.457574 0.991007 0.116213
C64   C     C_3   0.153548 0.295404 0.066148 -0.794171
H57   H     H_    0.190798 0.328341 0.043974 0.269386
H58   H     H_    0.144992 0.317836 0.174819 0.189785
H59   H     H_    0.151630 0.194241 0.052339 0.251258
O20   O     O_3   0.033563 0.282067 0.771556 -0.637911
C65   C     C_3   0.044431 0.181529 0.685092 0.102901
H60   H     H_    0.047051 0.098773 0.751672 0.172392
H61   H     H_    0.079838 0.190975 0.632050 0.139550
C66   C     C_3   0.003922 0.160240 0.578405 -0.359399
H62   H     H_    0.968699 0.152340 0.631806 0.240142
H63   H     H_    0.002460 0.239599 0.506471 0.219289
C67   C     C_3   0.012009 0.043371 0.495418 -0.915695
H64   H     H_    0.046808 0.049638 0.439805 0.251032
H65   H     H_    0.982294 0.030844 0.418538 0.261568
H66   H     H_    0.012422 0.962047 0.564666 0.265824

loop_
_geom_bond_atom_site_label_1
_geom_bond_atom_site_label_2
_ccdc_geom_bond_type
C10   C27   A    
C21   C26   A    
C42   O12   S    
C50   H24   S    
C12   O6    A    
C53   H31   S    
O16   C55   S    
C63   C64   S    
C23   O8    A    
C5    C42   A    
C61   C62   S    
C53   H32   S    
O13   C47   S    
C58   H43   S    
C48   H19   S    
C2    C46   A    
C33   H4    S    
C62   H53   S    
C59   H45   S    
Cu2   O11   S    
C20   N2    A    
C28   C29   A    
C25   H5    S    
Cu1   O8    S    
C22   H12   S    
C5    C6    A    
C34   O11   A    
C9    C22   A    
C58   H44   S    
C15   C16   A    
C39   H9    S    
C51   H28   S    
C19   N2    A    
C18   C19   A    
C57   H40   S    
Cu1   O1    S    
C64   H58   S    
C8    C45   A    
C16   C17   A    
C56   H39   S    
C65   C66   S    
C51   H27   S    
C42   N1    A    
C59   H46   S    
C54   H33   S    
C7    C43   A    
C8    C12   S    
C66   H63   S    
C21   H13   S    
C44   O14   S    
C43   N1    A    
C60   H49   S    
C24   H3    S    
C50   H25   S    
C21   C22   A    
C27   C30   A    
C54   H34   S    
Cu2   O7    S    
C20   O2    S    
C19   O4    S    
C3    N1    S    
C31   H1    S    
C4    C7    A    
Cu1   N3    S    
C55   H36   S    
C4    C28   A    
C64   H57   S    
C41   N4    D    
C57   H41   S    
C48   H20   S    
C2    O16   S    
C62   H54   S    
C3    C44   A    
C40   H10   S    
C26   N2    S    
C52   H29   S    
C7    C31   A    
C24   C25   A    
C10   C14   A    
C30   O20   S    
C61   H51   S    
C59   C60   S    
C25   C26   A    
C23   C37   S    
C40   N3    D    
C1    O1    A    
C58   C59   S    
C66   C67   S    
C57   H42   S    
Cu2   O9    S    
H11   N4    S    
C46   O13   S    
Cu1   Cu2   S    
C49   H23   S    
C16   C20   A    
C56   C57   S    
C51   H26   S    
C17   C18   A    
C36   O15   S    
C23   O9    A    
C6    O19   S    
C32   H2    S    
C55   H37   S    
C40   C41   S    
C6    C30   A    
C49   H22   S    
C11   C32   A    
C52   C53   S    
C47   H18   S    
O18   C61   S    
C54   H35   S    
C65   H61   S    
N3    O17   S    
C64   H59   S    
C44   C45   A    
C60   H47   S    
C52   H30   S    
C48   C49   S    
C67   H64   S    
C43   O3    S    
C65   H60   S    
Cu2   O5    S    
C67   H66   S    
Cu1   O6    S    
C4    C5    A    
Cu2   N4    S    
C10   C13   A    
C41   O18   S    
C9    C24   A    
C61   H50   S    
C50   C51   S    
C47   C48   S    
C62   H52   S    
C29   C35   A    
C45   H16   S    
C13   C17   A    
C1    O5    A    
C32   C33   A    
C36   C38   S    
C2    C3    A    
O17   C58   S    
O19   C63   S    
C34   O10   A    
C11   C13   A    
C38   C39   D    
C14   H15   S    
C67   H65   S    
O14   C50   S    
C15   H14   S    
C9    C34   S    
C31   C35   A    
C55   C56   S    
C18   C33   A    
C8    C46   A    
C1    C39   S    
C37   H7    S    
C38   H8    S    
C49   H21   S    
C11   C29   A    
C36   C37   D    
C47   H17   S    
C12   O7    A    
C27   C28   A    
C63   H55   S    
C14   C15   A    
O15   C52   S    
Cu1   O10   S    
C60   H48   S    
C66   H62   S    
O20   C65   S    
C53   C54   S    
C63   H56   S    
C56   H38   S    
C35   H6    S    
