data_mof_unit_27144.cif
_audit_creation_date              2013-03-05T16:09:24-0500
_audit_creation_method            fapswitch 2.2
_symmetry_space_group_name_H-M    P1
_symmetry_Int_Tables_number       1
_space_group_crystal_system       triclinic
_cell_length_a                    10.571488
_cell_length_b                    9.93398
_cell_length_c                    10.737215
_cell_angle_alpha                 90.081096
_cell_angle_beta                  91.139286
_cell_angle_gamma                 90.334306
_cell_volume                      1127.34615341

loop_
_atom_site_label
_atom_site_type_symbol
_atom_site_description
_atom_site_fract_x
_atom_site_fract_y
_atom_site_fract_z
_atom_type_partial_charge
O1    O     O_R   0.316770 0.614620 0.499990 -0.618422
O2    O     O_R   0.683230 0.614620 0.500010 -0.621310
O3    O     O_R   0.316800 0.385290 0.500000 -0.615253
O4    O     O_R   0.683200 0.385290 0.500000 -0.613818
C1    C     C_R   0.260517 0.499898 0.500641 0.856515
C2    C     C_R   0.739481 0.500449 0.500435 0.859283
O5    O     O_R   0.500000 0.614630 0.319080 -0.619517
O6    O     O_R   0.500000 0.614630 0.680920 -0.622992
O7    O     O_R   0.500030 0.385300 0.319080 -0.617286
O8    O     O_R   0.499970 0.385300 0.680920 -0.612727
C3    C     C_R   0.498421 0.499980 0.262784 0.924114
C4    C     C_R   0.502497 0.500194 0.737252 0.923704
Zn1   Zn    Zn3+2 0.500000 0.653120 0.500000 0.942841
Zn2   Zn    Zn3+2 0.500000 0.346880 0.500000 0.948187
C5    C     C_2   0.498182 0.389380 0.933822 -0.179174
C6    C     C_2   0.516357 0.390774 0.066565 -0.184598
C7    C     C_2   0.517293 0.501359 0.868924 -0.326854
C8    C     C_2   0.486730 0.500225 0.130987 -0.321740
H1    H     H_    0.469344 0.295553 0.889989 0.162821
H2    H     H_    0.552215 0.300509 0.111080 0.159422
H3    H     H_    0.549185 0.594826 0.912172 0.151001
H4    H     H_    0.448604 0.590261 0.087335 0.149830
C9    C     C_R   0.062660 0.469673 0.390851 -0.185061
C10   C     C_R   0.932669 0.467705 0.391039 -0.216353
H5    H     H_    0.112337 0.447173 0.306133 0.148476
H6    H     H_    0.879776 0.440993 0.306952 0.125924
C11   C     C_R   0.871822 0.502179 0.500233 0.024100
C12   C     C_R   0.128129 0.500861 0.500817 0.005535
C13   C     C_R   0.937254 0.539910 0.608788 -0.179859
C14   C     C_R   0.067365 0.538175 0.609388 -0.209120
H7    H     H_    0.887726 0.567412 0.692464 0.129230
H8    H     H_    0.120419 0.564658 0.693426 0.130211
C15   C     C_R   0.590900 0.070517 0.565316 0.024464
C16   C     C_R   0.409637 0.068992 0.434197 0.023520
C17   C     C_R   0.589936 0.927658 0.564946 -0.112708
C18   C     C_R   0.410265 0.926209 0.435109 -0.108040
H9    H     H_    0.661827 0.872820 0.616805 0.139322
H10   H     H_    0.339223 0.870157 0.382243 0.143534
N1    N     N_R   0.500000 0.857200 0.500000 -0.088319
N2    N     N_R   0.500000 0.142810 0.500000 -0.116197
C19   C     C_R   0.693468 0.136329 0.637362 0.166338
C20   C     C_R   0.679127 0.161146 0.764717 -0.127365
C21   C     C_R   0.779745 0.214004 0.836200 -0.151494
C22   C     C_R   0.896755 0.237459 0.781635 -0.131212
C23   C     C_R   0.913622 0.206119 0.656127 -0.133824
C24   C     C_R   0.812726 0.154203 0.584422 -0.128709
H11   H     H_    0.591022 0.136207 0.808702 0.108353
H12   H     H_    0.767574 0.234756 0.934214 0.131015
H13   H     H_    0.974789 0.278044 0.836943 0.124213
H14   H     H_    0.004671 0.222594 0.614395 0.141848
H15   H     H_    0.826797 0.128875 0.487659 0.113587
C25   C     C_R   0.311845 0.131598 0.354878 0.170489
C26   C     C_R   0.337080 0.155717 0.229222 -0.119426
C27   C     C_R   0.239463 0.190664 0.145892 -0.152612
C28   C     C_R   0.114821 0.195152 0.186415 -0.144275
C29   C     C_R   0.088092 0.165410 0.310379 -0.147518
C30   C     C_R   0.186197 0.134423 0.394651 -0.145095
H16   H     H_    0.431431 0.140976 0.195114 0.112194
H17   H     H_    0.259924 0.210046 0.049161 0.134146
H18   H     H_    0.038832 0.220050 0.121567 0.124835
H19   H     H_    0.991338 0.166602 0.341016 0.133092
H20   H     H_    0.164110 0.107888 0.489561 0.118734

loop_
_geom_bond_atom_site_label_1
_geom_bond_atom_site_label_2
_geom_bond_distance
_ccdc_geom_bond_type
C4    C7    1.419347 S    
C22   H13   1.082444 S    
C5    H1    1.083030 S    
O7    Zn2   1.980251 S    
C3    C8    1.418077 S    
C9    C12   1.390353 A    
C13   C14   1.375555 A    
C26   H16   1.080055 S    
C11   C13   1.393276 A    
C1    C12   1.399671 S    
C19   C20   1.400489 A    
C27   C28   1.396767 A    
C16   C25   1.467945 S    
C2    C11   1.399096 S    
C10   C11   1.391787 A    
O6    C4    1.288611 A    
C21   C22   1.397674 A    
C15   C19   1.469180 S    
C28   C29   1.397809 A    
C12   C14   1.392962 A    
C30   H20   1.082597 S    
C13   H7    1.084288 S    
C26   C27   1.397969 A    
C29   C30   1.398679 A    
C14   H8    1.084186 S    
O7    C3    1.290455 A    
C28   H18   1.082526 S    
O2    C2    1.283646 A    
O3    Zn2   1.976109 S    
O8    C4    1.290854 A    
C23   H14   1.081444 S    
C25   C26   1.401213 A    
O1    C1    1.282479 A    
C18   H10   1.083315 S    
C6    H2    1.083595 S    
C15   C17   1.419129 A    
C10   H6    1.084319 S    
O5    C3    1.288501 A    
C16   C18   1.418504 A    
C27   H17   1.082408 S    
C9    H5    1.083047 S    
O4    Zn2   1.971741 S    
C17   N1    1.358166 A    
C16   N2    1.383114 A    
Zn1   N1    2.027327 S    
C15   N2    1.383358 A    
O1    Zn1   1.972218 S    
C25   C30   1.403725 A    
C9    C10   1.374262 A    
Zn2   N2    2.027228 S    
C5    C6    1.434425 S    
O6    Zn1   1.980379 S    
C23   C24   1.398648 A    
O5    Zn1   1.979318 S    
C20   H11   1.080306 S    
C22   C23   1.397781 A    
C6    C8    1.330121 D    
O4    C2    1.286337 A    
C21   H12   1.082438 S    
C5    C7    1.330029 D    
O2    Zn1   1.976595 S    
C29   H19   1.080767 S    
C19   C24   1.403668 A    
C17   H9    1.083176 S    
C8    H4    1.086274 S    
C24   H15   1.082000 S    
C18   N1    1.355720 A    
C7    H3    1.086425 S    
C20   C21   1.398606 A    
O8    Zn2   1.979191 S    
O3    C1    1.287764 A    
