data_mof_unit_37409.cif
_audit_creation_date              2012-12-10T19:08:07-0500
_audit_creation_method            fapswitch 2.2
_symmetry_space_group_name_H-M    P1
_symmetry_Int_Tables_number       1
_space_group_crystal_system       triclinic
_cell_length_a                    9.075332
_cell_length_b                    10.824843
_cell_length_c                    9.563661
_cell_angle_alpha                 90.191964
_cell_angle_beta                  90.147119
_cell_angle_gamma                 90.420316
_cell_volume                      939.491204215

loop_
_atom_site_label
_atom_site_type_symbol
_atom_type_description
_atom_site_fract_x
_atom_site_fract_y
_atom_site_fract_z
_atom_type_partial_charge
C1    C     C_R   0.497854 0.262345 0.499796 0.803312
C2    C     C_R   0.471261 0.934978 0.372608 -0.219812
C3    C     C_R   0.484364 0.870659 0.499528 -0.097485
C4    C     C_R   0.477554 0.936675 0.624879 0.132739
C5    C     C_3   0.574624 0.931222 0.751060 -0.472436
C6    C     C_3   0.574240 0.071522 0.751067 -0.457562
C7    C     C_R   0.579013 0.586824 0.074119 0.232589
C8    C     C_R   0.409670 0.422787 0.072736 0.036213
C9    C     C_R   0.410658 0.422693 0.924154 -0.113000
C10   C     C_R   0.578873 0.586890 0.926968 0.252858
C11   C     C_3   0.741274 0.608295 0.921630 -0.495525
C12   C     C_R   0.220729 0.499890 0.499866 0.853080
C13   C     C_3   0.741389 0.608194 0.080331 -0.487391
C14   C     C_R   0.497914 0.737612 0.500060 0.792718
C15   C     C_R   0.779261 0.500094 0.500129 0.845048
C16   C     C_1   0.065555 0.499951 0.499815 -0.176404
C17   C     C_1   0.934425 0.500032 0.500149 -0.195489
C18   C     C_R   0.477404 0.063859 0.624701 0.119479
C19   C     C_R   0.484447 0.129086 0.499157 -0.095703
C20   C     C_R   0.471653 0.063672 0.372418 -0.192794
Cu1   Cu    Cu3+1 0.499990 0.499980 0.640670 0.942007
Cu2   Cu    Cu3+1 0.500010 0.500020 0.359330 0.955241
H1    H     H_    0.469344 0.111149 0.272997 0.173872
H2    H     H_    0.769748 0.699792 0.876355 0.189733
H3    H     H_    0.802229 0.528763 0.125070 0.226166
H4    H     H_    0.468095 0.886630 0.273285 0.166427
H5    H     H_    0.516994 0.890518 0.842622 0.198036
H6    H     H_    0.516090 0.111779 0.842504 0.197376
H7    H     H_    0.683978 0.113148 0.728376 0.201267
H8    H     H_    0.340721 0.358807 0.866634 0.143975
H9    H     H_    0.802040 0.528934 0.876336 0.224216
N1    N     N_R   0.500920 0.500930 0.147930 -0.207631
N2    N     N_R   0.500930 0.500890 0.852020 -0.187321
O1    O     O_R   0.500000 0.319640 0.618810 -0.584596
O2    O     O_R   0.500020 0.319680 0.381230 -0.581008
O3    O     O_R   0.288380 0.499980 0.618770 -0.582639
O4    O     O_R   0.288400 0.500020 0.381190 -0.570683
O5    O     O_R   0.499980 0.680320 0.618770 -0.578843
O6    O     O_R   0.500000 0.680360 0.381190 -0.588543
O7    O     O_R   0.711600 0.499980 0.618810 -0.582203
O8    O     O_R   0.711620 0.500020 0.381230 -0.579130
H10   H     H_    0.769800 0.699665 0.126613 0.194934
H11   H     H_    0.684532 0.891309 0.728035 0.193639
C21   C     C_1   0.311143 0.338554 0.142247 0.283166
N3    N     N_1   0.231026 0.270732 0.197137 -0.311893

loop_
_geom_bond_atom_site_label_1
_geom_bond_atom_site_label_2
_ccdc_geom_bond_type
C7    C10   A    
Cu1   O1    S    
C14   O5    A    
C19   C20   A    
C20   H1    S    
C4    C18   A    
C2    C3    A    
C5    H11   S    
C11   H9    S    
C2    H4    S    
Cu1   O3    S    
Cu1   Cu2   S    
C9    N2    A    
Cu2   O2    S    
C11   C13   S    
C13   H3    S    
C16   C17   T    
C3    C14   S    
Cu2   N1    S    
C9    H8    S    
Cu2   O6    S    
C13   H10   S    
C1    O1    A    
C10   N2    A    
C5    C6    S    
C6    C18   S    
C15   O7    A    
C1    C19   S    
Cu2   O8    S    
C12   O3    A    
C10   C11   S    
C2    C20   A    
C3    C4    A    
C8    N1    A    
C12   C16   S    
C11   H2    S    
C7    C13   S    
C6    H7    S    
Cu1   N2    S    
C21   N3    T    
C15   O8    A    
C18   C19   A    
C12   O4    A    
C15   C17   S    
C1    O2    A    
C8    C9    A    
C7    N1    A    
C14   O6    A    
C5    H5    S    
Cu2   O4    S    
C6    H6    S    
Cu1   O5    S    
C8    C21   S    
C4    C5    S    
Cu1   O7    S    
