data_mof_unit_67740.cif
_audit_creation_date              2012-12-10T19:48:35-0500
_audit_creation_method            fapswitch 2.2
_symmetry_space_group_name_H-M    P1
_symmetry_Int_Tables_number       1
_space_group_crystal_system       triclinic
_cell_length_a                    10.899176
_cell_length_b                    10.689248
_cell_length_c                    9.532136
_cell_angle_alpha                 90.145042
_cell_angle_beta                  91.423013
_cell_angle_gamma                 90.835655
_cell_volume                      1110.0667057

loop_
_atom_site_label
_atom_site_type_symbol
_atom_type_description
_atom_site_fract_x
_atom_site_fract_y
_atom_site_fract_z
_atom_type_partial_charge
C1    C     C_R   0.498026 0.260415 0.499555 0.826904
C2    C     C_R   0.501074 0.739445 0.500499 0.834885
C3    C     C_R   0.871569 0.501846 0.506800 -0.083972
C4    C     C_R   0.128752 0.494824 0.494155 -0.082220
C5    C     C_R   0.945542 0.571423 0.603932 0.026292
C6    C     C_R   0.055173 0.429911 0.392938 0.018204
C7    C     C_3   0.601637 0.045150 0.560453 0.055458
C8    C     C_3   0.395822 0.954268 0.439697 0.048136
C9    C     C_3   0.595240 0.960362 0.430065 0.097861
C10   C     C_3   0.402397 0.038911 0.570567 0.081756
C11   C     C_3   0.500770 0.874987 0.501947 -0.124270
C12   C     C_3   0.496999 0.124561 0.498444 -0.122765
C13   C     C_3   0.507418 0.960706 0.632855 0.180813
C14   C     C_3   0.490615 0.038623 0.367563 0.180637
C15   C     C_3   0.490911 0.610590 0.048252 0.238670
C16   C     C_3   0.509076 0.389327 0.951776 0.232734
C17   C     C_3   0.401119 0.545558 0.948881 0.259960
C18   C     C_3   0.599239 0.454899 0.051272 0.228334
C19   C     C_3   0.591664 0.567120 0.950420 -0.224939
C20   C     C_3   0.407950 0.433340 0.049233 -0.153977
C21   C     C_R   0.262778 0.495456 0.497707 0.770538
C22   C     C_R   0.737385 0.504038 0.502311 0.770597
C23   C     C_R   0.087469 0.390725 0.007284 -0.288511
C24   C     C_R   0.877445 0.685346 0.963505 -0.295801
C25   C     C_R   0.077636 0.446528 0.138287 -0.175314
C26   C     C_R   0.878499 0.606822 0.846099 -0.183747
C27   C     C_R   0.100436 0.377850 0.260942 0.097353
C28   C     C_R   0.900892 0.656000 0.713187 0.104184
C29   C     C_R   0.135685 0.252337 0.250615 -0.209798
C30   C     C_R   0.923825 0.785224 0.699718 -0.284231
C31   C     C_R   0.148922 0.196693 0.117985 0.200937
C32   C     C_R   0.925382 0.864160 0.818174 0.229160
C33   C     C_R   0.125338 0.267025 0.995729 0.190834
C34   C     C_R   0.899348 0.813836 0.949994 0.226405
C35   C     C_R   0.927972 0.430052 0.404946 -0.254599
C36   C     C_R   0.072560 0.564792 0.597034 -0.256241
Cu1   Cu    Cu3+1 0.500030 0.499990 0.643150 0.974878
Cu2   Cu    Cu3+1 0.499970 0.500010 0.356850 0.985314
H1    H     H_    0.065065 0.443170 0.913894 0.152132
H2    H     H_    0.859912 0.646870 0.065775 0.142356
H3    H     H_    0.872201 0.376219 0.330291 0.175675
H4    H     H_    0.128512 0.620777 0.669462 0.174849
N1    N     N_3   0.500090 0.499970 0.858290 -0.174767
N2    N     N_3   0.499910 0.500030 0.141710 -0.172974
O1    O     O_R   0.500060 0.316850 0.620870 -0.541622
O2    O     O_R   0.499940 0.683150 0.379130 -0.538734
O3    O     O_R   0.500000 0.316860 0.379090 -0.573228
O4    O     O_R   0.500000 0.683140 0.620910 -0.566676
O5    O     O_R   0.319670 0.500010 0.620890 -0.578465
O6    O     O_R   0.680330 0.499990 0.379110 -0.570991
O7    O     O_R   0.319620 0.500010 0.379110 -0.571515
O8    O     O_R   0.680380 0.499990 0.620890 -0.585404
N3    N     N_3   0.143351 0.214311 0.860026 -0.577437
H5    H     H_    0.062508 0.225663 0.800402 0.220022
H6    H     H_    0.211593 0.267835 0.812221 0.244813
N4    N     N_3   0.895991 0.893556 0.070462 -0.603692
H7    H     H_    0.957002 0.858903 0.146825 0.219369
H8    H     H_    0.807548 0.886894 0.109677 0.229927
N5    N     N_3   0.292137 0.604565 0.890977 -0.553809
H9    H     H_    0.237352 0.532477 0.849849 0.219372
H10   H     H_    0.244349 0.641717 0.974780 0.214076
N6    N     N_3   0.709505 0.397653 0.109365 -0.551947
H11   H     H_    0.768641 0.470323 0.141004 0.215273
H12   H     H_    0.753053 0.352596 0.027374 0.189771
N7    N     N_3   0.478117 0.736845 0.102921 -0.529992
H13   H     H_    0.450449 0.793697 0.019371 0.220173
H14   H     H_    0.565762 0.768515 0.134254 0.230399
N8    N     N_3   0.521114 0.263118 0.896815 -0.537732
H15   H     H_    0.519839 0.202173 0.982075 0.212485
H16   H     H_    0.608386 0.256886 0.854618 0.238380
H17   H     H_    0.653718 0.636020 0.903037 0.163047
H18   H     H_    0.335336 0.375335 0.096098 0.150704
H19   H     H_    0.046392 0.541975 0.144664 0.151940
H20   H     H_    0.865166 0.507044 0.859449 0.148265
H21   H     H_    0.148137 0.197006 0.344698 0.121533
H22   H     H_    0.950167 0.822336 0.598942 0.127068
N9    N     N_3   0.183331 0.068352 0.108628 -0.603554
H23   H     H_    0.112552 0.019574 0.055687 0.278739
H24   H     H_    0.260860 0.063145 0.046627 0.238484
N10   N     N_3   0.963181 0.992853 0.808133 -0.582942
H25   H     H_    0.890118 0.048383 0.838122 0.238920
H26   H     H_    0.983330 0.015623 0.704513 0.196162
N11   N     N_3   0.700515 0.916959 0.353798 -0.604833
H27   H     H_    0.753904 0.995773 0.330235 0.231021
H28   H     H_    0.753031 0.862308 0.422596 0.197381
N12   N     N_3   0.297559 0.081562 0.647977 -0.553475
H29   H     H_    0.247588 0.002218 0.677785 0.243839
H30   H     H_    0.241512 0.131358 0.578098 0.188348
N13   N     N_3   0.714024 0.094992 0.625355 -0.608912
H31   H     H_    0.774721 0.020663 0.629638 0.209517
H32   H     H_    0.751096 0.160037 0.555913 0.213001
N14   N     N_3   0.283833 0.902894 0.374326 -0.552452
H33   H     H_    0.221751 0.975962 0.364804 0.228273
H34   H     H_    0.246086 0.839386 0.445038 0.207036
N15   N     N_3   0.516800 0.918457 0.777787 -0.565817
H35   H     H_    0.519089 0.997941 0.841754 0.237075
H36   H     H_    0.601825 0.875525 0.791247 0.216453
N16   N     N_3   0.484466 0.080967 0.222799 -0.570417
H37   H     H_    0.466232 0.002650 0.159567 0.235354
H38   H     H_    0.408970 0.139469 0.212848 0.229695

loop_
_geom_bond_atom_site_label_1
_geom_bond_atom_site_label_2
_ccdc_geom_bond_type
C4    C36   A    
C34   N4    S    
C27   C29   A    
C36   H4    S    
N15   H35   S    
C21   O5    A    
N9    H23   S    
C2    O2    A    
C15   C19   S    
Cu1   Cu2   S    
C13   N15   S    
C24   C26   A    
C15   N2    S    
N12   H30   S    
C7    N13   S    
C5    C36   A    
C17   C20   S    
C30   H22   S    
N4    H7    S    
C7    C9    S    
C18   C19   S    
N6    H12   S    
C26   H20   S    
C19   H17   S    
N11   H27   S    
N8    H15   S    
N7    H14   S    
C31   C33   A    
C31   N9    S    
C8    N14   S    
N13   H32   S    
C22   O6    A    
N3    H6    S    
N5    H9    S    
C1    C12   S    
C2    C11   S    
C20   N2    S    
C19   N1    S    
C14   N16   S    
N9    H24   S    
C33   N3    S    
C7    C12   S    
N5    H10   S    
C4    C6    A    
Cu1   O8    S    
N12   H29   S    
C1    O3    A    
Cu2   O7    S    
C23   C33   A    
N3    H5    S    
C24   C34   A    
C32   C34   A    
Cu1   N1    S    
C9    C14   S    
C17   N1    S    
Cu2   N2    S    
N6    H11   S    
C18   N2    S    
C32   N10   S    
C5    C28   S    
Cu1   O5    S    
C6    C27   S    
C3    C35   A    
C16   C20   S    
N14   H34   S    
C16   C18   S    
Cu1   O4    S    
C9    C11   S    
C16   N1    S    
Cu2   O3    S    
C10   C12   S    
C17   N5    S    
C16   N8    S    
C8    C10   S    
N11   H28   S    
C12   C14   S    
N7    H13   S    
N16   H38   S    
C29   H21   S    
Cu1   O1    S    
C21   O7    A    
C22   O8    A    
C15   C17   S    
N15   H36   S    
C10   N12   S    
C8    C14   S    
C18   N6    S    
N10   H25   S    
C3    C5    A    
C10   C13   S    
C9    N11   S    
Cu2   O6    S    
C25   C27   A    
C6    C35   A    
C26   C28   A    
C2    O4    A    
C28   C30   A    
C29   C31   A    
C30   C32   A    
C4    C21   S    
C11   C13   S    
C1    O1    A    
C8    C11   S    
C23   H1    S    
N14   H33   S    
C24   H2    S    
N10   H26   S    
N4    H8    S    
C25   H19   S    
C23   C25   A    
C35   H3    S    
Cu2   O2    S    
C7    C13   S    
N8    H16   S    
N16   H37   S    
C20   H18   S    
C3    C22   S    
N13   H31   S    
C15   N7    S    
