data_mof_unit_64515.cif
_audit_creation_date              2012-12-10T18:40:30-0500
_audit_creation_method            fapswitch 2.2
_symmetry_space_group_name_H-M    P1
_symmetry_Int_Tables_number       1
_space_group_crystal_system       triclinic
_cell_length_a                    10.780807
_cell_length_b                    11.573517
_cell_length_c                    16.82634
_cell_angle_alpha                 90.041348
_cell_angle_beta                  84.071943
_cell_angle_gamma                 90.044933
_cell_volume                      2088.22542854

loop_
_atom_site_label
_atom_site_type_symbol
_atom_type_description
_atom_site_fract_x
_atom_site_fract_y
_atom_site_fract_z
_atom_type_partial_charge
C1    C     C_R   0.500040 0.718832 0.499981 0.909533
C2    C     C_R   0.499960 0.281173 0.500056 0.906093
C3    C     C_1   0.500091 0.838960 0.500052 -0.141444
C4    C     C_1   0.499916 0.161060 0.500170 -0.138201
C5    C     C_1   0.500058 0.940854 0.500135 0.036979
C6    C     C_1   0.499974 0.059172 0.500199 0.037740
C7    C     C_1   0.930232 0.499991 0.500006 0.095251
C8    C     C_1   0.069767 0.499996 0.499994 0.090674
C9    C     C_R   0.481606 0.495336 0.653405 0.969667
C10   C     C_R   0.518409 0.501011 0.346421 0.957039
C11   C     C_R   0.465934 0.464597 0.737475 -0.300199
C12   C     C_R   0.533268 0.496482 0.259771 -0.313281
C13   C     C_R   0.537086 0.374447 0.766435 -0.227647
C14   C     C_R   0.454075 0.560353 0.214869 -0.224722
C15   C     C_R   0.519051 0.345251 0.846882 0.670428
C16   C     C_R   0.463030 0.545664 0.132555 0.666147
C17   C     C_R   0.431898 0.405850 0.898428 -0.172059
C18   C     C_R   0.549200 0.467010 0.095201 -0.173398
C19   C     C_R   0.353499 0.488741 0.868496 -0.232114
C20   C     C_R   0.633660 0.408839 0.139028 -0.213631
C21   C     C_R   0.370906 0.517788 0.787813 0.594907
C22   C     C_R   0.625277 0.423654 0.221498 0.598330
C23   C     C_2   0.442959 0.401098 0.983773 0.575332
C24   C     C_2   0.546395 0.444153 0.010536 0.550706
N1    N     N_1   0.819370 0.500000 0.500010 -0.063793
N2    N     N_1   0.180630 0.500000 0.499990 -0.066335
O1    O     O_R   0.397470 0.665550 0.500010 -0.600444
O2    O     O_R   0.602530 0.334450 0.499990 -0.595249
O3    O     O_R   0.602530 0.665550 0.499990 -0.612697
O4    O     O_R   0.397470 0.334450 0.500010 -0.615103
O5    O     O_R   0.385350 0.500000 0.615800 -0.566846
O6    O     O_R   0.614650 0.500000 0.384200 -0.556528
O7    O     O_R   0.590410 0.500000 0.615800 -0.623583
O8    O     O_R   0.409590 0.500000 0.384200 -0.623612
Zn1   Zn    Zn3+2 0.363080 0.500000 0.500000 1.038026
Zn2   Zn    Zn3+2 0.636920 0.500000 0.500000 1.045932
C25   C     C_1   0.627737 0.309791 0.714830 0.351858
N3    N     N_1   0.700233 0.257967 0.673622 -0.159328
C26   C     C_1   0.364384 0.642105 0.251824 0.354023
N4    N     N_1   0.292672 0.707519 0.281406 -0.158478
F1    F     F_    0.702296 0.362382 0.264853 -0.636211
F2    F     F_    0.299022 0.601350 0.758964 -0.635020
F3    F     F_    0.646589 0.476431 0.959319 -0.636547
F4    F     F_    0.341718 0.371803 0.035035 -0.640807
C27   C     C_1   0.260777 0.550184 0.920524 0.480392
N5    N     N_1   0.186477 0.599341 0.962111 -0.071348
C28   C     C_1   0.724902 0.329590 0.100895 0.425729
N6    N     N_1   0.797904 0.266176 0.070331 -0.094077
F5    F     F_    0.386791 0.606784 0.088576 -0.639968
F6    F     F_    0.591292 0.262466 0.876351 -0.622113

loop_
_geom_bond_atom_site_label_1
_geom_bond_atom_site_label_2
_ccdc_geom_bond_type
C2    C4    S    
C23   C24   D    
C19   C27   S    
C15   C17   A    
C25   N3    T    
C14   C16   A    
C10   O6    A    
C11   C13   A    
C13   C25   S    
C28   N6    T    
C7    N1    T    
C2    O4    A    
O1    Zn1   S    
C3    C5    T    
C1    O3    A    
C7    C8    S    
C10   O8    A    
C27   N5    T    
C9    O7    A    
C9    C11   S    
O3    Zn2   S    
C17   C23   S    
C10   C12   S    
O4    Zn1   S    
C18   C24   S    
O6    Zn2   S    
C4    C6    T    
C19   C21   A    
C12   C14   A    
C18   C20   A    
C13   C15   A    
C5    C6    S    
O5    Zn1   S    
C22   F1    S    
C9    O5    A    
N1    Zn2   S    
C21   F2    S    
C20   C28   S    
C12   C22   A    
N2    Zn1   S    
O7    Zn2   S    
C8    N2    T    
C16   F5    S    
O2    Zn2   S    
C16   C18   A    
O8    Zn1   S    
C15   F6    S    
C26   N4    T    
C1    O1    A    
C24   F3    S    
C2    O2    A    
C17   C19   A    
C14   C26   S    
C11   C21   A    
C23   F4    S    
C20   C22   A    
C1    C3    S    
