data_mof_unit_30253.cif
_audit_creation_date              2012-12-10T17:29:07-0500
_audit_creation_method            fapswitch 2.2
_symmetry_space_group_name_H-M    P1
_symmetry_Int_Tables_number       1
_space_group_crystal_system       triclinic
_cell_length_a                    18.358803
_cell_length_b                    18.358561
_cell_length_c                    51.47061
_cell_angle_alpha                 89.999977
_cell_angle_beta                  89.999818
_cell_angle_gamma                 90.00024
_cell_volume                      17347.716404

loop_
_atom_site_label
_atom_site_type_symbol
_atom_type_description
_atom_site_fract_x
_atom_site_fract_y
_atom_site_fract_z
_atom_type_partial_charge
C1    C     C_R   0.000000 0.500000 0.179986 0.846010
C2    C     C_R   0.372684 0.035841 0.986161 -0.153157
C3    C     C_R   0.743658 0.148700 0.207438 0.458029
C4    C     C_R   0.856170 0.747520 0.791281 0.452479
C5    C     C_R   0.149347 0.257086 0.207054 0.456175
C6    C     C_R   0.750210 0.141440 0.790164 0.455979
C7    C     C_R   0.256341 0.851302 0.207439 0.458030
C8    C     C_R   0.643823 0.247531 0.708722 0.452494
C9    C     C_R   0.350705 0.757042 0.292931 0.456238
C10   C     C_R   0.749823 0.641475 0.709823 0.455999
C11   C     C_R   0.243627 0.351280 0.292568 0.458038
C12   C     C_R   0.356183 0.752466 0.708723 0.452489
C13   C     C_R   0.964156 0.627336 0.013838 -0.153183
C14   C     C_R   0.649292 0.242959 0.292931 0.456236
C15   C     C_R   0.250188 0.358534 0.709826 0.455994
C16   C     C_R   0.756370 0.648719 0.292567 0.458036
C17   C     C_R   0.641482 0.749826 0.290178 0.456000
C18   C     C_R   0.351300 0.243649 0.707438 0.458033
C19   C     C_R   0.752452 0.356195 0.291273 0.452479
C20   C     C_R   0.242943 0.649310 0.707064 0.456230
C21   C     C_R   0.358512 0.250168 0.290180 0.456001
C22   C     C_R   0.648714 0.756363 0.707434 0.458035
C23   C     C_R   0.247548 0.643803 0.291273 0.452478
C24   C     C_R   0.034087 0.372193 0.986706 -0.153338
C25   C     C_R   0.757058 0.350693 0.707065 0.456236
C26   C     C_R   0.147203 0.799102 0.189105 -0.251993
C27   C     C_R   0.847931 0.203817 0.812214 -0.278370
C28   C     C_R   0.202978 0.149378 0.188171 -0.260450
C29   C     C_R   0.794988 0.847033 0.812737 -0.268130
C30   C     C_R   0.852796 0.200901 0.189104 -0.251994
C31   C     C_R   0.152058 0.796186 0.812213 -0.278342
C32   C     C_R   0.797027 0.850625 0.188172 -0.260449
C33   C     C_R   0.204983 0.152942 0.812728 -0.268123
C34   C     C_R   0.149335 0.202930 0.811815 -0.260449
C35   C     C_R   0.372208 0.034093 0.013294 -0.153351
C36   C     C_R   0.847017 0.794979 0.187259 -0.268138
C37   C     C_R   0.200940 0.852754 0.810910 -0.252010
C38   C     C_R   0.796213 0.152037 0.187795 -0.278381
C39   C     C_R   0.850630 0.797038 0.811826 -0.260446
C40   C     C_R   0.152986 0.205023 0.187258 -0.268138
C41   C     C_R   0.799060 0.147239 0.810908 -0.251994
C42   C     C_R   0.203786 0.847966 0.187796 -0.278381
C43   C     C_R   0.649354 0.297062 0.688180 -0.260431
C44   C     C_R   0.347088 0.704962 0.312721 -0.268134
C45   C     C_R   0.700971 0.647279 0.689079 -0.252014
C46   C     C_R   0.627356 0.964214 0.986162 -0.153168
C47   C     C_R   0.296144 0.347909 0.312223 -0.278322
C48   C     C_R   0.350653 0.702937 0.688181 -0.260430
C49   C     C_R   0.652911 0.295037 0.312721 -0.268134
C50   C     C_R   0.299050 0.352738 0.689085 -0.252015
C51   C     C_R   0.703851 0.652088 0.312222 -0.278325
C52   C     C_R   0.647290 0.700978 0.310923 -0.252018
C53   C     C_R   0.347942 0.296178 0.687786 -0.278310
C54   C     C_R   0.702913 0.350675 0.311812 -0.260436
C55   C     C_R   0.295014 0.652937 0.687272 -0.268137
C56   C     C_R   0.352703 0.299017 0.310925 -0.252019
C57   C     C_R   0.035836 0.372670 0.013839 -0.153181
C58   C     C_R   0.652081 0.703840 0.687780 -0.278319
C59   C     C_R   0.297087 0.649324 0.311812 -0.260435
C60   C     C_R   0.704990 0.347064 0.687272 -0.268139
C61   C     C_R   0.253143 0.801482 0.229045 -0.054005
C62   C     C_R   0.748694 0.196501 0.770295 -0.053498
C63   C     C_R   0.198924 0.253531 0.228713 -0.051870
C64   C     C_R   0.802641 0.747707 0.770836 -0.052335
C65   C     C_R   0.746857 0.198519 0.229045 -0.054005
C66   C     C_R   0.251307 0.803496 0.770297 -0.053499
C67   C     C_R   0.801077 0.746470 0.228713 -0.051869
C68   C     C_R   0.965899 0.627811 0.986706 -0.153340
C69   C     C_R   0.197347 0.252282 0.770832 -0.052321
C70   C     C_R   0.253518 0.198910 0.771283 -0.051885
C71   C     C_R   0.747704 0.802640 0.229163 -0.052333
C72   C     C_R   0.198524 0.746850 0.770957 -0.053997
C73   C     C_R   0.803511 0.251292 0.229709 -0.053507
C74   C     C_R   0.746474 0.801082 0.771286 -0.051876
C75   C     C_R   0.252298 0.197361 0.229163 -0.052332
C76   C     C_R   0.801471 0.253152 0.770958 -0.053995
C77   C     C_R   0.196489 0.748709 0.229710 -0.053509
C78   C     C_R   0.753518 0.301094 0.728718 -0.051885
C79   C     C_R   0.127373 0.535685 0.513837 -0.153140
C80   C     C_R   0.247723 0.697344 0.270832 -0.052344
C81   C     C_R   0.698531 0.753157 0.729041 -0.053993
C82   C     C_R   0.303479 0.248678 0.270302 -0.053496
C83   C     C_R   0.246483 0.698907 0.728718 -0.051888
C84   C     C_R   0.752277 0.302655 0.270832 -0.052345
C85   C     C_R   0.301476 0.246849 0.729043 -0.053993
C86   C     C_R   0.696518 0.751320 0.270301 -0.053496
C87   C     C_R   0.753161 0.698534 0.270960 -0.053995
C88   C     C_R   0.248688 0.303490 0.729701 -0.053498
C89   C     C_R   0.698898 0.246491 0.271280 -0.051889
C90   C     C_R   0.872152 0.466064 0.486705 -0.153351
C91   C     C_R   0.302649 0.752285 0.729166 -0.052339
C92   C     C_R   0.246837 0.301465 0.270960 -0.053993
C93   C     C_R   0.751318 0.696515 0.729700 -0.053494
C94   C     C_R   0.301101 0.753509 0.271280 -0.051888
C95   C     C_R   0.697354 0.247715 0.729165 -0.052346
C96   C     C_R   0.303914 0.803822 0.250085 -0.139280
C97   C     C_R   0.696270 0.195901 0.749831 -0.134206
C98   C     C_R   0.196089 0.303824 0.249913 -0.139306
C99   C     C_R   0.803733 0.695904 0.750167 -0.134213
C100  C     C_R   0.696085 0.196179 0.250085 -0.139280
C101  C     C_R   0.533940 0.127842 0.513295 -0.153354
C102  C     C_R   0.303732 0.804097 0.749832 -0.134207
C103  C     C_R   0.803912 0.696176 0.249913 -0.139305
C104  C     C_R   0.196266 0.304095 0.750166 -0.134209
C105  C     C_R   0.303825 0.196089 0.750086 -0.139293
C106  C     C_R   0.695903 0.803732 0.249833 -0.134216
C107  C     C_R   0.196176 0.696088 0.749914 -0.139284
C108  C     C_R   0.804100 0.303729 0.250169 -0.134205
C109  C     C_R   0.696176 0.803911 0.750086 -0.139292
C110  C     C_R   0.304096 0.196267 0.249833 -0.134217
C111  C     C_R   0.803822 0.303914 0.749915 -0.139284
C112  C     C_R   0.999999 0.500000 0.820161 0.868252
C113  C     C_R   0.464345 0.872612 0.486163 -0.153140
C114  C     C_R   0.195900 0.696271 0.250169 -0.134205
C115  C     C_R   0.436606 0.014552 0.054484 0.552097
C116  C     C_R   0.562001 0.980269 0.944973 0.550902
C117  C     C_R   0.019794 0.438033 0.055027 0.550971
C118  C     C_R   0.985440 0.563409 0.945516 0.552084
C119  C     C_R   0.563421 0.985467 0.054484 0.552088
C120  C     C_R   0.438046 0.019805 0.944973 0.550831
C121  C     C_R   0.980209 0.561978 0.055027 0.550969
C122  C     C_R   0.014538 0.436592 0.945516 0.552104
C123  C     C_R   0.937997 0.480308 0.555026 0.550828
C124  C     C_R   0.872622 0.464328 0.513838 -0.153142
C125  C     C_R   0.063419 0.514490 0.445515 0.552072
C126  C     C_R   0.485527 0.936571 0.554485 0.552072
C127  C     C_R   0.519704 0.061995 0.444974 0.550797
C128  C     C_R   0.061998 0.519704 0.555026 0.550817
C129  C     C_R   0.936576 0.485521 0.445515 0.552077
C130  C     C_R   0.514486 0.063417 0.554485 0.552071
C131  C     C_R   0.480322 0.937988 0.444974 0.550823
C132  C     C_R   0.564301 0.983597 0.027178 -0.050738
C133  C     C_R   0.436337 0.018667 0.972279 -0.051999
C134  C     C_R   0.981346 0.563686 0.027722 -0.051966
C135  C     C_R   0.127843 0.533949 0.486705 -0.153353
C136  C     C_R   0.016420 0.435717 0.972822 -0.050721
C137  C     C_R   0.435732 0.016436 0.027178 -0.050736
C138  C     C_R   0.563706 0.981395 0.972278 -0.052014
C139  C     C_R   0.018651 0.436323 0.027722 -0.051963
C140  C     C_R   0.983562 0.564286 0.972822 -0.050724
C141  C     C_R   0.063703 0.518574 0.527720 -0.052029
C142  C     C_R   0.935696 0.483650 0.472821 -0.050715
C143  C     C_R   0.516359 0.064296 0.527179 -0.050716
C144  C     C_R   0.481451 0.936284 0.472280 -0.052039
C145  C     C_R   0.936292 0.481439 0.527720 -0.052031
C146  C     C_R   0.466079 0.872143 0.513295 -0.153352
C147  C     C_R   0.064298 0.516363 0.472821 -0.050716
C148  C     C_R   0.483658 0.935690 0.527179 -0.050717
C149  C     C_R   0.518573 0.063700 0.472280 -0.052034
C150  C     C_R   0.500018 0.000020 0.013471 -0.016636
C151  C     C_R   0.500020 0.000028 0.985985 -0.017343
C152  C     C_R   0.999996 0.500004 0.014015 -0.017291
C153  C     C_R   0.999993 0.500002 0.986529 -0.016656
C154  C     C_R   0.999997 0.500006 0.514013 -0.017390
C155  C     C_R   0.999997 0.500006 0.486528 -0.016615
C156  C     C_R   0.500010 0.999993 0.513472 -0.016612
C157  C     C_R   0.535677 0.127372 0.486163 -0.153136
C158  C     C_R   0.500011 0.999992 0.485987 -0.017398
C159  C     C_3   0.029589 0.336629 0.411661 0.078562
C160  C     C_3   0.056510 0.284151 0.390569 -0.301445
C161  C     C_3   0.121390 0.239362 0.399991 -0.964661
C162  C     C_3   0.055888 0.344001 0.587697 0.091285
C163  C     C_3   0.073677 0.278777 0.605100 -0.300319
C164  C     C_3   0.041826 0.208383 0.594179 -0.963888
C165  C     C_3   0.656030 0.944128 0.412296 0.091321
C166  C     C_3   0.721248 0.926351 0.394889 -0.300296
C167  C     C_3   0.791644 0.958202 0.405807 -0.963886
C168  C     C_R   0.982941 0.435960 0.390443 0.473525
C169  C     C_3   0.663380 0.970413 0.588340 0.078565
C170  C     C_3   0.715874 0.943509 0.609430 -0.301472
C171  C     C_3   0.760671 0.878634 0.600007 -0.964555
C172  C     C_3   0.970411 0.663381 0.411660 0.078565
C173  C     C_3   0.943505 0.715874 0.390570 -0.301462
C174  C     C_3   0.878630 0.760670 0.399992 -0.964584
C175  C     C_3   0.944096 0.656015 0.587704 0.091225
C176  C     C_3   0.926380 0.721207 0.605132 -0.300304
C177  C     C_3   0.958200 0.791618 0.594214 -0.963893
C178  C     C_3   0.344006 0.055827 0.412314 0.091459
C179  C     C_R   0.045614 0.451833 0.610008 0.474548
C180  C     C_3   0.278711 0.073783 0.394968 -0.300346
C181  C     C_3   0.208358 0.041856 0.405893 -0.963882
C182  C     C_3   0.336630 0.029576 0.588338 0.078567
C183  C     C_3   0.284137 0.056487 0.609427 -0.301464
C184  C     C_3   0.239343 0.121362 0.600003 -0.964585
C185  C     C_3   0.443845 0.844112 0.912296 0.090945
C186  C     C_3   0.426359 0.779042 0.894779 -0.300259
C187  C     C_3   0.458000 0.708550 0.905696 -0.963924
C188  C     C_3   0.470292 0.836651 0.088332 0.078590
C189  C     C_3   0.443452 0.784035 0.109394 -0.301574
C190  C     C_R   0.548189 0.954389 0.389991 0.474538
C191  C     C_3   0.378560 0.739276 0.099961 -0.964076
C192  C     C_3   0.163344 0.529716 0.911662 0.078575
C193  C     C_3   0.215835 0.556648 0.890575 -0.301500
C194  C     C_3   0.260578 0.621562 0.899996 -0.964503
C195  C     C_3   0.155911 0.556566 0.087777 0.089899
C196  C     C_3   0.220486 0.572878 0.105675 -0.300063
C197  C     C_3   0.291255 0.541771 0.094790 -0.963927
C198  C     C_3   0.556289 0.155987 0.912251 0.090492
C199  C     C_3   0.573210 0.220832 0.894555 -0.300179
C200  C     C_3   0.541795 0.291442 0.905457 -0.963930
C201  C     C_R   0.564045 0.017055 0.609558 0.473519
C202  C     C_3   0.529732 0.163358 0.088337 0.078581
C203  C     C_3   0.556575 0.215958 0.109403 -0.301573
C204  C     C_3   0.621472 0.260717 0.099975 -0.964089
C205  C     C_3   0.836634 0.470295 0.911660 0.078581
C206  C     C_3   0.784089 0.443410 0.890583 -0.301542
C207  C     C_3   0.739330 0.378509 0.900007 -0.964272
C208  C     C_3   0.844097 0.443465 0.087772 0.089941
C209  C     C_3   0.779499 0.427101 0.105652 -0.300078
C210  C     C_3   0.708749 0.458250 0.094768 -0.963921
C211  C     C_R   0.017056 0.564046 0.390442 0.473519
C212  C     C_R   0.500000 1.000000 0.179838 0.868277
C213  C     C_R   0.954383 0.548175 0.610009 0.474567
C214  C     C_R   0.451828 0.045598 0.389994 0.474495
C215  C     C_R   0.435962 0.982936 0.609557 0.473518
C216  C     C_R   0.454319 0.951933 0.889993 0.474686
C217  C     C_R   0.517007 0.935945 0.109556 0.473472
C218  C     C_R   0.064048 0.482990 0.890444 0.473516
C219  C     C_R   0.048026 0.545784 0.110015 0.475037
C220  C     C_R   0.545719 0.048120 0.889985 0.474820
C221  C     C_R   0.483009 0.064061 0.109557 0.473474
C222  C     C_R   0.935937 0.517010 0.890443 0.473501
C223  C     C_R   0.500000 0.000000 0.820015 0.846029
C224  C     C_R   0.951977 0.454227 0.110014 0.475024
C225  C     C_R   0.975996 0.437893 0.363328 0.274961
C226  C     C_R   0.048823 0.454384 0.637205 0.291941
C227  C     C_R   0.545633 0.951183 0.362794 0.291930
C228  C     C_R   0.562110 0.024003 0.636673 0.274972
C229  C     C_R   0.024002 0.562111 0.363327 0.274972
C230  C     C_R   0.951174 0.545618 0.637206 0.291894
C231  C     C_R   0.454370 0.048805 0.362797 0.292043
C232  C     C_R   0.437894 0.975992 0.636673 0.274969
C233  C     C_R   0.451103 0.954488 0.862796 0.291762
C234  C     C_R   0.500000 1.000000 0.679839 0.868200
C235  C     C_R   0.523947 0.937869 0.136671 0.275013
C236  C     C_R   0.062122 0.476041 0.863329 0.274965
C237  C     C_R   0.045417 0.549014 0.137212 0.291075
C238  C     C_R   0.548933 0.045525 0.862788 0.291428
C239  C     C_R   0.476060 0.062133 0.136672 0.275013
C240  C     C_R   0.937869 0.523958 0.863328 0.274992
C241  C     C_R   0.954584 0.450994 0.137211 0.291109
C242  C     C_R   0.999999 0.500001 0.349171 -0.422183
C243  C     C_R   0.999999 0.500001 0.651198 -0.397677
C244  C     C_R   0.500001 0.999996 0.348802 -0.397705
C245  C     C_R   0.500000 1.000000 0.320016 0.846051
C246  C     C_R   0.500001 0.999999 0.650829 -0.422173
C247  C     C_R   0.500011 0.000004 0.848800 -0.397475
C248  C     C_R   0.500002 0.000000 0.150828 -0.422169
C249  C     C_R   0.999997 0.500000 0.849171 -0.422194
C250  C     C_R   0.000000 0.500002 0.151202 -0.397245
C251  C     C_R   0.999998 0.500004 0.404252 -0.109464
C252  C     C_R   0.999998 0.500005 0.596253 -0.109038
C253  C     C_R   0.500011 0.999993 0.403747 -0.109045
C254  C     C_R   0.500004 0.999995 0.595748 -0.109459
C255  C     C_R   0.500020 0.000034 0.903744 -0.108985
C256  C     C_R   0.000000 0.500000 0.679984 0.846056
C257  C     C_R   0.500010 0.000004 0.095746 -0.109459
C258  C     C_R   0.999991 0.500000 0.904254 -0.109496
C259  C     C_R   0.000003 0.500006 0.096258 -0.108926
C260  C     C_R   0.859913 0.640250 0.249953 1.082289
C261  C     C_R   0.140095 0.359813 0.750052 1.088714
C262  C     C_R   0.359911 0.859753 0.250046 1.082265
C263  C     C_R   0.640094 0.140188 0.749947 1.088712
C264  C     C_R   0.140087 0.359750 0.249952 1.082294
C265  C     C_R   0.859905 0.640187 0.750053 1.088707
C266  C     C_R   0.640089 0.140247 0.250046 1.082268
C267  C     C_R   1.000000 0.500000 0.320161 0.868208
C268  C     C_R   0.359906 0.859813 0.749947 1.088709
C269  C     C_R   0.859753 0.359910 0.749954 1.082267
C270  C     C_R   0.140188 0.640094 0.250053 1.088720
C271  C     C_R   0.359751 0.140088 0.750047 1.082291
C272  C     C_R   0.640187 0.859905 0.249947 1.088704
C273  C     C_R   0.140248 0.640089 0.749953 1.082279
C274  C     C_R   0.859812 0.359906 0.250053 1.088719
C275  C     C_R   0.640249 0.859912 0.750047 1.082283
C276  C     C_R   0.359813 0.140095 0.249947 1.088704
C277  C     C_R   0.141414 0.750242 0.209847 0.455961
C278  C     C_R   0.627827 0.965946 0.013294 -0.153347
C279  C     C_R   0.851282 0.256358 0.792567 0.458030
C280  C     C_R   0.252488 0.143833 0.208718 0.452468
C281  C     C_R   0.742924 0.850667 0.792942 0.456212
C282  C     C_R   0.858586 0.249760 0.209846 0.455962
C283  C     C_R   0.148704 0.743650 0.792563 0.458037
C284  C     C_R   0.747515 0.856169 0.208718 0.452465
C285  C     C_R   0.257061 0.149320 0.792938 0.456200
C286  C     C_R   0.143804 0.252454 0.791271 0.452456
C287  C     C_R   0.850655 0.742915 0.207054 0.456176
C288  C     C_R   0.249798 0.858550 0.790168 0.455982
H1    H     H_    0.297331 0.609536 0.327357 0.158818
H2    H     H_    0.705731 0.614965 0.328571 0.156181
H3    H     H_    0.837625 0.944888 0.392621 0.275375
H4    H     H_    0.803341 0.934753 0.425261 0.267309
H5    H     H_    0.695377 0.983996 0.570672 0.169459
H6    H     H_    0.625313 0.925820 0.582623 0.131995
H7    H     H_    0.753346 0.988409 0.615019 0.257788
H8    H     H_    0.684497 0.926755 0.626893 0.238122
H9    H     H_    0.724283 0.832746 0.594580 0.274511
H10   H     H_    0.797557 0.860167 0.615785 0.276900
H11   H     H_    0.794243 0.894265 0.582939 0.268730
H12   H     H_    0.983993 0.695380 0.429327 0.169461
H13   H     H_    0.390435 0.702699 0.672634 0.158823
H14   H     H_    0.925820 0.625313 0.417377 0.131993
H15   H     H_    0.988403 0.753347 0.384980 0.257789
H16   H     H_    0.926751 0.684496 0.373107 0.238120
H17   H     H_    0.832743 0.724282 0.405419 0.274510
H18   H     H_    0.860162 0.797555 0.384214 0.276894
H19   H     H_    0.894261 0.794245 0.417059 0.268744
H20   H     H_    0.924180 0.667581 0.567740 0.163422
H21   H     H_    0.004451 0.649300 0.586191 0.130325
H22   H     H_    0.866306 0.727147 0.606842 0.248798
H23   H     H_    0.949170 0.711748 0.624841 0.252821
H24   H     H_    0.615527 0.293166 0.328995 0.160713
H25   H     H_    0.018370 0.787219 0.592558 0.277492
H26   H     H_    0.944934 0.837579 0.607415 0.275379
H27   H     H_    0.934686 0.803351 0.574773 0.267307
H28   H     H_    0.332603 0.075554 0.432313 0.163269
H29   H     H_    0.350662 0.995446 0.413741 0.130320
H30   H     H_    0.272785 0.133881 0.393357 0.248631
H31   H     H_    0.288037 0.051234 0.375215 0.252974
H32   H     H_    0.212741 0.981663 0.407448 0.277499
H33   H     H_    0.162317 0.055308 0.392752 0.275353
H34   H     H_    0.196764 0.065129 0.425382 0.267311
H35   H     H_    0.700089 0.606779 0.673772 0.165188
H36   H     H_    0.304633 0.015991 0.570670 0.169459
H37   H     H_    0.374698 0.074167 0.582619 0.131997
H38   H     H_    0.246663 0.011590 0.615017 0.257786
H39   H     H_    0.315514 0.073242 0.626889 0.238122
H40   H     H_    0.275733 0.167247 0.594575 0.274511
H41   H     H_    0.202459 0.139834 0.615780 0.276893
H42   H     H_    0.205769 0.105729 0.582936 0.268743
H43   H     H_    0.423682 0.832392 0.932217 0.163590
H44   H     H_    0.504176 0.850839 0.913915 0.130324
H45   H     H_    0.366307 0.773132 0.892953 0.248977
H46   H     H_    0.294263 0.385032 0.328572 0.156180
H47   H     H_    0.449439 0.788622 0.875120 0.252616
H48   H     H_    0.518145 0.712928 0.907473 0.277487
H49   H     H_    0.444928 0.662685 0.892428 0.275419
H50   H     H_    0.434187 0.696687 0.925081 0.267302
H51   H     H_    0.483825 0.804758 0.070636 0.169407
H52   H     H_    0.425679 0.874749 0.082659 0.131939
H53   H     H_    0.488372 0.746539 0.114940 0.257739
H54   H     H_    0.426743 0.815313 0.126885 0.238223
H55   H     H_    0.332639 0.775685 0.094589 0.274526
H56   H     H_    0.360165 0.702265 0.115713 0.277041
H57   H     H_    0.609574 0.297298 0.672632 0.158823
H58   H     H_    0.394143 0.705833 0.082856 0.268452
H59   H     H_    0.195338 0.516166 0.929333 0.169455
H60   H     H_    0.125241 0.574285 0.917372 0.131972
H61   H     H_    0.253344 0.511773 0.884993 0.257781
H62   H     H_    0.184459 0.573369 0.873108 0.238127
H63   H     H_    0.224153 0.667429 0.905414 0.274513
H64   H     H_    0.297467 0.640043 0.884221 0.276928
H65   H     H_    0.294145 0.605967 0.917070 0.268695
H66   H     H_    0.168398 0.577654 0.068038 0.164307
H67   H     H_    0.148916 0.496372 0.085737 0.130296
H68   H     H_    0.384471 0.706834 0.328995 0.160715
H69   H     H_    0.226445 0.632796 0.107984 0.249791
H70   H     H_    0.210293 0.548626 0.125114 0.251783
H71   H     H_    0.286815 0.481759 0.092519 0.277445
H72   H     H_    0.336730 0.553915 0.108338 0.275531
H73   H     H_    0.303767 0.566763 0.075647 0.267299
H74   H     H_    0.576873 0.168074 0.932089 0.163922
H75   H     H_    0.496021 0.149110 0.914063 0.130334
H76   H     H_    0.633201 0.226787 0.892504 0.249350
H77   H     H_    0.549588 0.210957 0.874996 0.252255
H78   H     H_    0.481710 0.287014 0.907462 0.277474
H79   H     H_    0.799956 0.106723 0.826210 0.165240
H80   H     H_    0.554425 0.337130 0.892057 0.275483
H81   H     H_    0.566153 0.303616 0.924731 0.267299
H82   H     H_    0.516202 0.195265 0.070643 0.169414
H83   H     H_    0.574342 0.125261 0.082662 0.131943
H84   H     H_    0.511658 0.253456 0.114953 0.257744
H85   H     H_    0.573280 0.184668 0.126892 0.238213
H86   H     H_    0.667389 0.224307 0.094599 0.274525
H87   H     H_    0.639871 0.297714 0.115731 0.277033
H88   H     H_    0.605893 0.294175 0.082873 0.268467
H89   H     H_    0.804681 0.483838 0.929342 0.169436
H90   H     H_    0.205656 0.885094 0.171448 0.156196
H91   H     H_    0.874729 0.425702 0.917354 0.131952
H92   H     H_    0.746591 0.488309 0.885016 0.257767
H93   H     H_    0.815424 0.426692 0.873106 0.238167
H94   H     H_    0.775742 0.332613 0.905405 0.274517
H95   H     H_    0.702388 0.360071 0.884242 0.276977
H96   H     H_    0.705817 0.394101 0.917094 0.268583
H97   H     H_    0.831645 0.422421 0.068024 0.164267
H98   H     H_    0.851084 0.503666 0.085752 0.130306
H99   H     H_    0.773531 0.367176 0.107936 0.249743
H100  H     H_    0.789669 0.451287 0.125104 0.251829
H101  H     H_    0.890408 0.797270 0.827374 0.158821
H102  H     H_    0.713197 0.518270 0.092525 0.277446
H103  H     H_    0.663255 0.446062 0.108302 0.275531
H104  H     H_    0.696264 0.433327 0.075611 0.267294
H105  H     H_    0.912240 0.395642 0.337708 0.351091
H106  H     H_    0.112168 0.432007 0.666506 0.343019
H107  H     H_    0.568010 0.887836 0.333493 0.343025
H108  H     H_    0.604355 0.087763 0.662293 0.351085
H109  H     H_    0.087761 0.604358 0.337707 0.351089
H110  H     H_    0.887827 0.567987 0.666508 0.343022
H111  H     H_    0.431967 0.112148 0.333497 0.343015
H112  H     H_    0.706868 0.384442 0.670996 0.160724
H113  H     H_    0.115625 0.206913 0.170978 0.160790
H114  H     H_    0.395646 0.912236 0.662293 0.351086
H115  H     H_    0.387757 0.932177 0.833485 0.342991
H116  H     H_    0.587686 0.895563 0.162283 0.351101
H117  H     H_    0.104415 0.412296 0.837715 0.351114
H118  H     H_    0.067568 0.612375 0.166537 0.342993
H119  H     H_    0.612287 0.067763 0.833472 0.343014
H120  H     H_    0.412314 0.104435 0.162282 0.351098
H121  H     H_    0.895583 0.587708 0.837714 0.351095
H122  H     H_    0.932426 0.387630 0.166535 0.342990
H123  H     H_    0.200049 0.893264 0.826214 0.165221
H124  H     H_    0.794343 0.114909 0.171447 0.156196
H125  H     H_    0.109547 0.202688 0.827360 0.158813
H126  H     H_    0.884379 0.793090 0.170979 0.160790
H127  H     H_    0.797258 0.890403 0.172623 0.158826
H128  H     H_    0.206863 0.115570 0.829006 0.160746
H129  H     H_    0.893321 0.199994 0.173805 0.165285
H130  H     H_    0.114930 0.794314 0.828560 0.156181
H131  H     H_    0.202748 0.109602 0.172622 0.158826
H132  H     H_    0.393199 0.299895 0.326234 0.165178
H133  H     H_    0.793103 0.884401 0.829015 0.160758
H134  H     H_    0.106677 0.800009 0.173806 0.165286
H135  H     H_    0.885052 0.205692 0.828564 0.156184
H136  H     H_    0.677988 0.952883 0.023340 0.193396
H137  H     H_    0.322870 0.050168 0.976115 0.193584
H138  H     H_    0.949823 0.677151 0.023885 0.193583
H139  H     H_    0.047151 0.322030 0.976661 0.193394
H140  H     H_    0.322045 0.047151 0.023340 0.193399
H141  H     H_    0.677172 0.949891 0.976115 0.193581
H142  H     H_    0.050172 0.322856 0.023885 0.193584
H143  H     H_    0.614956 0.705717 0.671432 0.156184
H144  H     H_    0.952832 0.677973 0.976660 0.193393
H145  H     H_    0.177204 0.549955 0.523883 0.193576
H146  H     H_    0.821976 0.453055 0.476659 0.193389
H147  H     H_    0.546943 0.178021 0.523341 0.193389
H148  H     H_    0.450080 0.822779 0.476116 0.193576
H149  H     H_    0.822791 0.450057 0.523884 0.193576
H150  H     H_    0.178019 0.546957 0.476658 0.193389
H151  H     H_    0.453074 0.821965 0.523341 0.193389
H152  H     H_    0.549943 0.177205 0.476116 0.193576
H153  H     H_    0.048632 0.714894 0.196042 0.326514
H154  H     H_    0.702669 0.390461 0.327357 0.158819
H155  H     H_    0.928250 0.307700 0.811592 0.317180
H156  H     H_    0.295325 0.056926 0.192744 0.318412
H157  H     H_    0.689729 0.925613 0.812294 0.318163
H158  H     H_    0.951366 0.285111 0.196040 0.326510
H159  H     H_    0.071713 0.692323 0.811582 0.317195
H160  H     H_    0.704680 0.943077 0.192745 0.318415
H161  H     H_    0.310253 0.074376 0.812292 0.318156
H162  H     H_    0.056866 0.295256 0.807235 0.318460
H163  H     H_    0.925590 0.689713 0.187699 0.318171
H164  H     H_    0.285211 0.951285 0.803994 0.326413
H165  H     H_    0.293137 0.615560 0.670996 0.160721
H166  H     H_    0.692323 0.071726 0.188413 0.317201
H167  H     H_    0.943070 0.704677 0.807257 0.318410
H168  H     H_    0.074411 0.310287 0.187700 0.318170
H169  H     H_    0.714826 0.048684 0.803981 0.326441
H170  H     H_    0.307676 0.928277 0.188414 0.317202
H171  H     H_    0.556931 0.204682 0.692742 0.318406
H172  H     H_    0.425663 0.810227 0.312280 0.318145
H173  H     H_    0.785266 0.548764 0.695986 0.326353
H174  H     H_    0.192297 0.428274 0.311584 0.317186
H175  H     H_    0.443083 0.795308 0.692747 0.318417
H176  H     H_    0.606792 0.700097 0.326231 0.165182
H177  H     H_    0.574331 0.189776 0.312279 0.318141
H178  H     H_    0.214737 0.451239 0.695987 0.326355
H179  H     H_    0.807700 0.571726 0.311584 0.317187
H180  H     H_    0.548775 0.785271 0.304017 0.326339
H181  H     H_    0.428298 0.192325 0.688422 0.317194
H182  H     H_    0.795296 0.443094 0.307250 0.318428
H183  H     H_    0.189760 0.574350 0.687716 0.318144
H184  H     H_    0.451213 0.214715 0.304022 0.326331
H185  H     H_    0.571718 0.807689 0.688418 0.317191
H186  H     H_    0.204705 0.556903 0.307249 0.318429
H187  H     H_    0.385074 0.294307 0.671439 0.156183
H188  H     H_    0.810242 0.425654 0.687717 0.318144
H189  H     H_    0.016005 0.304620 0.429326 0.169465
H190  H     H_    0.074172 0.374701 0.417383 0.132000
H191  H     H_    0.011620 0.246672 0.384976 0.257790
H192  H     H_    0.073264 0.315539 0.373109 0.238111
H193  H     H_    0.167268 0.275756 0.405424 0.274509
H194  H     H_    0.139872 0.202490 0.384211 0.276880
H195  H     H_    0.105760 0.205774 0.417055 0.268777
H196  H     H_    0.075749 0.332485 0.567723 0.163378
H197  H     H_    0.995525 0.350696 0.586209 0.130325
H198  H     H_    0.299937 0.393242 0.673779 0.165178
H199  H     H_    0.133758 0.272842 0.606779 0.248749
H200  H     H_    0.050959 0.288195 0.624822 0.252866
H201  H     H_    0.981649 0.212777 0.592553 0.277494
H202  H     H_    0.055149 0.162397 0.607362 0.275369
H203  H     H_    0.065268 0.196693 0.574723 0.267309
H204  H     H_    0.667557 0.924263 0.432270 0.163374
H205  H     H_    0.649324 0.004491 0.413787 0.130314
H206  H     H_    0.727188 0.866268 0.393204 0.248744
H207  H     H_    0.711822 0.949077 0.375168 0.252861
H208  H     H_    0.787246 0.018380 0.407436 0.277490
N1    N     N_R   0.500012 0.000007 0.067643 -0.320152
N2    N     N_R   0.500024 0.000041 0.931829 -0.319992
N3    N     N_R   0.000003 0.500006 0.068171 -0.320056
N4    N     N_R   0.999988 0.500000 0.932357 -0.320170
N5    N     N_R   0.999998 0.500006 0.568169 -0.319951
N6    N     N_R   0.999997 0.500005 0.432356 -0.320166
N7    N     N_R   0.500006 0.999994 0.567644 -0.320164
N8    N     N_R   0.500014 0.999992 0.431831 -0.319943
O1    O     O_3   1.000000 0.500000 0.250000 -0.516415
O2    O     O_R   0.060810 0.500000 0.807590 -0.607268
O3    O     O_3   0.811027 0.402908 0.705193 -0.789583
O4    O     O_3   0.965186 0.372539 0.403550 -0.559313
O5    O     O_3   0.093141 0.406565 0.596776 -0.564187
O6    O     O_3   0.593466 0.906868 0.403221 -0.564197
O7    O     O_3   0.627466 0.034814 0.596451 -0.559313
O8    O     O_3   0.034813 0.627468 0.403549 -0.559311
O9    O     O_3   0.906851 0.593440 0.596778 -0.564179
O10   O     O_3   0.406544 0.093107 0.403226 -0.564218
O11   O     O_3   0.372543 0.965176 0.596450 -0.559314
O12   O     O_3   0.406710 0.906757 0.903227 -0.564111
O13   O     O_R   0.500000 0.939190 0.192410 -0.607253
O14   O     O_3   0.534718 0.872513 0.096447 -0.559306
O15   O     O_3   0.127482 0.465285 0.903552 -0.559296
O16   O     O_3   0.093093 0.593514 0.096785 -0.563896
O17   O     O_3   0.593365 0.093276 0.903212 -0.564039
O18   O     O_3   0.465303 0.127496 0.096449 -0.559307
O19   O     O_3   0.872502 0.534721 0.903549 -0.559292
O20   O     O_3   0.906905 0.406504 0.096783 -0.563905
O21   O     O_3   0.945575 0.377862 0.351449 -0.697263
O22   O     O_3   0.100998 0.411755 0.649177 -0.722807
O23   O     O_3   0.588271 0.899017 0.350820 -0.722808
O24   O     O_R   0.500000 0.060810 0.807590 -0.613058
O25   O     O_3   0.622137 0.054426 0.648552 -0.697265
O26   O     O_3   0.054424 0.622140 0.351448 -0.697264
O27   O     O_3   0.898995 0.588241 0.649179 -0.722829
O28   O     O_3   0.411717 0.100963 0.350826 -0.722767
O29   O     O_3   0.377865 0.945571 0.648552 -0.697268
O30   O     O_3   0.398837 0.911960 0.850827 -0.722959
O31   O     O_3   0.554310 0.877811 0.148550 -0.697269
O32   O     O_3   0.122173 0.445661 0.851451 -0.697245
O33   O     O_3   0.087784 0.601402 0.149186 -0.723240
O34   O     O_3   0.601219 0.088010 0.850811 -0.723056
O35   O     O_R   0.560810 0.000000 0.692410 -0.607258
O36   O     O_3   0.445693 0.122190 0.148551 -0.697265
O37   O     O_3   0.877821 0.554340 0.851448 -0.697249
O38   O     O_3   0.912212 0.398607 0.149184 -0.723229
O39   O     O_R   0.439190 0.000000 0.307590 -0.612948
O40   O     O_R   1.000000 0.560810 0.692410 -0.612970
O41   O     O_R   0.000000 0.439190 0.307590 -0.607262
O42   O     O_R   0.439190 0.000000 0.692410 -0.607262
O43   O     O_R   0.560810 0.000000 0.307590 -0.612962
O44   O     O_R   1.000000 0.439190 0.692410 -0.612967
O45   O     O_3   1.000000 0.500000 0.750000 -0.516460
O46   O     O_R   1.000000 0.560810 0.307590 -0.607260
O47   O     O_R   0.853910 0.585600 0.235240 -0.607740
O48   O     O_R   0.146090 0.414400 0.764760 -0.610757
O49   O     O_R   0.414400 0.853910 0.235240 -0.605719
O50   O     O_R   0.585600 0.146090 0.764760 -0.619777
O51   O     O_R   0.146090 0.414400 0.235240 -0.607742
O52   O     O_R   0.853910 0.585600 0.764760 -0.610730
O53   O     O_R   0.585600 0.146090 0.235240 -0.605716
O54   O     O_R   0.414400 0.853910 0.764760 -0.619745
O55   O     O_R   0.853910 0.414400 0.764760 -0.605704
O56   O     O_3   0.500000 0.000000 0.250000 -0.516464
O57   O     O_R   0.146090 0.585600 0.235240 -0.619816
O58   O     O_R   0.414400 0.146090 0.764760 -0.607736
O59   O     O_R   0.585600 0.853910 0.235240 -0.610750
O60   O     O_R   0.146090 0.585600 0.764760 -0.605735
O61   O     O_R   0.853910 0.414400 0.235240 -0.619815
O62   O     O_R   0.585600 0.853910 0.764760 -0.607725
O63   O     O_R   0.414400 0.146090 0.235240 -0.610752
O64   O     O_R   0.353910 0.085600 0.735240 -0.605755
O65   O     O_R   0.646090 0.914400 0.264760 -0.619696
O66   O     O_R   0.914400 0.353910 0.735240 -0.607764
O67   O     O_3   0.500000 0.000000 0.750000 -0.516441
O68   O     O_R   0.085600 0.646090 0.264760 -0.610658
O69   O     O_R   0.646090 0.914400 0.735240 -0.605745
O70   O     O_R   0.353910 0.085600 0.264760 -0.619690
O71   O     O_R   0.085600 0.646090 0.735240 -0.607749
O72   O     O_R   0.914400 0.353910 0.264760 -0.610658
O73   O     O_R   0.353910 0.914400 0.264760 -0.607761
O74   O     O_R   0.646090 0.085600 0.735240 -0.610673
O75   O     O_R   0.914400 0.646090 0.264760 -0.605734
O76   O     O_R   0.085600 0.353910 0.735240 -0.619691
O77   O     O_R   0.646090 0.085600 0.264760 -0.607770
O78   O     O_R   0.060810 0.500000 0.192410 -0.613133
O79   O     O_R   0.353910 0.914400 0.735240 -0.610703
O80   O     O_R   0.085600 0.353910 0.264760 -0.605734
O81   O     O_R   0.914400 0.646090 0.735240 -0.619706
O82   O     O_2   0.374396 0.026554 0.067770 -0.536014
O83   O     O_2   0.621680 0.959094 0.931667 -0.534694
O84   O     O_2   0.041008 0.378365 0.068332 -0.534550
O85   O     O_2   0.973433 0.625618 0.932229 -0.535998
O86   O     O_2   0.625629 0.973458 0.067771 -0.536010
O87   O     O_2   0.378367 0.040981 0.931668 -0.534713
O88   O     O_2   0.958998 0.621647 0.068332 -0.534546
O89   O     O_R   0.939190 0.500000 0.807590 -0.607247
O90   O     O_2   0.026543 0.374381 0.932230 -0.536001
O91   O     O_2   0.878293 0.459207 0.568333 -0.534795
O92   O     O_2   0.125638 0.526441 0.432228 -0.536026
O93   O     O_2   0.473579 0.874350 0.567772 -0.536029
O94   O     O_2   0.540796 0.121703 0.431668 -0.534817
O95   O     O_2   0.121703 0.540804 0.568332 -0.534797
O96   O     O_2   0.874357 0.473569 0.432228 -0.536027
O97   O     O_2   0.526432 0.125638 0.567772 -0.536029
O98   O     O_2   0.459230 0.878281 0.431668 -0.534809
O99   O     O_3   0.080907 0.705549 0.211095 -0.795420
O100  O     O_R   0.500000 0.060810 0.192410 -0.607250
O101  O     O_3   0.903535 0.310306 0.794486 -0.785457
O102  O     O_3   0.300039 0.085407 0.209017 -0.795889
O103  O     O_3   0.688948 0.902874 0.794817 -0.789620
O104  O     O_3   0.919091 0.294453 0.211094 -0.795418
O105  O     O_3   0.096436 0.689714 0.794478 -0.785442
O106  O     O_3   0.699964 0.914596 0.209018 -0.795891
O107  O     O_3   0.311044 0.097122 0.794816 -0.789617
O108  O     O_3   0.085378 0.300005 0.790970 -0.795905
O109  O     O_3   0.902855 0.688935 0.205177 -0.789655
O110  O     O_3   0.294515 0.919040 0.788929 -0.795431
O111  O     O_R   0.500000 0.939190 0.807590 -0.613018
O112  O     O_3   0.689704 0.096453 0.205516 -0.785439
O113  O     O_3   0.914591 0.699962 0.790983 -0.795882
O114  O     O_3   0.097145 0.311065 0.205178 -0.789655
O115  O     O_3   0.705509 0.080939 0.788920 -0.795423
O116  O     O_3   0.310296 0.903548 0.205517 -0.785437
O117  O     O_3   0.585411 0.199962 0.709016 -0.795880
O118  O     O_3   0.402914 0.811017 0.294805 -0.789580
O119  O     O_3   0.794548 0.580991 0.711058 -0.795425
O120  O     O_3   0.189704 0.403562 0.294478 -0.785441
O121  O     O_3   0.414598 0.800031 0.709019 -0.795880
O122  O     O_R   0.939190 0.500000 0.192410 -0.613125
O123  O     O_3   0.597082 0.188986 0.294803 -0.789578
O124  O     O_3   0.205455 0.419013 0.711058 -0.795432
O125  O     O_3   0.810295 0.596440 0.294478 -0.785441
O126  O     O_3   0.580997 0.794551 0.288944 -0.795426
O127  O     O_3   0.403578 0.189722 0.705526 -0.785443
O128  O     O_3   0.800024 0.414605 0.290979 -0.795885
O129  O     O_3   0.188972 0.597098 0.705191 -0.789589
O130  O     O_3   0.418995 0.205441 0.288948 -0.795427
O131  O     O_3   0.596435 0.810288 0.705523 -0.785445
O132  O     O_3   0.199977 0.585392 0.290978 -0.795883
Zn1   Zn    Zn3+2 1.000000 0.586890 0.272200 1.088050
Zn2   Zn    Zn3+2 0.500000 0.913110 0.227800 1.088026
Zn3   Zn    Zn3+2 0.913110 0.500000 0.772200 1.088039
Zn4   Zn    Zn3+2 0.086890 0.500000 0.227800 1.081069
Zn5   Zn    Zn3+2 0.500000 0.913110 0.772200 1.081199
Zn6   Zn    Zn3+2 0.500000 0.086890 0.227800 1.088028
Zn7   Zn    Zn3+2 0.086890 0.500000 0.772200 1.088018
Zn8   Zn    Zn3+2 0.913110 0.500000 0.227800 1.081073
Zn9   Zn    Zn3+2 1.000000 0.413110 0.727800 1.081242
Zn10  Zn    Zn3+2 0.413110 0.000000 0.272200 1.081262
Zn11  Zn    Zn3+2 0.586890 0.000000 0.727800 1.088040
Zn12  Zn    Zn3+2 0.000000 0.413110 0.272200 1.088049
Zn13  Zn    Zn3+2 0.000000 0.586890 0.727800 1.081242
Zn14  Zn    Zn3+2 0.586890 0.000000 0.272200 1.081242
Zn15  Zn    Zn3+2 0.413110 0.000000 0.727800 1.088027
Zn16  Zn    Zn3+2 0.500000 0.086890 0.772200 1.081151

loop_
_geom_bond_atom_site_label_1
_geom_bond_atom_site_label_2
_ccdc_geom_bond_type
C3    O112  S    
C73   C282  A    
C280  O102  S    
C117  O84   S    
C132  C150  A    
C185  O12   S    
C133  C151  A    
H159  O105  S    
C120  N2    A    
O69   Zn11  S    
C71   C284  A    
C227  O23   S    
C125  O92   S    
C223  O111  A    
C162  C163  S    
C63   C98   A    
O75   Zn1   S    
C288  O110  S    
C141  C154  A    
C208  H98   S    
C28   C40   A    
C128  O95   S    
C220  C255  A    
C139  C152  A    
C30   C282  A    
C217  C257  A    
C244  C245  S    
C30   C38   A    
C213  C252  A    
C120  C133  A    
C7    C42   A    
C121  N3    A    
C182  C183  S    
C209  H100  S    
H182  O128  S    
H155  O101  S    
C213  O9    S    
C206  H93   S    
C156  C158  A    
C66   C72   A    
C123  C145  A    
C238  C247  A    
C260  O47   A    
C25   C60   A    
H114  O29   S    
C147  C155  A    
C165  H205  S    
C121  O88   S    
C272  O65   A    
C69   C286  A    
C178  H28   S    
C199  C200  S    
C60   H112  S    
C214  C253  A    
C222  O19   S    
O56   Zn6   S    
C3    C65   A    
O54   Zn5   S    
C118  C140  A    
C214  C231  A    
O49   Zn2   S    
C194  H65   S    
C28   C280  A    
H166  O112  S    
C50   C53   A    
C182  H36   S    
C202  C203  S    
C51   C52   A    
C202  H82   S    
C165  H204  S    
C41   H79   S    
H173  O119  S    
H105  O21   S    
C206  C207  S    
C73   C108  A    
C129  C142  A    
C47   H46   S    
C167  H4    S    
C215  C254  A    
C31   C37   A    
C239  C248  A    
C184  H40   S    
C113  C146  A    
C195  H66   S    
O100  Zn6   S    
C183  C184  S    
C90   H146  S    
C181  H33   S    
C169  O7    S    
C175  C176  S    
O67   Zn15  S    
C175  H21   S    
C112  O89   A    
C160  H191  S    
O61   Zn8   S    
C94   C96   A    
C255  N2    S    
C122  C136  A    
C154  C155  A    
C87   C103  A    
C33   C285  A    
C216  C255  A    
C163  H199  S    
C197  H71   S    
O1    Zn12  S    
H121  O37   S    
C68   C140  A    
C188  O14   S    
C132  C278  A    
C196  H69   S    
O1    Zn4   S    
C263  O50   A    
C29   H133  S    
C168  C251  A    
C13   H138  S    
C96   C262  S    
C212  O100  A    
C274  O61   A    
O60   Zn7   S    
C174  H19   S    
C262  O73   A    
C204  H86   S    
C205  O19   S    
C196  C197  S    
C70   C105  A    
O51   Zn4   S    
C22   C58   A    
C95   C97   A    
C59   H1    S    
C138  C151  A    
C83   C91   A    
C4    O113  S    
C30   H129  S    
C113  C144  A    
C36   H126  S    
C32   H127  S    
C219  C237  A    
C179  C226  A    
C66   C288  A    
C31   H130  S    
C8    O117  S    
C35   C137  A    
C229  C242  A    
C100  C266  S    
C57   H142  S    
C273  O60   A    
O67   Zn11  S    
C232  C246  A    
C129  N6    A    
C69   C70   A    
C168  O4    S    
C229  O26   S    
C97   C263  S    
C195  C196  S    
C98   C264  S    
C116  O83   S    
C198  O17   S    
C193  C194  S    
C71   C106  A    
C210  H103  S    
C122  N4    A    
C184  H41   S    
C186  C187  S    
C120  O87   S    
H186  O132  S    
C18   O127  S    
C178  O10   S    
C187  H48   S    
C267  O46   A    
H157  O103  S    
C175  H20   S    
C101  H147  S    
C103  C260  S    
C16   C51   A    
C228  O25   S    
C212  C248  S    
C169  H6    S    
C217  C235  A    
C226  C243  A    
C61   C96   A    
C67   C103  A    
C112  C249  S    
C180  H30   S    
C23   C59   A    
C57   C139  A    
C221  C239  A    
C32   C36   A    
C268  O79   A    
C161  H194  S    
C224  C241  A    
C205  H89   S    
C170  C171  S    
C44   C59   A    
H170  O116  S    
C201  C254  A    
O42   Zn15  S    
C256  O44   A    
C42   H90   S    
H172  O118  S    
C39   H101  S    
H117  O32   S    
C21   O130  S    
C189  C191  S    
C26   H134  S    
C217  O14   S    
C192  H59   S    
C46   C278  A    
C164  H201  S    
C52   H176  S    
C64   C99   A    
C172  O8    S    
C115  C137  A    
C74   C281  A    
C61   C77   A    
C194  H63   S    
C190  C253  A    
C272  O59   A    
C112  O2    A    
C78   C111  A    
C191  H56   S    
C159  H190  S    
C149  C158  A    
H153  O99   S    
C187  H50   S    
C278  H136  S    
C24   C136  A    
C192  O15   S    
C124  H149  S    
O45   Zn13  S    
C273  O71   A    
C263  O74   A    
O71   Zn13  S    
C174  H17   S    
C204  H88   S    
C8    C95   A    
C275  O69   A    
O39   Zn10  S    
C107  C273  S    
C88   C104  A    
C171  H10   S    
C119  C132  A    
C5    O114  S    
C276  O70   A    
C188  H51   S    
C183  H39   S    
O50   Zn16  S    
C25   C78   A    
C266  O77   A    
O2    Zn7   S    
C113  H148  S    
C177  H25   S    
C48   H13   S    
C54   H154  S    
H162  O108  S    
C227  C244  A    
H181  O127  S    
C285  O107  S    
C233  C247  A    
O79   Zn15  S    
C186  H45   S    
C223  C247  S    
C199  H76   S    
O74   Zn11  S    
C27   H135  S    
C123  O91   S    
C251  N6    S    
C130  C143  A    
C245  O39   A    
C62   C97   A    
C37   H123  S    
C38   H124  S    
C130  N7    A    
C70   C285  A    
C10   C45   A    
C193  H61   S    
C209  C210  S    
C68   H144  S    
C12   C91   A    
C10   O119  S    
C259  N3    S    
C245  O43   A    
C43   H57   S    
C257  N1    S    
C17   O126  S    
C224  C259  A    
C145  C154  A    
C19   C54   A    
C29   C281  A    
O48   Zn7   S    
C159  O4    S    
C135  C147  A    
C121  C134  A    
O45   Zn9   S    
C237  C250  A    
C197  H72   S    
C186  H47   S    
C286  O108  S    
C235  C248  A    
C223  O24   A    
C170  H7    S    
C26   C42   A    
C165  O6    S    
C198  H74   S    
C271  O58   A    
O78   Zn4   S    
O77   Zn14  S    
C24   H139  S    
C75   C110  A    
C221  O18   S    
O59   Zn2   S    
O122  Zn8   S    
C172  H14   S    
C262  O49   A    
C203  H85   S    
C19   O128  S    
O55   Zn3   S    
C205  H91   S    
C237  O33   S    
C115  O82   S    
C1    O78   A    
C75   C280  A    
H177  O123  S    
C231  C244  A    
O40   Zn13  S    
C159  H189  S    
C16   O125  S    
C127  C149  A    
C164  H203  S    
C218  O15   S    
C125  N6    A    
C79   C141  A    
C265  O81   A    
C76   C111  A    
C220  O17   S    
H110  O27   S    
O65   Zn14  S    
C161  H193  S    
C282  O104  S    
C137  C150  A    
C209  H99   S    
C213  C230  A    
C204  H87   S    
C187  H49   S    
C240  C249  A    
C152  C153  A    
C268  O54   A    
C1    O122  A    
C173  H16   S    
C252  N5    S    
C150  C151  A    
C269  O66   A    
C201  O7    S    
C9    C94   A    
C279  O101  S    
C47   C56   A    
O45   Zn3   S    
C13   C68   A    
C232  O29   S    
C48   C55   A    
O52   Zn3   S    
C216  C233  A    
C11   C47   A    
C177  H27   S    
C8    C43   A    
C12   C48   A    
C220  C238  A    
O44   Zn9   S    
C185  H43   S    
C266  O53   A    
C122  O90   S    
C117  C139  A    
C119  N1    A    
C225  O21   S    
C182  H37   S    
C238  O34   S    
C202  H83   S    
C117  N3    A    
C275  O62   A    
C167  H208  S    
C108  C274  S    
H106  O22   S    
O58   Zn16  S    
C85   C88   A    
C189  H54   S    
C167  H3    S    
C118  O85   S    
C82   C92   A    
C5    C63   A    
H180  O126  S    
C13   C134  A    
O57   Zn4   S    
C178  H29   S    
C174  H18   S    
C7    C61   A    
C265  O52   A    
C18   C53   A    
C236  O32   S    
C196  H70   S    
C208  C209  S    
H156  O102  S    
O13   Zn2   S    
C176  H23   S    
C207  H96   S    
C126  O93   S    
H158  O104  S    
C23   C80   A    
C166  H206  S    
C49   H24   S    
C270  O68   A    
C128  C141  A    
C93   C99   A    
O73   Zn10  S    
C140  C153  A    
C271  O64   A    
C195  O16   S    
C11   O120  S    
C101  C157  A    
O53   Zn6   S    
O89   Zn3   S    
C25   O3    S    
C62   C76   A    
H109  O26   S    
C74   C109  A    
C114  C270  S    
H164  O110  S    
C146  C148  A    
C234  O42   A    
O66   Zn9   S    
C45   C58   A    
C46   H141  S    
C2    C133  A    
H169  O115  S    
C131  N8    A    
C89   C100  A    
C92   C98   A    
C17   C86   A    
C18   C85   A    
C22   C81   A    
C125  C147  A    
H119  O34   S    
O64   Zn15  S    
C126  C148  A    
C86   C87   A    
C208  H97   S    
C2    H137  S    
C10   C93   A    
C205  C206  S    
H107  O23   S    
C243  C256  S    
C161  H195  S    
C218  C258  A    
H108  O25   S    
C14   C89   A    
C206  H92   S    
C159  C160  S    
C264  O51   A    
C195  H67   S    
C78   C95   A    
C86   C106  A    
C127  O94   S    
C134  C152  A    
H160  O106  S    
C72   C283  A    
O1    Zn1   S    
C182  O11   S    
O111  Zn5   S    
C90   C142  A    
C40   H113  S    
C276  O63   A    
C128  N5    A    
C287  O109  S    
C136  C153  A    
C175  O9    S    
C210  H104  S    
H111  O28   S    
C211  C251  A    
C200  H78   S    
C184  H42   S    
C104  C261  S    
C111  C269  S    
C80   C94   A    
C77   C114  A    
C82   C110  A    
C180  C181  S    
H161  O107  S    
H184  O130  S    
C12   O121  S    
C215  O11   S    
H183  O129  S    
O67   Zn5   S    
C253  N8    S    
C171  H11   S    
C211  C229  A    
C76   C279  A    
C115  N1    A    
C90   C124  A    
C241  C250  A    
C65   C100  A    
C169  H5    S    
H188  O3    S    
C21   C56   A    
C178  C180  S    
C23   O132  S    
C127  N8    A    
C157  H152  S    
C241  O38   S    
C79   C135  A    
C4    C64   A    
C135  H150  S    
C33   H128  S    
O56   Zn14  S    
C6    C62   A    
C225  C242  A    
C218  C236  A    
C119  O86   S    
C234  C246  S    
C181  H34   S    
O41   Zn12  S    
O70   Zn10  S    
C185  C186  S    
O81   Zn13  S    
O67   Zn16  S    
C261  O76   A    
C222  C240  A    
C84   C108  A    
C207  H94   S    
C118  N4    A    
C179  O5    S    
C67   C71   A    
H167  O113  S    
C116  N2    A    
C264  O80   A    
C192  H60   S    
C164  H202  S    
C183  H38   S    
C228  C246  A    
C194  H64   S    
C163  H200  S    
O47   Zn8   S    
C5    C40   A    
C123  N5    A    
C64   C74   A    
C7    O116  S    
C148  C156  A    
C36   C287  A    
C191  H55   S    
C32   C284  A    
C258  N4    S    
C26   C277  A    
C131  C144  A    
C14   O123  S    
C105  C271  S    
C201  C228  A    
C203  C204  S    
O72   Zn12  S    
C106  C272  S    
C165  C166  S    
C35   H140  S    
C169  C170  S    
C66   C102  A    
C31   C283  A    
C163  C164  S    
C17   C52   A    
C236  C249  A    
H179  O125  S    
C129  O96   S    
C171  H9    S    
H178  O124  S    
C22   O131  S    
C173  C174  S    
C188  H52   S    
C63   C75   A    
C55   H165  S    
C199  H77   S    
C191  H58   S    
O56   Zn10  S    
O76   Zn9   S    
C160  H192  S    
C281  O103  S    
C131  O98   S    
O43   Zn14  S    
C172  H12   S    
O80   Zn12  S    
C14   C49   A    
C216  O12   S    
C77   C277  A    
C49   C54   A    
C34   C286  A    
C65   C73   A    
C277  O99   S    
C15   C50   A    
C284  O106  S    
C260  O75   A    
C283  O105  S    
H174  O120  S    
C203  H84   S    
C126  N7    A    
C215  C232  A    
C219  O16   S    
C3    C38   A    
C179  C252  A    
C6    C41   A    
C210  H102  S    
C67   C287  A    
C6    O115  S    
C200  H80   S    
C198  C199  S    
C230  C243  A    
C142  C155  A    
C190  O6    S    
C56   H132  S    
H168  O114  S    
C46   C138  A    
C235  O31   S    
C102  C268  S    
C226  O22   S    
C176  H22   S    
C202  O18   S    
C274  O72   A    
O24   Zn16  S    
C20   C55   A    
C85   C105  A    
C11   C92   A    
C37   C288  A    
C170  H8    S    
C231  O28   S    
C50   H198  S    
C116  C138  A    
C198  H75   S    
C181  H32   S    
C162  H197  S    
O1    Zn8   S    
C190  C227  A    
C34   H125  S    
C51   H2    S    
C234  O35   A    
C261  O48   A    
C168  C225  A    
C2    C35   A    
C1    C250  S    
C24   C57   A    
C27   C279  A    
C254  N7    S    
O45   Zn7   S    
C28   H131  S    
C188  C189  S    
H118  O33   S    
C53   H187  S    
C224  O20   S    
C230  O27   S    
C130  O97   S    
C81   C93   A    
C27   C41   A    
C162  H196  S    
C58   H143  S    
C72   C107  A    
C211  O8    S    
O63   Zn6   S    
C29   C39   A    
C33   C34   A    
C20   O129  S    
C242  C267  S    
C21   C82   A    
C233  O30   S    
C222  C258  A    
C43   C60   A    
C110  C276  S    
C146  H151  S    
C176  C177  S    
C80   C114  A    
C173  H15   S    
C166  C167  S    
H171  O117  S    
C270  O57   A    
C219  C259  A    
C84   C89   A    
C91   C102  A    
C144  C158  A    
C19   C84   A    
C16   C87   A    
H115  O30   S    
C172  C173  S    
C256  O40   A    
C239  O36   S    
C69   C104  A    
C9    O118  S    
O62   Zn5   S    
C197  H73   S    
C99   C265  S    
C9    C44   A    
C207  H95   S    
H185  O131  S    
C44   H68   S    
C200  H81   S    
C177  H26   S    
C81   C109  A    
C45   H35   S    
C79   H145  S    
C124  C145  A    
C4    C39   A    
H116  O31   S    
C221  C257  A    
O35   Zn11  S    
C192  C193  S    
C185  H44   S    
C101  C143  A    
O68   Zn1   S    
C143  C156  A    
C189  H53   S    
C193  H62   S    
C83   C107  A    
H122  O38   S    
O46   Zn1   S    
H175  O121  S    
C160  C161  S    
C212  O13   A    
C240  O37   S    
O56   Zn2   S    
C267  O41   A    
H163  O109  S    
C20   C83   A    
C269  O55   A    
C214  O10   S    
C15   O124  S    
C15   C88   A    
C149  C157  A    
C166  H207  S    
C208  O20   S    
C162  O5    S    
H120  O36   S    
C109  C275  S    
C180  H31   S    
