data_mof_unit_62198.cif
_audit_creation_date              2013-03-05T16:27:28-0500
_audit_creation_method            fapswitch 2.2
_symmetry_space_group_name_H-M    P1
_symmetry_Int_Tables_number       1
_space_group_crystal_system       triclinic
_cell_length_a                    13.892671
_cell_length_b                    18.15049
_cell_length_c                    19.422689
_cell_angle_alpha                 90.654565
_cell_angle_beta                  90.036375
_cell_angle_gamma                 84.884328
_cell_volume                      4877.77443673

loop_
_atom_site_label
_atom_site_type_symbol
_atom_site_description
_atom_site_fract_x
_atom_site_fract_y
_atom_site_fract_z
_atom_type_partial_charge
O1    O     O_R   0.500040 0.438020 0.599820 -0.602243
O2    O     O_R   0.499960 0.561980 0.400180 -0.594578
O3    O     O_R   0.500000 0.561930 0.599810 -0.551361
O4    O     O_R   0.500000 0.438070 0.400190 -0.551382
C1    C     C_R   0.497616 0.500593 0.632432 0.857725
C2    C     C_R   0.502727 0.499317 0.367569 0.850694
O5    O     O_R   0.637870 0.429290 0.499990 -0.548040
O6    O     O_R   0.362130 0.570710 0.500010 -0.561659
O7    O     O_R   0.637830 0.553200 0.499980 -0.592578
O8    O     O_R   0.362170 0.446800 0.500020 -0.592561
C3    C     C_R   0.683199 0.488125 0.499920 0.835662
C4    C     C_R   0.316801 0.511876 0.500074 0.840826
Cu1   Cu    Cu3+1 0.500030 0.426640 0.500000 1.005102
Cu2   Cu    Cu3+1 0.499970 0.573360 0.500000 0.996991
C5    C     C_1   0.213716 0.519074 0.500352 -0.117723
C6    C     C_1   0.786284 0.480935 0.499640 -0.118844
C7    C     C_2   0.023348 0.530541 0.500901 -0.144221
C8    C     C_2   0.976652 0.469479 0.499086 -0.143693
C9    C     C_1   0.873077 0.475208 0.499377 0.046478
C10   C     C_1   0.126923 0.524808 0.500614 0.046329
C11   C     C_R   0.460739 0.556534 0.255555 -0.216031
C12   C     C_R   0.544161 0.444061 0.743911 -0.221586
H1    H     H_    0.424738 0.603785 0.282541 0.186084
H2    H     H_    0.582301 0.398025 0.716472 0.169960
C13   C     C_R   0.458149 0.554719 0.184102 -0.185154
C14   C     C_R   0.547250 0.445415 0.815370 -0.184144
C15   C     C_R   0.502809 0.494197 0.147531 -0.070492
C16   C     C_R   0.499775 0.504410 0.852494 -0.070850
C17   C     C_R   0.550747 0.434198 0.183125 0.264380
C18   C     C_R   0.448608 0.563358 0.817357 0.265265
C19   C     C_R   0.553468 0.436019 0.255705 0.237680
C20   C     C_R   0.445058 0.561802 0.744794 0.259651
C21   C     C_R   0.507081 0.497416 0.291965 -0.193848
C22   C     C_R   0.494276 0.502049 0.708044 -0.185170
C23   C     C_R   0.589464 0.492813 0.035355 -0.083943
C24   C     C_R   0.413299 0.504714 0.964763 -0.082414
C25   C     C_R   0.588670 0.495023 0.963688 -0.136327
C26   C     C_R   0.414097 0.502692 0.036414 -0.133598
C27   C     C_R   0.500577 0.501500 0.928096 0.139736
C28   C     C_R   0.502164 0.496405 0.071972 0.140412
C29   C     C_R   0.551268 0.275534 0.548364 0.104823
C30   C     C_R   0.438289 0.726283 0.541741 0.128839
C31   C     C_R   0.552742 0.198014 0.548283 -0.182012
C32   C     C_R   0.436956 0.803792 0.541592 -0.159517
C33   C     C_R   0.502324 0.161381 0.497327 0.155774
C34   C     C_R   0.498626 0.838484 0.497326 0.151603
C35   C     C_R   0.449387 0.204924 0.448500 -0.223131
C36   C     C_R   0.562112 0.793115 0.455339 -0.244666
C37   C     C_R   0.449195 0.282296 0.450729 0.141634
C38   C     C_R   0.561553 0.715839 0.457405 0.090766
N1    N     N_R   0.500010 0.316380 0.499980 -0.181746
N2    N     N_R   0.499990 0.683620 0.500020 -0.194193
C39   C     C_R   0.415439 0.046037 0.489918 -0.267284
C40   C     C_R   0.585984 0.953721 0.500616 -0.262242
C41   C     C_R   0.411495 0.968610 0.488483 0.355505
C42   C     C_R   0.590232 0.031088 0.499512 0.354522
C43   C     C_R   0.497907 0.921321 0.495254 -0.064061
C44   C     C_R   0.503503 0.078447 0.495420 -0.063368
H3    H     H_    0.015903 0.414951 0.497374 0.173958
H4    H     H_    0.984097 0.585069 0.502614 0.173407
H5    H     H_    0.409345 0.179234 0.408338 0.160917
H6    H     H_    0.610950 0.817298 0.420450 0.158275
H7    H     H_    0.408576 0.315128 0.412661 0.134469
H8    H     H_    0.610115 0.681556 0.424395 0.136748
H9    H     H_    0.348820 0.081569 0.485716 0.196826
H10   H     H_    0.652611 0.918184 0.504748 0.199056
N3    N     N_R   0.319771 0.939427 0.477274 0.124354
O9    O     O_R   0.313181 0.883028 0.436103 -0.326277
O10   O     O_R   0.240750 0.975287 0.500225 -0.312384
N4    N     N_R   0.683302 0.060018 0.499736 0.122853
O11   O     O_R   0.700046 0.114380 0.459613 -0.296700
O12   O     O_R   0.755317 0.025647 0.532585 -0.318256
H11   H     H_    0.421984 0.601191 0.157044 0.181570
H12   H     H_    0.585905 0.399693 0.841980 0.178033
N5    N     N_R   0.596833 0.371828 0.145891 0.141654
O13   O     O_R   0.685708 0.347671 0.159584 -0.273147
O14   O     O_R   0.550341 0.339244 0.097823 -0.315555
N6    N     N_R   0.400021 0.624354 0.855059 0.142428
O15   O     O_R   0.445605 0.658668 0.902467 -0.314623
O16   O     O_R   0.309683 0.645244 0.842715 -0.275800
N7    N     N_R   0.603481 0.375750 0.292130 0.160559
O17   O     O_R   0.580703 0.308454 0.282158 -0.276638
O18   O     O_R   0.673928 0.387765 0.333796 -0.324993
N8    N     N_R   0.390557 0.620266 0.708859 0.143786
O19   O     O_R   0.407249 0.688839 0.719770 -0.303749
O20   O     O_R   0.320771 0.605250 0.667741 -0.363232
H13   H     H_    0.657957 0.488641 0.062345 0.158797
H14   H     H_    0.344761 0.508697 0.937839 0.160315
H15   H     H_    0.656541 0.492542 0.935971 0.151863
H16   H     H_    0.346245 0.505286 0.064168 0.152416
H17   H     H_    0.591446 0.302994 0.587213 0.122077
H18   H     H_    0.389560 0.700262 0.575133 0.191339
H19   H     H_    0.593169 0.166888 0.587669 0.158838
H20   H     H_    0.387884 0.836406 0.575652 0.175033

loop_
_geom_bond_atom_site_label_1
_geom_bond_atom_site_label_2
_geom_bond_distance
_ccdc_geom_bond_type
C18   C20   1.410258 A    
C37   H7    1.081576 S    
C15   C17   1.412343 A    
C38   H8    1.081664 S    
N5    O13   1.301223 A    
N7    O17   1.301166 A    
C35   C37   1.404285 A    
C24   H14   1.083191 S    
O5    C3    1.287216 A    
O1    C1    1.291903 A    
C23   C25   1.393014 A    
N8    O20   1.301231 A    
N6    O16   1.301234 A    
C11   C21   1.399833 A    
C7    C10   1.433419 S    
C8    C9    1.433418 S    
C33   C35   1.406211 A    
O4    Cu1   1.952001 S    
C31   H19   1.082837 S    
Cu1   N1    2.001292 S    
C23   H13   1.083237 S    
Cu2   N2    2.001293 S    
C37   N1    1.363694 A    
C38   N2    1.363711 A    
C19   C21   1.416929 A    
N4    O11   1.301435 A    
C39   H9    1.083426 S    
C30   H18   1.080071 S    
O7    C3    1.288248 A    
C36   C38   1.404331 A    
Cu1   Cu2   2.662968 S    
C29   C31   1.405338 A    
O2    C2    1.293066 A    
C30   C32   1.405340 A    
C20   N8    1.435071 S    
N7    O18   1.301279 A    
C32   C34   1.406848 A    
C34   C36   1.406093 A    
C39   C41   1.411251 A    
C5    C10   1.200997 T    
C12   C22   1.399796 A    
C40   C42   1.411142 A    
C33   C44   1.503957 S    
N3    O9    1.301410 A    
N8    O19   1.301220 A    
O4    C2    1.289297 A    
N6    O15   1.301275 A    
C16   C27   1.469951 S    
N3    O10   1.301573 A    
C20   C22   1.415615 A    
O7    Cu2   1.917569 S    
N5    O14   1.301279 A    
C3    C6    1.426425 S    
C36   H6    1.082912 S    
C4    C5    1.426431 S    
C15   C28   1.468560 S    
O6    C4    1.287187 A    
C1    C22   1.469214 S    
C7    C8    1.333326 D    
C31   C33   1.406895 A    
O3    Cu2   1.951997 S    
O8    C4    1.288271 A    
C17   N5    1.437743 S    
C29   H17   1.081581 S    
C42   N4    1.438257 S    
C41   C43   1.419091 A    
C34   C43   1.503684 S    
C12   H2    1.083603 S    
O1    Cu1   1.947398 S    
C24   C26   1.392575 A    
C11   C13   1.388338 A    
O6    Cu2   1.919853 S    
C24   C27   1.402966 A    
O3    C1    1.290228 A    
O8    Cu1   1.917569 S    
C35   H5    1.082930 S    
C41   N3    1.438444 S    
C39   C44   1.407490 A    
C40   H10   1.083460 S    
C13   C15   1.399069 A    
C26   H16   1.083289 S    
C14   C16   1.399462 A    
C19   N7    1.435772 S    
C2    C21   1.469619 S    
C25   H15   1.083255 S    
C11   H1    1.083503 S    
C23   C28   1.402477 A    
C17   C19   1.410275 A    
C26   C28   1.400981 A    
C6    C9    1.200998 T    
C16   C18   1.412884 A    
C14   H12   1.083610 S    
C42   C44   1.419069 A    
C13   H11   1.083663 S    
O2    Cu2   1.947398 S    
C32   H20   1.082826 S    
C7    H4    1.086739 S    
C18   N6    1.437489 S    
C8    H3    1.086739 S    
O5    Cu1   1.919853 S    
C25   C27   1.401662 A    
C12   C14   1.388561 A    
N4    O12   1.301593 A    
C29   N1    1.364106 A    
C30   N2    1.363525 A    
C40   C43   1.407368 A    
