data_mof_unit_54659.cif
_audit_creation_date              2012-10-26T21:19:39-0400
_audit_creation_method            fapswitch 2.2
_symmetry_space_group_name_H-M    P1
_symmetry_Int_Tables_number       1
_space_group_crystal_system       triclinic
_cell_length_a                    10.828477
_cell_length_b                    15.084743
_cell_length_c                    13.826063
_cell_angle_alpha                 90.257966
_cell_angle_beta                  90.373891
_cell_angle_gamma                 89.822454
_cell_volume                      2258.33377916

loop_
_atom_site_label
_atom_site_type_symbol
_atom_type_description
_atom_site_fract_x
_atom_site_fract_y
_atom_site_fract_z
_atom_type_partial_charge
C1    C     C_R   0.500987 0.330003 0.499827 0.538800
C2    C     C_R   0.475454 0.814948 0.418425 -0.148220
C3    C     C_R   0.506494 0.233910 0.499578 0.002964
C4    C     C_R   0.508852 0.767079 0.501000 0.001412
C5    C     C_R   0.589644 0.190085 0.438693 -0.119916
C6    C     C_R   0.550980 0.811962 0.583889 -0.111181
C7    C     C_R   0.598667 0.097574 0.439933 0.006687
C8    C     C_R   0.558894 0.904522 0.585032 0.007158
C9    C     C_R   0.519677 0.049329 0.501225 0.044832
C10   C     C_R   0.520445 0.952151 0.502357 0.047232
C11   C     C_R   0.451650 0.569944 0.106397 -0.160724
C12   C     C_R   0.502129 0.670335 0.500250 0.544249
C13   C     C_R   0.415247 0.450397 0.892512 -0.163227
C14   C     C_R   0.451534 0.569502 0.208192 0.040984
C15   C     C_R   0.415667 0.451131 0.790737 0.036852
C16   C     C_R   0.262075 0.502337 0.499630 0.550364
C17   C     C_R   0.737754 0.497105 0.500308 0.543758
C18   C     C_R   0.550330 0.429818 0.210064 0.063585
C19   C     C_R   0.586361 0.548308 0.790646 0.073568
C20   C     C_R   0.551821 0.426708 0.107769 -0.018608
C21   C     C_R   0.590414 0.549263 0.893002 -0.019231
C22   C     C_R   0.501735 0.498263 0.054431 0.034378
C23   C     C_R   0.871507 0.494349 0.500433 -0.005182
C24   C     C_R   0.502628 0.499780 0.945381 0.035371
C25   C     C_R   0.197988 0.738621 0.295040 -0.129937
C26   C     C_R   0.745819 0.282268 0.704592 -0.092027
C27   C     C_R   0.162571 0.681650 0.369337 -0.078592
C28   C     C_R   0.805198 0.328454 0.630896 -0.055619
C29   C     C_R   0.115305 0.597386 0.347144 0.055408
C30   C     C_R   0.879946 0.401894 0.653256 0.047584
C31   C     C_R   0.106211 0.570233 0.250054 -0.082674
C32   C     C_R   0.896332 0.427240 0.750328 -0.099150
C33   C     C_R   0.143744 0.626824 0.176113 -0.122694
C34   C     C_R   0.128150 0.502657 0.499082 -0.000830
C35   C     C_R   0.837064 0.380744 0.823788 -0.114323
C36   C     C_R   0.188841 0.711210 0.198555 -0.129068
C37   C     C_R   0.761442 0.308557 0.800951 -0.101981
C38   C     C_R   0.931890 0.537533 0.425289 -0.152980
C39   C     C_R   0.067669 0.458569 0.574071 -0.153059
C40   C     C_3   0.694261 0.052040 0.378274 -0.404278
C41   C     C_3   0.610860 0.950849 0.673099 -0.407347
C42   C     C_3   0.608661 0.348264 0.057221 -0.424245
C43   C     C_3   0.689182 0.601386 0.944697 -0.422717
C44   C     C_R   0.939500 0.453106 0.575211 -0.032890
C45   C     C_R   0.059637 0.542954 0.423972 -0.032696
C46   C     C_R   0.435814 0.093979 0.561086 -0.138654
C47   C     C_R   0.478641 0.906883 0.419843 -0.139940
C48   C     C_R   0.430873 0.185917 0.561640 -0.145749
Cu1   Cu    Cu3+1 0.500000 0.499990 0.596430 0.934914
Cu2   Cu    Cu3+1 0.500000 0.500010 0.403570 0.935534
H1    H     H_    0.216698 0.755320 0.141222 0.102582
H2    H     H_    0.687507 0.226235 0.686952 0.110184
H3    H     H_    0.167767 0.704282 0.443712 0.101641
H4    H     H_    0.792122 0.307621 0.556463 0.089361
H5    H     H_    0.068078 0.505971 0.231741 0.103830
H6    H     H_    0.953482 0.483689 0.768906 0.098238
H7    H     H_    0.136576 0.605666 0.101386 0.104229
H8    H     H_    0.849662 0.400989 0.898341 0.096836
H9    H     H_    0.878940 0.570612 0.369053 0.136456
H10   H     H_    0.120614 0.425974 0.630597 0.119576
H11   H     H_    0.373972 0.057355 0.607354 0.110310
H12   H     H_    0.715243 0.272811 0.857867 0.099830
H13   H     H_    0.448222 0.943000 0.356407 0.107291
H14   H     H_    0.366355 0.219586 0.608926 0.112769
H15   H     H_    0.445429 0.781304 0.353174 0.119746
H16   H     H_    0.649275 0.228324 0.392098 0.102570
H17   H     H_    0.579557 0.774752 0.647118 0.119169
H18   H     H_    0.753958 0.009303 0.424241 0.139277
H19   H     H_    0.648717 0.010843 0.321906 0.130109
H20   H     H_    0.754428 0.100577 0.341200 0.116639
H21   H     H_    0.688980 0.993941 0.651788 0.135729
H22   H     H_    0.538469 0.991850 0.708023 0.127442
H23   H     H_    0.412703 0.626136 0.068289 0.095078
H24   H     H_    0.645782 0.902829 0.727547 0.116823
H25   H     H_    0.538751 0.315439 0.010319 0.135425
H26   H     H_    0.686740 0.370818 0.012241 0.132364
H27   H     H_    0.644426 0.298543 0.109461 0.109548
H28   H     H_    0.646158 0.653322 0.990662 0.135976
H29   H     H_    0.745119 0.556349 0.990921 0.137462
H30   H     H_    0.752208 0.634298 0.893053 0.109551
H31   H     H_    0.346972 0.411281 0.929927 0.094004
H32   H     H_    0.412805 0.625273 0.246736 0.142099
H33   H     H_    0.348135 0.412329 0.751248 0.116712
H34   H     H_    0.590444 0.375858 0.250922 0.122765
H35   H     H_    0.652996 0.586102 0.750084 0.121741
H36   H     H_    0.230954 0.804513 0.312131 0.103064
N1    N     N_R   0.500000 0.500020 0.258690 -0.231539
N2    N     N_R   0.500000 0.499980 0.741310 -0.225555
O1    O     O_R   0.500010 0.371450 0.581430 -0.500538
O2    O     O_R   0.499990 0.628550 0.418570 -0.510370
O3    O     O_R   0.500010 0.371460 0.418560 -0.512631
O4    O     O_R   0.499990 0.628540 0.581440 -0.508610
O5    O     O_R   0.319640 0.500000 0.581430 -0.514595
O6    O     O_R   0.680360 0.500000 0.418570 -0.510805
O7    O     O_R   0.319640 0.500010 0.418560 -0.484012
O8    O     O_R   0.680360 0.499990 0.581440 -0.495666

loop_
_geom_bond_atom_site_label_1
_geom_bond_atom_site_label_2
_ccdc_geom_bond_type
C27   C29   A    
C2    H15   S    
C37   H12   S    
C43   H28   S    
C42   H25   S    
C17   C23   S    
C40   H20   S    
C35   H8    S    
C6    C8    A    
C12   O2    A    
C19   C21   A    
C14   N1    A    
C47   H13   S    
C11   C14   A    
Cu2   O7    S    
C48   H14   S    
C43   H29   S    
C13   H31   S    
C3    C48   A    
C33   C36   A    
C38   C45   A    
C16   C34   S    
C41   H24   S    
C21   C43   S    
Cu2   O2    S    
C18   H34   S    
C7    C40   S    
C31   C33   A    
C4    C12   S    
C9    C10   S    
C41   H21   S    
C9    C46   A    
C1    O3    A    
Cu1   N2    S    
C30   C44   S    
C46   C48   A    
C40   H19   S    
C46   H11   S    
C34   C39   A    
C32   C35   A    
C8    C41   S    
C4    C6    A    
C19   N2    A    
C11   H23   S    
C34   C45   A    
C28   H4    S    
Cu2   O6    S    
C15   H33   S    
C3    C5    A    
C43   H30   S    
C23   C44   A    
C13   C24   A    
C29   C45   S    
C1    C3    S    
C2    C4    A    
C26   H2    S    
C16   O5    A    
C17   O8    A    
C36   H1    S    
Cu2   N1    S    
C41   H22   S    
C6    H17   S    
C20   C22   A    
C13   C15   A    
C22   C24   S    
C14   H32   S    
Cu1   O4    S    
C5    C7    A    
C7    C9    A    
C16   O7    A    
C1    O1    A    
C35   C37   A    
C26   C28   A    
C12   O4    A    
Cu1   O1    S    
C5    H16   S    
C19   H35   S    
C20   C42   S    
C27   H3    S    
C26   C37   A    
C39   C44   A    
C33   H7    S    
C2    C47   A    
C25   C27   A    
C23   C38   A    
C11   C22   A    
C42   H26   S    
C18   N1    A    
C31   H5    S    
C28   C30   A    
C29   C31   A    
C30   C32   A    
C39   H10   S    
C25   H36   S    
C18   C20   A    
Cu1   O8    S    
C25   C36   A    
C38   H9    S    
Cu2   O3    S    
C42   H27   S    
C8    C10   A    
Cu1   Cu2   S    
C40   H18   S    
C21   C24   A    
C10   C47   A    
C17   O6    A    
Cu1   O5    S    
C32   H6    S    
C15   N2    A    
