data_mof_unit_6411.cif
_audit_creation_date              2013-03-05T15:44:03-0500
_audit_creation_method            fapswitch 2.2
_symmetry_space_group_name_H-M    P1
_symmetry_Int_Tables_number       1
_space_group_crystal_system       triclinic
_cell_length_a                    31.150798
_cell_length_b                    22.921549
_cell_length_c                    17.973198
_cell_angle_alpha                 89.954786
_cell_angle_beta                  123.133773
_cell_angle_gamma                 90.032925
_cell_volume                      10746.5629526

loop_
_atom_site_label
_atom_site_type_symbol
_atom_site_description
_atom_site_fract_x
_atom_site_fract_y
_atom_site_fract_z
_atom_type_partial_charge
C1    C     C_R   0.537866 0.601473 0.721813 0.358311
C2    C     C_R   0.454385 0.418562 0.255202 0.324837
C3    C     C_R   0.462413 0.602100 0.279127 0.358776
C4    C     C_R   0.545639 0.418531 0.744849 0.324362
C5    C     C_R   0.037907 0.101417 0.721926 0.358255
C6    C     C_R   0.954394 0.918484 0.255233 0.325258
C7    C     C_R   0.962104 0.101439 0.278030 0.357997
C8    C     C_R   0.045681 0.918591 0.744927 0.325425
N1    N     N_R   0.532970 0.559900 0.665210 -0.100766
N2    N     N_R   0.467030 0.440100 0.334790 -0.097949
N3    N     N_R   0.467030 0.559900 0.334790 -0.100046
N4    N     N_R   0.532970 0.440100 0.665210 -0.097967
N5    N     N_R   0.032970 0.059900 0.665210 -0.100557
N6    N     N_R   0.967030 0.940100 0.334790 -0.097830
N7    N     N_R   0.967030 0.059900 0.334790 -0.100538
N8    N     N_R   0.032970 0.940100 0.665210 -0.097958
C9    C     C_R   0.643007 0.583548 0.571280 0.352161
C10   C     C_R   0.375752 0.389888 0.428705 0.347735
C11   C     C_R   0.356819 0.583065 0.428799 0.329682
C12   C     C_R   0.624477 0.390060 0.571299 0.348194
C13   C     C_R   0.142953 0.083691 0.571235 0.351650
C14   C     C_R   0.875612 0.890002 0.428680 0.348011
C15   C     C_R   0.857044 0.083670 0.428731 0.351662
C16   C     C_R   0.124900 0.890447 0.571404 0.351137
N9    N     N_R   0.597900 0.559930 0.545530 -0.097928
N10   N     N_R   0.402100 0.440070 0.454470 -0.095869
N11   N     N_R   0.402100 0.559930 0.454470 -0.095844
N12   N     N_R   0.597900 0.440070 0.545530 -0.096586
N13   N     N_R   0.097900 0.059930 0.545530 -0.097784
N14   N     N_R   0.902100 0.940070 0.454470 -0.096517
N15   N     N_R   0.902100 0.059930 0.454470 -0.097775
N16   N     N_R   0.097900 0.940070 0.545530 -0.096593
C17   C     C_R   0.594603 0.582133 0.424264 -0.092457
C18   C     C_R   0.429671 0.387900 0.575239 -0.156019
C19   C     C_R   0.405422 0.581838 0.575820 -0.083738
C20   C     C_R   0.570665 0.388143 0.424681 -0.156343
C21   C     C_R   0.094448 0.082441 0.424169 -0.096785
C22   C     C_R   0.929410 0.888041 0.575272 -0.155283
C23   C     C_R   0.905524 0.082367 0.575781 -0.095662
C24   C     C_R   0.071058 0.888296 0.424717 -0.156230
H1    H     H_    0.585492 0.579024 0.357426 0.209028
H2    H     H_    0.448268 0.374765 0.643385 0.184947
H3    H     H_    0.414780 0.578986 0.642831 0.206961
H4    H     H_    0.552232 0.375189 0.356502 0.185336
H5    H     H_    0.085249 0.079557 0.357263 0.209217
H6    H     H_    0.947837 0.874958 0.643393 0.186786
H7    H     H_    0.914724 0.079467 0.642693 0.208883
H8    H     H_    0.052797 0.875297 0.356602 0.187486
N17   N     N_R   0.567170 0.559950 0.454460 -0.075051
N18   N     N_R   0.432830 0.440050 0.545540 -0.064453
N19   N     N_R   0.432830 0.559950 0.545540 -0.075160
N20   N     N_R   0.567170 0.440050 0.454460 -0.064619
N21   N     N_R   0.067170 0.059950 0.454460 -0.074777
N22   N     N_R   0.932830 0.940050 0.545540 -0.064410
N23   N     N_R   0.932830 0.059950 0.545540 -0.074609
N24   N     N_R   0.067170 0.940050 0.454460 -0.064981
C25   C     C_R   0.391013 0.602742 0.280135 -0.144020
C26   C     C_R   0.616304 0.419151 0.742908 -0.133601
C27   C     C_R   0.609346 0.602049 0.721101 -0.139532
C28   C     C_R   0.383702 0.419158 0.257102 -0.132489
C29   C     C_R   0.890636 0.102003 0.278777 -0.139856
C30   C     C_R   0.116368 0.919428 0.743108 -0.131459
C31   C     C_R   0.109372 0.102003 0.721180 -0.139876
C32   C     C_R   0.883696 0.919182 0.257087 -0.133649
H9    H     H_    0.352809 0.612320 0.262727 0.184107
H10   H     H_    0.656427 0.424604 0.768112 0.196314
H11   H     H_    0.647779 0.611212 0.739406 0.188873
H12   H     H_    0.343575 0.424598 0.231856 0.196494
H13   H     H_    0.852190 0.111119 0.260412 0.189246
H14   H     H_    0.156456 0.925193 0.768235 0.194994
H15   H     H_    0.147810 0.111161 0.739512 0.189232
H16   H     H_    0.843572 0.924678 0.231828 0.196285
N25   N     N_R   0.421470 0.559970 0.334770 -0.062873
N26   N     N_R   0.578530 0.440030 0.665230 -0.075291
N27   N     N_R   0.578530 0.559970 0.665230 -0.064409
N28   N     N_R   0.421470 0.440030 0.334770 -0.075354
N29   N     N_R   0.921470 0.059970 0.334770 -0.064516
N30   N     N_R   0.078530 0.940030 0.665230 -0.075754
N31   N     N_R   0.078530 0.059970 0.665230 -0.064629
N32   N     N_R   0.921470 0.940030 0.334770 -0.075379
C33   C     C_R   0.584720 0.628876 0.757305 -0.117709
C34   C     C_R   0.402748 0.403944 0.206033 -0.111569
C35   C     C_R   0.415777 0.629990 0.244416 -0.118277
C36   C     C_R   0.597275 0.403924 0.794026 -0.111389
C37   C     C_R   0.084774 0.128782 0.757459 -0.118835
C38   C     C_R   0.902739 0.903927 0.206027 -0.111385
C39   C     C_R   0.915248 0.128814 0.242488 -0.118916
C40   C     C_R   0.097421 0.904277 0.794430 -0.108973
C41   C     C_R   0.641499 0.597745 0.496129 -0.168035
C42   C     C_R   0.392330 0.356731 0.504092 -0.108273
C43   C     C_R   0.358388 0.597061 0.504068 -0.166290
C44   C     C_R   0.608092 0.357072 0.495896 -0.108373
C45   C     C_R   0.141323 0.098126 0.496024 -0.165445
C46   C     C_R   0.892041 0.856955 0.504073 -0.109104
C47   C     C_R   0.858638 0.098040 0.503899 -0.166706
C48   C     C_R   0.108843 0.857648 0.496050 -0.111109
Ni1   Ni    Ni4+2 0.483030 0.500000 0.604430 0.288229
Ni2   Ni    Ni4+2 0.516970 0.500000 0.395570 0.288529
Ni3   Ni    Ni4+2 0.983030 0.000000 0.604430 0.288399
Ni4   Ni    Ni4+2 0.016970 0.000000 0.395570 0.288276
Ni5   Ni    Ni4+2 0.587400 0.500000 0.604430 0.288695
Ni6   Ni    Ni4+2 0.412600 0.500000 0.395570 0.290106
Ni7   Ni    Ni4+2 0.087400 0.000000 0.604430 0.288646
Ni8   Ni    Ni4+2 0.912600 0.000000 0.395570 0.288843
C49   C     C_R   0.639781 0.260151 0.504987 -0.115320
C50   C     C_R   0.325289 0.690474 0.497071 -0.130730
C51   C     C_R   0.360593 0.259746 0.495168 -0.115331
C52   C     C_R   0.675047 0.690474 0.501325 -0.122746
C53   C     C_R   0.142593 0.761490 0.511212 -0.110667
C54   C     C_R   0.825011 0.190752 0.498426 -0.123825
C55   C     C_R   0.860467 0.760018 0.495338 -0.115251
C56   C     C_R   0.175357 0.190684 0.502087 -0.124130
C57   C     C_R   0.641025 0.318521 0.486650 0.064034
C58   C     C_R   0.321704 0.631452 0.507994 0.097174
C59   C     C_R   0.359459 0.318115 0.513553 0.064183
C60   C     C_R   0.678997 0.631199 0.493113 0.084612
C61   C     C_R   0.141992 0.819054 0.487657 0.059297
C62   C     C_R   0.821138 0.131475 0.506892 0.084752
C63   C     C_R   0.859110 0.818397 0.513351 0.064324
C64   C     C_R   0.178881 0.131444 0.492991 0.084411
C65   C     C_R   0.675026 0.340598 0.464568 0.205762
C66   C     C_R   0.283232 0.607505 0.516891 0.208592
C67   C     C_R   0.325624 0.340167 0.535976 0.205167
C68   C     C_R   0.720043 0.606255 0.492587 0.214201
C69   C     C_R   0.175667 0.840729 0.464559 0.204483
C70   C     C_R   0.780169 0.106498 0.507710 0.213987
C71   C     C_R   0.825000 0.840480 0.535125 0.205807
C72   C     C_R   0.219640 0.106327 0.491751 0.216115
C73   C     C_R   0.711369 0.302435 0.468560 0.063973
C74   C     C_R   0.249953 0.646339 0.521869 0.051281
C75   C     C_R   0.289333 0.302016 0.532282 0.064519
C76   C     C_R   0.754873 0.644389 0.490785 0.052836
C77   C     C_R   0.213464 0.803070 0.472637 0.060758
C78   C     C_R   0.745361 0.144610 0.509548 0.052762
C79   C     C_R   0.788673 0.802277 0.531185 0.064095
C80   C     C_R   0.254748 0.144334 0.490492 0.052473
C81   C     C_R   0.711164 0.242971 0.490214 0.008028
C82   C     C_R   0.251809 0.706485 0.505294 0.015895
C83   C     C_R   0.289346 0.242589 0.510395 0.008112
C84   C     C_R   0.752572 0.704765 0.505320 0.011362
C85   C     C_R   0.214881 0.744401 0.499067 0.009199
C86   C     C_R   0.747579 0.204979 0.494746 0.011326
C87   C     C_R   0.788985 0.742792 0.509841 0.008108
C88   C     C_R   0.252829 0.204669 0.505784 0.011174
C89   C     C_R   0.674845 0.221546 0.507710 -0.054316
C90   C     C_R   0.289785 0.728443 0.492482 -0.049238
C91   C     C_R   0.325527 0.221154 0.492629 -0.054436
C92   C     C_R   0.713734 0.727133 0.515431 -0.042922
C93   C     C_R   0.179034 0.723399 0.517963 -0.052392
C94   C     C_R   0.786325 0.227373 0.484351 -0.042488
C95   C     C_R   0.825403 0.721383 0.492628 -0.054379
C96   C     C_R   0.214217 0.227131 0.516432 -0.041926
C97   C     C_R   0.748480 0.322501 0.452883 -0.317032
C98   C     C_R   0.214656 0.626639 0.541871 -0.304593
C99   C     C_R   0.252432 0.322078 0.548430 -0.317002
C100  C     C_R   0.791643 0.623936 0.474855 -0.303479
C101  C     C_R   0.250824 0.823066 0.457509 -0.309472
C102  C     C_R   0.708682 0.124138 0.525744 -0.303488
C103  C     C_R   0.751475 0.822320 0.546611 -0.316766
C104  C     C_R   0.291401 0.123819 0.474304 -0.302634
C105  C     C_R   0.290084 0.787249 0.471056 0.354029
C106  C     C_R   0.674450 0.162085 0.527427 0.354859
C107  C     C_R   0.713820 0.785728 0.537976 0.360152
C108  C     C_R   0.325759 0.161710 0.472771 0.355044
C109  C     C_R   0.786146 0.285957 0.461545 0.360568
C110  C     C_R   0.180272 0.664756 0.542623 0.354185
C111  C     C_R   0.214685 0.285629 0.539732 0.360930
C112  C     C_R   0.825893 0.661911 0.473189 0.355240
H17   H     H_    0.611259 0.245736 0.517689 0.187572
H18   H     H_    0.354527 0.705657 0.486512 0.177947
H19   H     H_    0.389000 0.245333 0.482221 0.187655
H20   H     H_    0.642304 0.707124 0.500794 0.186215
H21   H     H_    0.114421 0.747326 0.524933 0.187179
H22   H     H_    0.857694 0.207433 0.498747 0.185793
H23   H     H_    0.889071 0.745621 0.482860 0.187475
H24   H     H_    0.142786 0.207457 0.501995 0.185657
H25   H     H_    0.749207 0.366647 0.433001 0.181318
H26   H     H_    0.214056 0.581735 0.559505 0.190554
H27   H     H_    0.251907 0.366157 0.568651 0.180768
H28   H     H_    0.793081 0.578619 0.459936 0.189735
H29   H     H_    0.251641 0.867133 0.437475 0.183349
H30   H     H_    0.707302 0.078827 0.540848 0.189781
H31   H     H_    0.750669 0.866483 0.566262 0.181243
H32   H     H_    0.292646 0.078536 0.459020 0.189249
C113  C     C_R   0.393249 0.674550 0.174546 0.154705
C114  C     C_R   0.631428 0.385169 0.886742 0.158057
C115  C     C_R   0.607621 0.672345 0.828535 0.153809
C116  C     C_R   0.368610 0.385200 0.113341 0.157700
C117  C     C_R   0.892313 0.172224 0.171121 0.153806
C118  C     C_R   0.131647 0.886045 0.887602 0.154806
C119  C     C_R   0.107735 0.172114 0.828867 0.153846
C120  C     C_R   0.868596 0.885221 0.113299 0.158042
C121  C     C_R   0.377606 0.713176 0.036601 -0.189959
C122  C     C_R   0.667247 0.389269 0.045184 -0.195322
C123  C     C_R   0.624846 0.708063 0.968878 -0.189814
C124  C     C_R   0.332797 0.389387 0.954903 -0.194739
C125  C     C_R   0.874853 0.207751 0.030473 -0.191878
C126  C     C_R   0.165114 0.887891 0.045375 -0.194506
C127  C     C_R   0.125206 0.207434 0.969554 -0.191544
C128  C     C_R   0.833054 0.889154 0.954931 -0.195221
C129  C     C_R   0.401639 0.673267 0.105478 -0.067094
C130  C     C_R   0.629069 0.405611 0.958057 -0.062502
C131  C     C_R   0.600040 0.669357 0.898470 -0.067179
C132  C     C_R   0.370969 0.405704 0.042016 -0.061593
C133  C     C_R   0.899741 0.169111 0.101026 -0.066877
C134  C     C_R   0.127704 0.904788 0.958046 -0.063435
C135  C     C_R   0.100296 0.168883 0.898950 -0.066818
C136  C     C_R   0.871138 0.905533 0.042069 -0.062563
C137  C     C_R   0.360275 0.716158 0.173936 -0.208111
C138  C     C_R   0.672724 0.351176 0.903735 -0.236974
C139  C     C_R   0.640181 0.714606 0.829380 -0.205052
C140  C     C_R   0.327332 0.351142 0.096381 -0.236909
C141  C     C_R   0.859854 0.214548 0.170327 -0.208618
C142  C     C_R   0.174047 0.853628 0.906053 -0.235952
C143  C     C_R   0.140224 0.214471 0.829723 -0.208517
C144  C     C_R   0.827184 0.851356 0.096180 -0.237268
C145  C     C_R   0.333425 0.755127 0.102447 0.083558
C146  C     C_R   0.714342 0.341760 0.989865 0.083281
C147  C     C_R   0.667505 0.752597 0.901925 0.082954
C148  C     C_R   0.285723 0.341713 0.010255 0.083552
C149  C     C_R   0.832459 0.252476 0.097672 0.083060
C150  C     C_R   0.214813 0.843674 0.992822 0.083344
C151  C     C_R   0.167622 0.252330 0.902414 0.083221
C152  C     C_R   0.785672 0.841872 0.009977 0.083227
C153  C     C_R   0.342435 0.752699 0.032919 0.147967
C154  C     C_R   0.709860 0.356671 0.061437 0.143720
C155  C     C_R   0.659718 0.748216 0.972729 0.149741
C156  C     C_R   0.290195 0.356730 0.938671 0.143196
C157  C     C_R   0.840062 0.247961 0.026677 0.149809
C158  C     C_R   0.208543 0.856434 0.063025 0.144435
C159  C     C_R   0.160016 0.247685 0.973401 0.149700
C160  C     C_R   0.790355 0.856633 0.938542 0.143998
C161  C     C_R   0.294505 0.792471 0.093619 0.055824
C162  C     C_R   0.759312 0.315459 0.005281 0.056680
C163  C     C_R   0.705777 0.790821 0.910262 0.047413
C164  C     C_R   0.240768 0.315316 0.994848 0.056764
C165  C     C_R   0.794278 0.290755 0.089435 0.047260
C166  C     C_R   0.260550 0.818509 0.009979 0.054762
C167  C     C_R   0.205801 0.290674 0.910682 0.046880
C168  C     C_R   0.740623 0.815620 0.994371 0.056680
C169  C     C_R   0.770379 0.313940 0.938870 -0.150584
C170  C     C_R   0.287056 0.803619 0.163403 -0.139871
C171  C     C_R   0.229707 0.313648 0.061265 -0.150014
C172  C     C_R   0.711542 0.804170 0.839193 -0.134201
C173  C     C_R   0.273216 0.819250 0.945609 -0.149725
C174  C     C_R   0.788718 0.304251 0.160662 -0.135127
C175  C     C_R   0.729368 0.814231 0.060550 -0.150331
C176  C     C_R   0.211339 0.304312 0.839450 -0.134583
C177  C     C_R   0.810914 0.281424 0.950364 -0.152578
C178  C     C_R   0.245578 0.837189 0.148722 -0.149106
C179  C     C_R   0.189173 0.281068 0.049748 -0.152242
C180  C     C_R   0.752383 0.838514 0.852814 -0.147772
C181  C     C_R   0.314268 0.787507 0.957877 -0.151183
C182  C     C_R   0.747952 0.338641 0.147165 -0.147379
C183  C     C_R   0.688760 0.781758 0.048932 -0.152081
C184  C     C_R   0.252099 0.338754 0.852944 -0.146318
H33   H     H_    0.817532 0.279834 0.897109 0.160812
H34   H     H_    0.241514 0.846258 0.203740 0.168429
H35   H     H_    0.182554 0.279375 0.103001 0.160906
H36   H     H_    0.755089 0.849250 0.796769 0.162746
H37   H     H_    0.322032 0.787534 0.905962 0.161126
H38   H     H_    0.745406 0.349495 0.203318 0.163129
H39   H     H_    0.681998 0.780268 0.102024 0.160691
H40   H     H_    0.254631 0.349705 0.796783 0.163550
H41   H     H_    0.672122 0.332589 0.847845 0.165284
H42   H     H_    0.353791 0.714883 0.227059 0.130307
H43   H     H_    0.327945 0.332513 0.152295 0.165207
H44   H     H_    0.646030 0.714519 0.775480 0.142512
H45   H     H_    0.174811 0.836106 0.850908 0.166610
H46   H     H_    0.854125 0.214546 0.224367 0.142851
H47   H     H_    0.827635 0.832863 0.152016 0.165297
H48   H     H_    0.145966 0.214552 0.775699 0.142927
H49   H     H_    0.598828 0.434659 0.947212 0.173516
H50   H     H_    0.424852 0.639907 0.101844 0.177769
H51   H     H_    0.401204 0.434789 0.052840 0.173739
H52   H     H_    0.576919 0.635517 0.901460 0.176136
H53   H     H_    0.096723 0.932791 0.946476 0.175157
H54   H     H_    0.922805 0.135223 0.098050 0.176251
H55   H     H_    0.901464 0.934496 0.052982 0.173527
H56   H     H_    0.077209 0.134966 0.901878 0.176265
H57   H     H_    0.384167 0.710744 0.983331 0.151741
H58   H     H_    0.664202 0.403266 0.099694 0.145834
H59   H     H_    0.619079 0.704238 0.022959 0.150721
H60   H     H_    0.335834 0.403451 0.900383 0.145870
H61   H     H_    0.880487 0.203831 0.976258 0.150862
H62   H     H_    0.160710 0.900363 0.098984 0.146842
H63   H     H_    0.119566 0.203417 0.023759 0.150913
H64   H     H_    0.836251 0.903040 0.900510 0.145884
H65   H     H_    0.748366 0.338450 0.877761 0.185484
H66   H     H_    0.313709 0.788633 0.230425 0.165520
H67   H     H_    0.251714 0.338100 0.122391 0.185531
H68   H     H_    0.683879 0.790416 0.772055 0.190937
H69   H     H_    0.251929 0.844809 0.885395 0.182515
H70   H     H_    0.816494 0.290583 0.227813 0.190696
H71   H     H_    0.751291 0.838805 0.121576 0.185157
H72   H     H_    0.183541 0.290720 0.772297 0.191129
N33   N     N_R   0.502403 0.612402 0.746871 0.199734
O1    O     O_R   0.496044 0.573550 0.792721 -0.377104
O2    O     O_R   0.485770 0.665226 0.741954 -0.387255
N34   N     N_R   0.486020 0.423805 0.220421 0.212682
O3    O     O_R   0.483800 0.384375 0.166413 -0.402472
O4    O     O_R   0.522945 0.461855 0.253959 -0.393531
N35   N     N_R   0.497987 0.613278 0.254377 0.199417
O5    O     O_R   0.504134 0.574841 0.207843 -0.376351
O6    O     O_R   0.515210 0.665989 0.260763 -0.401227
N36   N     N_R   0.513959 0.423554 0.779561 0.212957
O7    O     O_R   0.516338 0.384111 0.833767 -0.402407
O8    O     O_R   0.476781 0.461266 0.745616 -0.394116
N37   N     N_R   0.002477 0.112333 0.747065 0.200041
O9    O     O_R   0.996023 0.073395 0.792690 -0.376496
O10   O     O_R   0.986009 0.165196 0.742518 -0.399529
N38   N     N_R   0.986134 0.923327 0.220593 0.212728
O11   O     O_R   0.983753 0.883743 0.166637 -0.403914
O12   O     O_R   0.023337 0.961024 0.254324 -0.392444
N39   N     N_R   0.997482 0.112279 0.252732 0.199979
O13   O     O_R   0.003914 0.073248 0.207274 -0.376366
O14   O     O_R   0.013976 0.165120 0.257057 -0.399692
N40   N     N_R   0.013804 0.923201 0.779284 0.211784
O15   O     O_R   0.015319 0.882770 0.831496 -0.404617
O16   O     O_R   0.976880 0.961226 0.745912 -0.393427
N41   N     N_R   0.688574 0.578026 0.658305 0.219261
O17   O     O_R   0.726456 0.614280 0.685306 -0.393399
O18   O     O_R   0.692426 0.536833 0.711354 -0.382591
N42   N     N_R   0.328338 0.381054 0.345505 0.212351
O19   O     O_R   0.314371 0.328601 0.313563 -0.416629
O20   O     O_R   0.295249 0.423259 0.309810 -0.369029
N43   N     N_R   0.311111 0.576721 0.342085 0.221679
O21   O     O_R   0.271913 0.610617 0.316387 -0.404420
O22   O     O_R   0.308155 0.536548 0.288485 -0.377953
N44   N     N_R   0.671826 0.381267 0.654623 0.212281
O23   O     O_R   0.685838 0.328807 0.686585 -0.416533
O24   O     O_R   0.704868 0.423520 0.690359 -0.372063
N45   N     N_R   0.188581 0.078126 0.658192 0.219487
O25   O     O_R   0.226590 0.114151 0.684953 -0.392159
O26   O     O_R   0.192418 0.037017 0.711340 -0.382837
N46   N     N_R   0.828238 0.881221 0.345398 0.212330
O27   O     O_R   0.814234 0.828777 0.313435 -0.416293
O28   O     O_R   0.795190 0.923462 0.309667 -0.371833
N47   N     N_R   0.811438 0.078178 0.341757 0.219123
O29   O     O_R   0.773615 0.114498 0.314739 -0.393021
O30   O     O_R   0.807473 0.036914 0.288799 -0.382247
N48   N     N_R   0.172133 0.881906 0.655016 0.212599
O31   O     O_R   0.185828 0.829677 0.688166 -0.412027
O32   O     O_R   0.205301 0.924065 0.690238 -0.371236
C185  C     C_3   0.673532 0.404465 0.439486 -0.441939
C186  C     C_3   0.646669 0.412395 0.339093 -0.749072
H73   H     H_    0.607344 0.394113 0.303944 0.292297
H74   H     H_    0.644117 0.459601 0.323244 0.255810
H75   H     H_    0.667919 0.390246 0.313897 0.241249
H76   H     H_    0.654590 0.432662 0.462699 0.210291
H77   H     H_    0.712678 0.422433 0.474612 0.200651
C187  C     C_3   0.275444 0.541938 0.513397 -0.470786
C188  C     C_3   0.226672 0.523539 0.425835 -0.675599
H78   H     H_    0.192481 0.547202 0.414183 0.255346
H79   H     H_    0.230878 0.532299 0.369424 0.296507
H80   H     H_    0.219579 0.476233 0.426700 0.237776
H81   H     H_    0.307869 0.519014 0.518001 0.206004
H82   H     H_    0.274699 0.526622 0.571243 0.201586
C189  C     C_3   0.327256 0.404006 0.561169 -0.440300
C190  C     C_3   0.354489 0.411795 0.661656 -0.747544
H83   H     H_    0.333097 0.390183 0.687045 0.240688
H84   H     H_    0.393546 0.392822 0.696473 0.292491
H85   H     H_    0.357730 0.458992 0.677777 0.256080
H86   H     H_    0.345843 0.432348 0.537364 0.210477
H87   H     H_    0.288164 0.421972 0.526501 0.201124
C191  C     C_3   0.727458 0.540605 0.497996 -0.477201
C192  C     C_3   0.774740 0.522082 0.587504 -0.666409
H88   H     H_    0.810074 0.543339 0.599992 0.253110
H89   H     H_    0.769750 0.533575 0.642248 0.298188
H90   H     H_    0.780185 0.474204 0.588813 0.238350
H91   H     H_    0.694132 0.518431 0.491221 0.206184
H92   H     H_    0.729829 0.524529 0.442133 0.201228
C193  C     C_3   0.172269 0.903635 0.434008 -0.442523
C194  C     C_3   0.146129 0.907625 0.333320 -0.742507
H93   H     H_    0.107083 0.888558 0.298985 0.289577
H94   H     H_    0.142921 0.954106 0.313445 0.257583
H95   H     H_    0.168379 0.884028 0.311293 0.242297
H96   H     H_    0.151987 0.932551 0.453716 0.211406
H97   H     H_    0.210713 0.923334 0.468250 0.197200
C195  C     C_3   0.772754 0.040839 0.502433 -0.476990
C196  C     C_3   0.725410 0.022356 0.412993 -0.666267
H98   H     H_    0.690135 0.043753 0.400474 0.253234
H99   H     H_    0.730410 0.033726 0.358198 0.298088
H100  H     H_    0.719828 0.974508 0.411796 0.238211
H101  H     H_    0.806058 0.018651 0.509183 0.206272
H102  H     H_    0.770426 0.024746 0.558363 0.201327
C197  C     C_3   0.826392 0.904379 0.559895 -0.441343
C198  C     C_3   0.853171 0.912406 0.660241 -0.749253
H103  H     H_    0.892467 0.894051 0.695558 0.292975
H104  H     H_    0.855781 0.959630 0.675924 0.255751
H105  H     H_    0.831828 0.890371 0.685397 0.241115
H106  H     H_    0.845333 0.932591 0.536629 0.210345
H107  H     H_    0.787233 0.922295 0.524609 0.200735
C199  C     C_3   0.226410 0.040585 0.495731 -0.476965
C200  C     C_3   0.273400 0.021155 0.584973 -0.670654
H108  H     H_    0.308976 0.042130 0.598088 0.253560
H109  H     H_    0.268373 0.032304 0.639786 0.299261
H110  H     H_    0.278385 0.973236 0.585344 0.237009
H111  H     H_    0.192794 0.018526 0.488146 0.205156
H112  H     H_    0.228791 0.024970 0.439673 0.200942
N49   N     N_R   0.329567 0.811366 0.461808 0.231993
O33   O     O_R   0.317416 0.846009 0.395677 -0.400586
O34   O     O_R   0.377345 0.807758 0.527402 -0.350177
N50   N     N_R   0.640216 0.139434 0.550606 0.237049
O35   O     O_R   0.616934 0.089993 0.517416 -0.336001
O36   O     O_R   0.640190 0.161711 0.617157 -0.356166
N51   N     N_R   0.677415 0.808429 0.556164 0.233570
O37   O     O_R   0.658028 0.860194 0.528144 -0.353967
O38   O     O_R   0.670781 0.782379 0.613496 -0.423052
N52   N     N_R   0.359920 0.139024 0.449510 0.237194
O39   O     O_R   0.383130 0.089541 0.482676 -0.336236
O40   O     O_R   0.359917 0.161307 0.382889 -0.355863
N53   N     N_R   0.822459 0.308690 0.443103 0.233281
O41   O     O_R   0.841785 0.360506 0.470841 -0.355128
O42   O     O_R   0.829050 0.282603 0.385801 -0.424082
N54   N     N_R   0.147162 0.643045 0.568900 0.236783
O43   O     O_R   0.125276 0.592362 0.540739 -0.339152
O44   O     O_R   0.146740 0.668145 0.633419 -0.354337
N55   N     N_R   0.178550 0.308371 0.558539 0.233122
O45   O     O_R   0.159471 0.360342 0.531332 -0.356424
O46   O     O_R   0.171870 0.282040 0.615625 -0.424603
N56   N     N_R   0.860233 0.639277 0.450292 0.236912
O47   O     O_R   0.883549 0.589885 0.483747 -0.337052
O48   O     O_R   0.860333 0.661502 0.383738 -0.357007

loop_
_geom_bond_atom_site_label_1
_geom_bond_atom_site_label_2
_geom_bond_distance
_ccdc_geom_bond_type
N19   Ni1   1.909114 S    
N5    N31   1.419032 A    
C191  H92   1.109500 S    
C126  C134  1.404145 A    
C14   C46   1.382977 A    
C18   H2    1.072538 S    
C54   C62   1.379648 A    
N13   Ni7   1.868259 S    
C124  C156  1.408029 A    
N35   O6    1.301133 A    
C51   H19   1.082544 S    
N45   O25   1.300801 A    
C12   C44   1.383445 A    
C107  N51   1.438705 S    
N3    Ni2   1.908111 S    
C66   C74   1.406255 A    
C91   C108  1.409821 A    
N10   N18   1.372095 A    
C53   H21   1.082816 S    
C123  C131  1.384781 A    
C181  H37   1.084350 S    
C121  C129  1.384054 A    
C114  C130  1.404205 A    
C127  C159  1.396008 A    
C142  C150  1.389801 A    
C156  C184  1.397734 A    
C112  N56   1.437031 S    
C118  C134  1.404834 A    
C132  H51   1.080979 S    
C99   C111  1.379573 A    
N42   O19   1.300717 A    
C25   C35   1.391938 A    
C160  C180  1.397781 A    
C45   C64   1.422543 S    
C4    N4    1.352984 A    
C5    N5    1.341028 A    
C65   C73   1.401522 A    
C7    N7    1.341022 A    
C8    N8    1.353377 A    
C31   C37   1.391569 A    
C188  H79   1.109197 S    
C171  H67   1.080868 S    
C137  H42   1.078923 S    
C90   C105  1.402993 A    
C59   C67   1.412106 A    
N44   O23   1.300713 A    
C169  C177  1.381409 A    
C70   C195  1.517666 S    
C145  C161  1.420738 A    
C56   C64   1.379402 A    
N48   O31   1.300675 A    
C12   N12   1.339771 A    
C54   C94   1.374205 A    
C173  C181  1.380558 A    
C28   N28   1.329184 A    
C134  H53   1.080624 S    
C149  C165  1.419471 A    
C167  C176  1.416779 A    
C162  C165  1.411775 A    
C15   N15   1.330675 A    
C144  C152  1.389205 A    
C197  H107  1.101519 S    
C130  H49   1.080989 S    
N35   O5    1.299554 A    
C4    C36   1.388008 A    
C187  C188  1.532750 S    
N36   O7    1.300700 A    
N4    Ni1   1.908115 S    
C49   H17   1.082586 S    
N26   Ni5   1.867434 S    
C31   H15   1.074650 S    
C184  H40   1.083838 S    
C3    C35   1.384945 A    
C196  H98   1.108503 S    
C113  C137  1.397695 A    
C20   H4    1.072682 S    
C21   H5    1.075145 S    
C197  C198  1.529088 S    
C74   C82   1.418041 A    
C96   C111  1.402740 A    
C67   C189  1.524689 S    
N34   O3    1.300703 A    
C180  H36   1.083837 S    
C23   H7    1.075146 S    
C81   C89   1.417062 A    
C24   H8    1.072485 S    
C121  H57   1.084237 S    
C128  H64   1.083473 S    
C137  C145  1.404476 A    
N46   O27   1.300723 A    
C124  H60   1.083473 S    
C82   C85   1.396909 A    
N6    Ni4   1.908067 S    
C37   C119  1.463888 S    
C38   C120  1.468158 S    
C123  C155  1.395952 A    
C189  H87   1.100658 S    
C9    N9    1.330503 A    
N54   O43   1.301317 A    
C16   C48   1.382115 A    
C121  C153  1.395425 A    
C151  C167  1.419447 A    
N10   Ni6   1.868259 S    
C116  C140  1.387990 A    
C122  C154  1.408051 A    
C13   C45   1.365150 A    
C166  C173  1.411895 A    
N20   Ni2   1.909116 S    
C15   C47   1.365117 A    
C192  H90   1.108831 S    
C62   C70   1.405819 A    
C3    N3    1.341107 A    
C199  C200  1.531880 S    
C169  H65   1.080890 S    
C73   C81   1.418165 A    
C70   C78   1.407197 A    
C153  C181  1.389605 A    
N41   O17   1.300795 A    
C189  C190  1.529330 S    
N27   Ni5   1.868935 S    
C128  C160  1.408011 A    
C1    C33   1.383294 A    
C191  H91   1.100997 S    
C146  C154  1.410038 A    
C157  C177  1.389869 A    
C4    N36   1.431650 S    
C195  C196  1.532096 S    
C126  H62   1.083487 S    
C81   C86   1.397059 A    
C187  H82   1.109297 S    
C100  H28   1.080054 S    
C163  C168  1.411885 A    
N55   O45   1.301388 A    
C84   C87   1.396840 A    
C159  C179  1.389883 A    
N49   O33   1.301381 A    
C12   N44   1.429705 S    
N14   N22   1.372095 A    
C30   H14   1.078995 S    
C49   C57   1.383235 A    
C30   C40   1.383551 A    
C100  C112  1.389475 A    
N38   O11   1.300711 A    
C68   C76   1.406972 A    
C55   C63   1.383084 A    
C83   C88   1.397241 A    
C25   N25   1.344113 A    
C185  H76   1.099993 S    
C194  H93   1.109282 S    
N40   O16   1.299439 A    
C29   C39   1.391535 A    
C27   H11   1.074680 S    
C29   N29   1.344038 A    
C198  H103  1.108637 S    
C168  C175  1.412290 A    
C189  H86   1.100123 S    
C19   H3    1.075138 S    
C9    N41   1.431829 S    
C20   N20   1.333710 A    
C5    C37   1.383129 A    
C79   C87   1.418202 A    
C179  H35   1.084318 S    
N33   O2    1.301085 A    
N31   Ni7   1.868935 S    
C105  N49   1.438237 S    
C190  H83   1.108770 S    
N11   N19   1.372095 A    
C194  H94   1.110497 S    
N37   O10   1.301079 A    
N28   Ni6   1.868938 S    
C97   H25   1.077213 S    
C171  C179  1.381433 A    
C111  N55   1.438723 S    
C147  C163  1.419551 A    
C48   C61   1.429401 S    
N50   O35   1.301271 A    
C6    N38   1.431845 S    
N43   O22   1.299540 A    
C143  C151  1.403691 A    
C116  C132  1.404169 A    
C34   C116  1.467909 S    
C8    C40   1.389054 A    
C194  H95   1.109246 S    
N5    Ni3   1.908067 S    
C17   C41   1.366683 A    
C6    N6    1.353015 A    
C118  C142  1.388723 A    
C186  H74   1.110453 S    
C25   H9    1.074961 S    
C195  H102  1.109476 S    
C74   C98   1.404787 A    
C119  C135  1.401684 A    
C152  C168  1.406794 A    
C23   C47   1.366904 A    
N52   O39   1.301265 A    
C117  C141  1.396091 A    
C5    N37   1.424925 S    
C78   C102  1.404705 A    
C52   H20   1.084387 S    
N56   O47   1.301272 A    
N22   Ni3   1.909025 S    
C124  C132  1.403711 A    
C56   H24   1.084366 S    
C190  H84   1.108548 S    
C151  C159  1.423206 A    
C26   N26   1.329088 A    
C186  H75   1.108810 S    
C14   N14   1.339538 A    
C97   C109  1.379789 A    
C69   C193  1.525519 S    
C30   N30   1.329483 A    
C18   N18   1.334073 A    
C125  C157  1.396029 A    
C131  H52   1.079306 S    
C139  C147  1.403753 A    
N11   Ni6   1.869762 S    
C6    C38   1.388103 A    
C164  C167  1.411805 A    
C147  C155  1.423245 A    
N15   Ni8   1.869762 S    
C193  H97   1.100428 S    
C88   C96   1.414518 A    
C73   C97   1.408077 A    
N7    N29   1.419036 A    
C54   H22   1.084359 S    
C65   C185  1.524675 S    
C82   C90   1.415165 A    
C198  H105  1.108803 S    
C87   C95   1.417078 A    
C76   C100  1.404652 A    
C77   C101  1.408373 A    
N51   O38   1.301051 A    
C22   H6    1.072293 S    
C75   C83   1.418189 A    
C80   C104  1.404770 A    
C161  C170  1.418089 A    
C57   C65   1.412092 A    
C150  C158  1.409179 A    
N53   O42   1.301033 A    
N23   Ni3   1.909114 S    
C122  H58   1.083470 S    
C52   C92   1.373998 A    
C106  N50   1.437030 S    
C190  H85   1.110353 S    
C145  C153  1.423723 A    
C135  H56   1.079376 S    
C63   C71   1.412066 A    
C136  H55   1.080976 S    
N53   O41   1.301381 A    
N4    N26   1.419034 A    
C36   C114  1.467963 S    
C10   N10   1.339945 A    
N7    Ni4   1.908111 S    
C188  H78   1.108637 S    
C53   C61   1.382394 A    
C40   C118  1.470804 S    
N44   O24   1.298879 A    
N32   Ni8   1.868938 S    
C104  C108  1.389857 A    
C164  C171  1.412327 A    
C1    N33   1.424890 S    
N55   O46   1.301002 A    
C71   C79   1.401325 A    
C199  H111  1.101915 S    
C72   C80   1.407634 A    
C200  H110  1.108892 S    
N48   O32   1.298816 A    
C170  H66   1.079219 S    
C17   N17   1.337711 A    
C122  C130  1.403765 A    
C115  C131  1.401697 A    
C148  C156  1.410103 A    
C113  C129  1.401766 A    
C191  C192  1.532008 S    
C119  C143  1.396069 A    
C141  C149  1.403608 A    
N12   Ni5   1.869765 S    
C23   N23   1.337669 A    
C117  C133  1.401664 A    
C24   N24   1.334037 A    
C141  H46   1.079213 S    
N36   O8    1.299464 A    
C56   C96   1.373969 A    
C143  H48   1.079219 S    
C99   H27   1.077158 S    
C44   C57   1.431265 S    
C144  H47   1.082106 S    
C20   C44   1.368554 A    
C14   N46   1.429755 S    
N39   O13   1.299375 A    
C32   N32   1.329199 A    
C101  H29   1.077034 S    
C24   C48   1.368388 A    
C32   C38   1.382850 A    
N34   O4    1.299540 A    
N45   O26   1.299453 A    
N21   Ni4   1.909023 S    
C71   C197  1.524847 S    
C10   C42   1.383496 A    
C1    N1    1.340924 A    
N46   O28   1.298886 A    
C125  C133  1.384849 A    
N3    N25   1.419036 A    
C13   N45   1.431986 S    
C174  C182  1.398911 A    
C8    N40   1.431438 S    
N54   O44   1.301394 A    
C120  C144  1.388051 A    
C161  C166  1.412769 A    
C78   C86   1.417650 A    
C51   C91   1.386443 A    
C11   N43   1.432389 S    
N47   O29   1.300797 A    
C22   N22   1.333845 A    
C49   C89   1.386046 A    
C126  C158  1.407962 A    
N16   Ni7   1.869765 S    
C9    C41   1.364722 A    
C192  H89   1.108738 S    
C42   C59   1.431771 S    
C128  C136  1.403736 A    
N25   Ni6   1.867434 S    
C138  H41   1.082137 S    
C114  C138  1.387979 A    
C2    C34   1.387976 A    
C10   N42   1.429768 S    
C101  C105  1.379953 A    
C188  H80   1.108276 S    
C72   C199  1.517903 S    
N1    Ni1   1.908067 S    
C60   C68   1.405682 A    
C67   C75   1.401443 A    
C27   C33   1.391718 A    
C2    N34   1.431596 S    
C138  C146  1.389090 A    
C200  H108  1.108550 S    
C64   C72   1.405662 A    
C76   C84   1.417661 A    
C140  C148  1.389143 A    
C77   C85   1.418526 A    
C177  H33   1.084318 S    
C52   C60   1.379591 A    
C75   C99   1.408034 A    
C170  C178  1.399760 A    
N43   O21   1.300749 A    
C80   C88   1.417887 A    
N9    Ni5   1.868259 S    
C13   N13   1.330573 A    
C7    N39   1.424894 S    
C174  H70   1.077760 S    
C165  C174  1.416889 A    
C51   C59   1.383459 A    
N9    N17   1.372096 A    
C163  C172  1.416891 A    
C11   C43   1.365225 A    
C108  N52   1.436990 S    
C7    C39   1.383231 A    
C28   H12   1.078895 S    
C198  H104  1.110442 S    
C50   H18   1.084056 S    
C149  C157  1.423240 A    
C196  H99   1.108742 S    
C98   C110  1.388422 A    
N29   Ni8   1.867434 S    
N15   N23   1.372095 A    
N16   N24   1.372097 A    
C33   C115  1.464061 S    
C175  C183  1.381361 A    
C200  H109  1.108809 S    
N33   O1    1.299424 A    
C192  H88   1.108495 S    
C86   C94   1.414491 A    
C84   C92   1.414485 A    
C16   N16   1.337951 A    
C85   C93   1.416928 A    
C31   N31   1.344186 A    
N37   O9    1.299372 A    
C83   C91   1.417028 A    
C50   C58   1.380099 A    
C55   H23   1.082600 S    
N50   O36   1.301351 A    
C152  C160  1.410033 A    
C89   C106  1.409712 A    
C95   C112  1.409675 A    
C175  H71   1.080915 S    
C176  H72   1.077678 S    
C123  H59   1.084188 S    
N2    Ni2   1.908067 S    
N17   Ni2   1.909023 S    
C28   C34   1.382819 A    
C26   H10   1.078883 S    
C140  H43   1.082119 S    
C173  H69   1.081242 S    
N41   O18   1.299478 A    
C133  H54   1.079395 S    
N51   O37   1.301381 A    
N6    N32   1.419034 A    
C11   N11   1.331431 A    
N52   O40   1.301347 A    
N38   O12   1.299562 A    
C129  H50   1.078967 S    
C39   C117  1.463828 S    
C41   C60   1.422505 S    
C187  H81   1.101067 S    
N56   O48   1.301353 A    
C120  C136  1.404233 A    
N2    N28   1.419034 A    
C21   C45   1.366702 A    
C3    N35   1.424731 S    
N49   O34   1.301392 A    
C172  H68   1.077771 S    
C47   C62   1.422893 S    
N39   O14   1.301085 A    
C110  N54   1.437371 S    
C17   H1    1.075224 S    
C146  C162  1.406763 A    
C197  H106  1.099999 S    
C155  C183  1.389865 A    
C94   C109  1.402813 A    
C16   N48   1.429763 S    
C150  C166  1.406437 A    
C142  H45   1.081965 S    
C185  H77   1.101559 S    
C53   C93   1.384223 A    
C193  H96   1.099736 S    
C18   C42   1.368603 A    
N40   O15   1.300754 A    
C26   C36   1.382717 A    
C196  H100  1.108741 S    
C79   C103  1.408042 A    
C46   C63   1.430723 S    
C69   C77   1.402352 A    
C22   C46   1.368343 A    
C127  C135  1.384847 A    
C66   C187  1.518059 S    
C102  H30   1.080049 S    
C182  H38   1.083836 S    
C15   N47   1.431817 S    
N42   O20   1.298920 A    
N47   O30   1.299470 A    
C103  C107  1.379696 A    
N24   Ni4   1.909116 S    
C109  N53   1.438696 S    
C2    N2    1.352780 A    
C27   N27   1.344181 A    
C68   C191  1.517511 S    
C29   H13   1.074672 S    
N18   Ni1   1.909025 S    
C172  C180  1.398902 A    
N30   Ni7   1.867434 S    
C92   C107  1.402770 A    
C148  C164  1.406850 A    
C93   C110  1.408976 A    
C115  C139  1.396205 A    
C55   C95   1.385813 A    
C125  H61   1.084181 S    
C176  C184  1.398844 A    
N8    Ni3   1.908115 S    
C127  H63   1.084181 S    
C50   C90   1.374289 A    
C98   H26   1.079882 S    
C21   N21   1.337536 A    
C199  H112  1.109515 S    
C193  C194  1.528166 S    
C19   N19   1.336307 A    
N12   N20   1.372097 A    
C186  H73   1.108658 S    
C183  H39   1.084322 S    
N13   N21   1.372096 A    
C139  H44   1.079186 S    
C178  H34   1.083617 S    
C195  H101  1.101164 S    
N8    N30   1.419034 A    
C32   H16   1.078888 S    
C102  C106  1.389591 A    
C162  C169  1.412317 A    
C58   C66   1.404190 A    
C154  C182  1.397767 A    
N14   Ni8   1.868259 S    
C35   C113  1.465642 S    
N1    N27   1.419032 A    
C103  H31   1.077209 S    
C185  C186  1.529090 S    
C158  C178  1.398170 A    
C61   C69   1.412330 A    
C104  H32   1.080018 S    
C43   C58   1.421799 S    
C19   C43   1.365941 A    
