data_mof_unit_52058.cif
_audit_creation_date              2013-03-05T16:10:40-0500
_audit_creation_method            fapswitch 2.2
_symmetry_space_group_name_H-M    P1
_symmetry_Int_Tables_number       1
_space_group_crystal_system       triclinic
_cell_length_a                    8.360479
_cell_length_b                    15.2682
_cell_length_c                    18.771379
_cell_angle_alpha                 102.87517
_cell_angle_beta                  91.749641
_cell_angle_gamma                 99.510747
_cell_volume                      2298.14456701

loop_
_atom_site_label
_atom_site_type_symbol
_atom_site_description
_atom_site_fract_x
_atom_site_fract_y
_atom_site_fract_z
_atom_type_partial_charge
P1    P     P_3+3 0.039430 0.410940 0.333230 0.468377
O1    O     O_2   0.871960 0.437280 0.322960 -0.363655
O2    O     O_3   0.121410 0.444460 0.412450 -0.409794
O3    O     O_3   0.661450 0.607570 0.372550 -0.404872
O4    O     O_2   0.752666 0.528816 0.244780 -0.386769
O5    O     O_3   0.993998 0.291685 0.307491 -0.559741
O6    O     O_3   0.724070 0.698453 0.258187 -0.514329
H1    H     H_    0.748340 0.775179 0.364708 0.101304
C1    C     C_3   0.731964 0.860567 0.288950 -0.081489
H2    H     H_    0.863432 0.871660 0.279273 0.173337
P2    P     P_3+3 0.676770 0.715000 0.563590 0.664752
P3    P     P_3+3 0.148154 0.767866 0.403950 0.492724
O7    O     O_2   0.852310 0.726980 0.542430 -0.358976
O8    O     O_3   0.084010 0.657370 0.410280 -0.346697
O9    O     O_2   0.034669 0.822205 0.451875 -0.345964
O10   O     O_3   0.651411 0.768634 0.657231 -0.568163
O11   O     O_3   0.089034 0.777307 0.316232 -0.534156
C2    C     C_3   0.152179 0.713560 0.264110 0.400501
H3    H     H_    0.088080 0.643516 0.263162 0.107321
H4    H     H_    0.284771 0.718575 0.275466 0.019019
C3    C     C_3   0.124712 0.733406 0.189227 -0.824566
H5    H     H_    0.992461 0.722628 0.173716 0.272662
H6    H     H_    0.179658 0.805145 0.190383 0.290442
C4    C     C_3   0.199058 0.774115 0.670490 0.823599
H7    H     H_    0.082211 0.764923 0.640167 0.124164
C5    C     C_3   0.223187 0.866678 0.726880 -0.745099
H8    H     H_    0.337359 0.877595 0.761280 0.242308
H9    H     H_    0.228281 0.925185 0.700668 0.267528
H10   H     H_    0.122573 0.869310 0.763737 0.279850
Ba1   Ba    Ba6+2 0.853520 0.540910 0.466490 1.680217
C6    C     C_3   0.936713 0.256242 0.366243 0.393887
H11   H     H_    0.038787 0.261965 0.407147 0.136207
C7    C     C_3   0.863023 0.155793 0.336737 -0.806621
H12   H     H_    0.744080 0.149179 0.306403 0.272794
C8    C     C_3   0.690396 0.734796 0.719615 0.853949
C9    C     C_3   0.648614 0.802284 0.789107 -0.181790
H13   H     H_    0.689912 0.784147 0.839970 0.151874
P4    P     P_3+3 0.150290 0.589140 0.666780 0.630983
O12   O     O_2   0.317750 0.562750 0.677090 -0.303575
O13   O     O_3   0.068300 0.555620 0.587560 -0.337164
O14   O     O_3   0.528270 0.392500 0.627460 -0.354245
O15   O     O_3   0.213685 0.706893 0.709438 -0.600602
P5    P     P_3+3 0.059312 0.226020 0.583404 0.458624
O16   O     O_3   0.609290 0.386840 0.459690 -0.383489
O17   O     O_3   0.105700 0.342700 0.589730 -0.379546
O18   O     O_2   0.177518 0.182041 0.531041 -0.340539
O19   O     O_3   0.125244 0.206546 0.666854 -0.522343
Ba2   Ba    Ba6+2 0.336320 0.459170 0.533520 1.681576
P6    P     P_3+3 0.639222 0.594634 0.278397 0.453807
C10   C     C_3   0.682528 0.770154 0.311244 0.302254
H14   H     H_    0.549755 0.759806 0.317288 -0.017547
H15   H     H_    0.711418 0.917087 0.334611 0.068207
O20   O     O_3   0.580430 0.613240 0.540320 -0.308856
C11   C     C_3   0.416842 0.291323 0.304237 0.218873
H16   H     H_    0.313698 0.310976 0.336110 0.099419
H17   H     H_    0.498211 0.353887 0.297553 0.100538
C12   C     C_3   0.349386 0.231095 0.229287 -0.063434
H18   H     H_    0.247397 0.178094 0.237045 0.187315
H19   H     H_    0.445810 0.196012 0.202477 0.173180
P7    P     P_3+3 0.516106 0.271750 0.432906 0.483309
O21   O     O_2   0.337390 0.273050 0.457610 -0.338129
O22   O     O_3   0.508444 0.240167 0.337240 -0.560944
H20   H     H_    0.182216 0.687743 0.147377 0.198796
C13   C     C_3   0.014384 0.229266 0.719441 0.116313
H21   H     H_    0.012488 0.303853 0.731320 0.088518
H22   H     H_    0.890896 0.189554 0.700606 0.083355
C14   C     C_3   0.069563 0.203244 0.789042 -0.018267
H23   H     H_    0.197488 0.237575 0.806014 0.190230
H24   H     H_    0.065734 0.128182 0.777552 0.162744
P8    P     P_3+3 0.549839 0.396329 0.719940 0.538756
C15   C     C_3   0.531169 0.222988 0.673458 0.429790
H25   H     H_    0.663510 0.240078 0.667227 -0.020266
O23   O     O_2   0.421973 0.451396 0.755985 -0.325348
O24   O     O_3   0.483500 0.285914 0.731996 -0.512585
H26   H     H_    0.560911 0.126205 0.739610 0.300594
C16   C     C_3   0.493909 0.127864 0.688129 -0.764183
H27   H     H_    0.531366 0.077442 0.642340 0.218388
H28   H     H_    0.361511 0.108323 0.693218 0.263244
C17   C     C_R   0.990409 0.456575 0.045957 0.044250
C18   C     C_R   0.890857 0.411478 0.090695 0.038381
C19   C     C_R   0.733103 0.367374 0.063837 -0.205478
C20   C     C_R   0.672399 0.367700 0.993412 0.345318
C21   C     C_R   0.771765 0.412955 0.948082 -0.036831
C22   C     C_R   0.931499 0.456844 0.974187 0.042351
C23   C     C_R   0.714826 0.415047 0.877373 -0.108084
C24   C     C_R   0.816638 0.453755 0.829714 -0.052594
C25   C     C_R   0.977125 0.497623 0.855336 0.012270
C26   C     C_R   0.032876 0.500069 0.928332 0.043317
C27   C     C_R   0.762258 0.448556 0.756767 0.206843
C28   C     C_R   0.871045 0.482523 0.709171 -0.373609
C29   C     C_R   0.028478 0.531049 0.733567 0.289802
C30   C     C_R   0.080656 0.540604 0.808973 -0.059151
C31   C     C_R   0.149610 0.499834 0.072420 0.030210
C32   C     C_R   0.207692 0.500973 0.144853 0.039563
C33   C     C_R   0.104884 0.458153 0.191352 -0.017391
C34   C     C_R   0.949520 0.410439 0.161602 0.005353
H29   H     H_    0.657527 0.330670 0.097225 0.200121
H30   H     H_    0.829834 0.474653 0.652578 0.183926
H31   H     H_    0.590250 0.385382 0.859470 0.195858
H32   H     H_    0.871864 0.371989 0.193025 0.165163
C35   C     C_R   0.232295 0.591853 0.840130 -0.069139
C36   C     C_R   0.289945 0.591680 0.911374 0.087368
C37   C     C_R   0.191048 0.544542 0.955279 0.010097
C38   C     C_R   0.249969 0.543457 0.026747 0.035359
C39   C     C_R   0.446445 0.637519 0.939434 -0.120417
C40   C     C_R   0.507148 0.633021 0.008400 -0.148841
C41   C     C_R   0.409732 0.586429 0.052488 0.105223
C42   C     C_R   0.369433 0.544068 0.170000 0.003859
C43   C     C_R   0.469411 0.584111 0.122378 -0.186385
C44   C     C_R   0.426266 0.546515 0.242215 0.215816
C45   C     C_R   0.321202 0.509083 0.289031 -0.511123
C46   C     C_R   0.162070 0.463894 0.265416 0.241424
H33   H     H_    0.523003 0.676745 0.908166 0.170314
H34   H     H_    0.594165 0.615231 0.139031 0.193704
H35   H     H_    0.366393 0.512161 0.344325 0.172003
C47   C     C_R   0.848583 0.174170 0.544561 0.189500
C48   C     C_R   0.786751 0.080667 0.535504 -0.050284
C49   C     C_R   0.668898 0.888654 0.519002 -0.193918
C50   C     C_R   0.814670 0.935416 0.562690 0.439314
C51   C     C_R   0.870368 0.027308 0.567982 -0.246038
C52   C     C_R   0.604655 0.791538 0.506714 0.332432
H36   H     H_    0.982219 0.056715 0.600882 0.204356
C53   C     C_R   0.463270 0.755536 0.459245 -0.381274
C54   C     C_R   0.610658 0.191297 0.474272 0.224041
C55   C     C_R   0.550742 0.095094 0.460868 -0.197516
C56   C     C_R   0.638643 0.040203 0.494437 0.003202
C57   C     C_R   0.408548 0.049949 0.415676 0.407157
C58   C     C_R   0.348957 0.959032 0.411527 -0.212101
C59   C     C_R   0.431020 0.905308 0.445201 -0.027191
C60   C     C_R   0.580936 0.944183 0.485443 0.012394
C61   C     C_R   0.366709 0.812721 0.436538 0.206037
C62   C     C_R   0.756178 0.228751 0.517046 -0.527075
H37   H     H_    0.240279 0.929985 0.376174 0.199695
H38   H     H_    0.416428 0.683022 0.447617 0.171510
H39   H     H_    0.803472 0.300961 0.525319 0.161098
H40   H     H_    0.842452 0.292779 0.392715 0.091182
H41   H     H_    0.845824 0.120384 0.382158 0.210915
H42   H     H_    0.944210 0.121491 0.298401 0.288363
N1    N     N_R   0.858207 0.727664 0.723019 0.175734
O25   O     O_R   0.937041 0.737407 0.786042 -0.447157
O26   O     O_R   0.889481 0.667101 0.668261 -0.455743
N2    N     N_R   0.601444 0.643791 0.718330 0.198491
O27   O     O_R   0.609530 0.578030 0.662007 -0.305489
O28   O     O_R   0.585935 0.620936 0.780761 -0.496369
N3    N     N_R   0.719391 0.897082 0.791945 0.304372
O29   O     O_R   0.846888 0.936556 0.835900 -0.294356
O30   O     O_R   0.640404 0.946563 0.760576 -0.317850
H43   H     H_    0.514787 0.795486 0.790199 0.093716
N4    N     N_R   0.292669 0.283676 0.181164 0.233126
O31   O     O_R   0.148235 0.257443 0.147881 -0.326894
O32   O     O_R   0.396217 0.344283 0.159900 -0.413254
N5    N     N_R   0.636645 0.861824 0.222890 0.272920
O33   O     O_R   0.532839 0.917045 0.225899 -0.340586
O34   O     O_R   0.660544 0.811053 0.160012 -0.370901
N6    N     N_R   0.965714 0.229268 0.848283 0.247743
O35   O     O_R   0.811342 0.194823 0.841106 -0.338157
O36   O     O_R   0.031217 0.275667 0.912116 -0.323826
H44   H     H_    0.462135 0.222020 0.621662 0.141572
N7    N     N_R   0.511604 0.319073 0.967998 0.238182
O37   O     O_R   0.489942 0.251842 0.910221 -0.327019
O38   O     O_R   0.389769 0.333911 0.007659 -0.305767
H45   H     H_    0.307445 0.631795 0.809286 0.190472
H46   H     H_    0.629774 0.667512 0.027800 0.169732
N8    N     N_R   0.915627 0.895778 0.603993 0.227261
O39   O     O_R   0.893163 0.905887 0.673094 -0.392161
O40   O     O_R   0.064271 0.896526 0.585590 -0.411120
N9    N     N_R   0.329953 0.088618 0.365133 0.242883
O41   O     O_R   0.186462 0.107422 0.378693 -0.421281
O42   O     O_R   0.363415 0.065799 0.296982 -0.375282
N10   N     N_R   0.317767 0.773838 0.617129 0.202123
O43   O     O_R   0.396195 0.850857 0.607605 -0.427623
O44   O     O_R   0.305641 0.700083 0.565804 -0.424024

loop_
_geom_bond_atom_site_label_1
_geom_bond_atom_site_label_2
_geom_bond_distance
_ccdc_geom_bond_type
C25   C26   1.424307 A    
C1    N5    1.458907 S    
C35   C36   1.408363 A    
P3    C61   1.874426 S    
N6    O36   1.300374 A    
C2    C3    1.521023 S    
C4    O15   1.404740 S    
C45   C46   1.402464 A    
O4    P6    1.541603 D    
C58   C59   1.390558 A    
C19   C20   1.402868 A    
C28   C29   1.407397 A    
N4    O31   1.300562 A    
N9    O42   1.300640 A    
C36   C37   1.410731 A    
C23   C24   1.410703 A    
C47   C48   1.405986 A    
P6    C44   1.855384 S    
C32   C42   1.418762 A    
C5    H8    1.103502 S    
C31   C32   1.425183 A    
C19   H29   1.081566 S    
C21   C22   1.410877 A    
C49   C60   1.439514 A    
C39   H33   1.079710 S    
C9    H13   1.112091 S    
C28   H30   1.081099 S    
C16   H28   1.110593 S    
P4    O15   1.781037 S    
C33   C46   1.435404 A    
N4    O32   1.298484 A    
P1    C46   1.894687 S    
P4    O12   1.537712 D    
C12   H19   1.112394 S    
C40   C41   1.402274 A    
C56   C60   1.435823 A    
O2    Ba2   2.798841 S    
C6    H40   1.106712 S    
C42   C43   1.411339 A    
C54   C62   1.399163 A    
C36   C39   1.403649 A    
P7    O22   1.748802 S    
P1    O1    1.537338 D    
P7    C54   1.856128 S    
C49   C50   1.434596 A    
C8    N1    1.425621 S    
C44   C45   1.405536 A    
C9    H43   1.107696 S    
N7    O37   1.301235 A    
P2    Ba1   3.445931 S    
C7    H41   1.107775 S    
C12   N4    1.451978 S    
P3    O11   1.748144 S    
P8    O24   1.752023 S    
C6    C7    1.525397 S    
C18   C34   1.408739 A    
C4    N10   1.431262 S    
C48   C56   1.409208 A    
P4    Ba2   3.414602 S    
P2    O20   1.586198 S    
N1    O26   1.285560 A    
O5    C6    1.396816 S    
C3    H5    1.110521 S    
C41   C43   1.399251 A    
Ba1   O16   2.825274 S    
P2    C52   1.902251 S    
C1    H15   1.112300 S    
O8    Ba1   2.795781 S    
C31   C38   1.412930 A    
N3    O30   1.301131 A    
C51   H36   1.076970 S    
N3    O29   1.301005 A    
Ba2   O20   2.824689 S    
Ba1   O20   2.949154 S    
C11   H17   1.111263 S    
N6    O35   1.301519 A    
C3    H20   1.106381 S    
C53   H38   1.081942 S    
C14   H23   1.113384 S    
C13   C14   1.527333 S    
O7    Ba1   2.882489 S    
C16   H27   1.109388 S    
O6    P6    1.752886 S    
C48   C51   1.381196 A    
N9    O41   1.298570 A    
C24   C25   1.414311 A    
C2    H3    1.110302 S    
C11   O22   1.401673 S    
C10   H14   1.108044 S    
P4    C29   1.915874 S    
P1    O5    1.749635 S    
P7    O21   1.579853 D    
P1    O2    1.557478 S    
C8    C9    1.559873 S    
C13   H22   1.110780 S    
O2    Ba1   2.962560 S    
H26   C16   1.109439 S    
C17   C22   1.421352 A    
C23   H31   1.075987 S    
N8    O39   1.294928 A    
P5    C47   1.861633 S    
P2    O10   1.801093 S    
C6    H11   1.109469 S    
C47   C62   1.392232 A    
P3    O9    1.541903 D    
C7    H42   1.110053 S    
C50   C51   1.383590 A    
P8    O23   1.547637 D    
N7    O38   1.300205 A    
C7    H12   1.109005 S    
Ba1   O13   2.798187 S    
C40   H46   1.083653 S    
C4    H7    1.087723 S    
P5    O17   1.735752 S    
C43   H34   1.077718 S    
C30   C35   1.408733 A    
C21   C23   1.405235 A    
N5    O34   1.300700 A    
C3    H6    1.110741 S    
C55   C56   1.431837 A    
N2    O28   1.299439 A    
P8    C27   1.865219 S    
C57   C58   1.379175 A    
H1    C10   1.110790 S    
O19   C13   1.401189 S    
C26   C37   1.405350 A    
C59   C60   1.410815 A    
C1    H2    1.110928 S    
O17   Ba2   2.796522 S    
Ba1   Ba2   4.635516 S    
O13   Ba2   2.963485 S    
C15   H44   1.111385 S    
C11   H16   1.108429 S    
C35   H45   1.074620 S    
C53   C61   1.404818 A    
C1    C10   1.526785 S    
C22   C26   1.416923 A    
O6    C10   1.404229 S    
C4    C5    1.544196 S    
C18   C19   1.400613 A    
O12   Ba2   2.827634 S    
C24   C27   1.410537 A    
C50   N8    1.420478 S    
C15   O24   1.404325 S    
N1    O25   1.302939 A    
C17   C31   1.406212 A    
C14   N6    1.457513 S    
C39   C40   1.396170 A    
C5    H9    1.107462 S    
O11   C2    1.400078 S    
O3    P6    1.734769 S    
O1    Ba1   2.827088 S    
C13   H21   1.113494 S    
N8    O40   1.298899 A    
P3    O8    1.715270 S    
C15   H25   1.109987 S    
O10   C8    1.430544 S    
C58   H37   1.077729 S    
P4    O13   1.557505 S    
C20   N7    1.434977 S    
P2    O7    1.524577 D    
C12   H18   1.111398 S    
C15   C16   1.521923 S    
N10   O44   1.295936 A    
O16   P7    1.754279 S    
C62   H39   1.082540 S    
C34   H32   1.079730 S    
P1    Ba1   3.414025 S    
O14   Ba2   2.808569 S    
C42   C44   1.413142 A    
C2    H4    1.109228 S    
C32   C33   1.429175 A    
P5    O18   1.542129 D    
O3    Ba1   2.809091 S    
C52   C53   1.412806 A    
C8    N2    1.458350 S    
C17   C18   1.408206 A    
C9    N3    1.458981 S    
N5    O33   1.300314 A    
C5    H10   1.105530 S    
C57   N9    1.421359 S    
C20   C21   1.416722 A    
N10   O43   1.300289 A    
Ba2   O21   2.882789 S    
C37   C38   1.419492 A    
C55   C57   1.419525 A    
N2    O27   1.297774 A    
O14   P8    1.726761 S    
C45   H35   1.082011 S    
C14   H24   1.112791 S    
C27   C28   1.412324 A    
C25   C30   1.431804 A    
P5    O19   1.747876 S    
C49   C52   1.455056 A    
C38   C41   1.406313 A    
C33   C34   1.411192 A    
C29   C30   1.436807 A    
O16   Ba2   2.948296 S    
C54   C55   1.433948 A    
C59   C61   1.398204 A    
C11   C12   1.531887 S    
