data_mof_unit_24973.cif
_audit_creation_date              2012-12-10T19:00:14-0500
_audit_creation_method            fapswitch 2.2
_symmetry_space_group_name_H-M    P1
_symmetry_Int_Tables_number       1
_space_group_crystal_system       triclinic
_cell_length_a                    9.581724
_cell_length_b                    10.975136
_cell_length_c                    13.524346
_cell_angle_alpha                 92.589185
_cell_angle_beta                  73.975635
_cell_angle_gamma                 91.191836
_cell_volume                      1365.52150197

loop_
_atom_site_label
_atom_site_type_symbol
_atom_type_description
_atom_site_fract_x
_atom_site_fract_y
_atom_site_fract_z
_atom_type_partial_charge
C1    C     C_R   0.502360 0.737069 0.499014 0.837177
C2    C     C_R   0.441890 0.474247 0.975649 0.092791
C3    C     C_R   0.488531 0.460805 0.866843 0.076153
C4    C     C_R   0.548057 0.496962 0.030130 0.050477
C5    C     C_R   0.693674 0.521168 0.974934 0.052251
C6    C     C_R   0.739075 0.488065 0.870415 -0.235959
C7    C     C_R   0.638500 0.447678 0.819806 -0.137891
C8    C     C_R   0.515099 0.494041 0.137106 -0.278855
C9    C     C_R   0.756676 0.568441 0.134357 0.160590
C10   C     C_R   0.384027 0.461661 0.809558 -0.102531
C11   C     C_R   0.380954 0.933862 0.509976 0.072555
C12   C     C_R   0.424225 0.486750 0.698264 0.801477
C13   C     C_R   0.506618 0.869645 0.501830 -0.205920
C14   C     C_R   0.634258 0.940056 0.499324 0.033177
C15   C     C_R   0.624190 0.068333 0.516093 0.417691
C16   C     C_R   0.498057 0.129834 0.509548 -0.181452
C17   C     C_R   0.378232 0.057013 0.508012 -0.038220
C18   C     C_3   0.222880 0.055858 0.506529 -0.070269
C19   C     C_3   0.226829 0.915539 0.510104 0.208509
C20   C     C_R   0.957183 0.452416 0.416952 0.134949
C21   C     C_R   0.898662 0.560647 0.576288 0.214148
C22   C     C_R   0.047698 0.559879 0.575504 -0.096032
C23   C     C_R   0.497758 0.262747 0.503899 0.847535
C24   C     C_R   0.104665 0.450811 0.417824 0.194720
C25   C     C_3   0.116346 0.319756 0.383562 -0.088091
C26   C     C_3   0.961431 0.324231 0.375264 0.114058
C27   C     C_R   0.577121 0.507206 0.301214 0.800213
C28   C     C_R   0.791698 0.571259 0.026985 0.152711
C29   C     C_R   0.619785 0.521306 0.189287 -0.147096
C30   C     C_R   0.236975 0.445874 0.861505 -0.204278
C31   C     C_R   0.191946 0.445999 0.968438 -0.109666
C32   C     C_R   0.291438 0.468224 0.025010 -0.160427
Cu1   Cu    Cu3+1 0.359330 0.500020 0.500010 0.978747
Cu2   Cu    Cu3+1 0.640670 0.499980 0.499990 0.951791
H1    H     H_    0.208035 0.084635 0.432754 0.123242
H2    H     H_    0.214165 0.864762 0.439863 0.087615
H3    H     H_    0.082175 0.605605 0.637428 0.169168
H4    H     H_    0.127653 0.264557 0.446780 0.167109
H5    H     H_    0.852634 0.487072 0.827949 0.142967
H6    H     H_    0.887854 0.260983 0.426307 0.191588
H7    H     H_    0.409662 0.464885 0.180961 0.178620
H8    H     H_    0.155930 0.436918 0.819410 0.148263
H9    H     H_    0.246974 0.483710 0.106662 0.132182
H10   H     H_    0.077956 0.435669 0.008186 0.170078
H11   H     H_    0.681413 0.406533 0.743831 0.202574
N1    N     N_R   0.852320 0.499070 0.499340 -0.211562
N2    N     N_R   0.148230 0.499110 0.499340 -0.211310
O1    O     O_R   0.381190 0.680360 0.500000 -0.554794
O2    O     O_R   0.618780 0.680320 0.499990 -0.608332
O3    O     O_R   0.323230 0.500000 0.650990 -0.585499
O4    O     O_R   0.560820 0.499960 0.650980 -0.567979
O5    O     O_R   0.381220 0.319680 0.500010 -0.564802
O6    O     O_R   0.618810 0.319640 0.500000 -0.550777
O7    O     O_R   0.439180 0.500040 0.349020 -0.566086
O8    O     O_R   0.676770 0.500000 0.349010 -0.602728
N3    N     N_3   0.859599 0.618035 0.185131 -0.552544
H12   H     H_    0.807655 0.681983 0.242416 0.213489
H13   H     H_    0.900233 0.547537 0.218179 0.260291
O9    O     O_3   0.733777 0.133805 0.542841 -0.751266
H14   H     H_    0.801063 0.077563 0.561292 0.329683
N4    N     N_3   0.128891 0.117916 0.598346 -0.555654
H15   H     H_    0.021708 0.092218 0.603525 0.220408
H16   H     H_    0.152694 0.089872 0.664796 0.274149
O10   O     O_3   0.144159 0.868602 0.603040 -0.713228
H17   H     H_    0.044955 0.855899 0.595095 0.309987
N5    N     N_3   0.796342 0.621172 0.661021 -0.552822
H18   H     H_    0.745175 0.688851 0.633311 0.239785
H19   H     H_    0.849203 0.665609 0.710684 0.180636
N6    N     N_3   0.228654 0.295729 0.287029 -0.550217
H20   H     H_    0.221049 0.203566 0.265880 0.234765
H21   H     H_    0.208758 0.345651 0.228729 0.260053
O11   O     O_3   0.950661 0.318244 0.273798 -0.738201
H22   H     H_    0.846127 0.306050 0.278761 0.343508
N7    N     N_3   0.920198 0.635742 0.973358 -0.552224
H23   H     H_    0.985604 0.578174 0.917182 0.200597
H24   H     H_    0.888510 0.707179 0.935962 0.224634
N8    N     N_3   0.776497 0.887808 0.472023 -0.610216
H25   H     H_    0.792078 0.833525 0.404407 0.240597
H26   H     H_    0.789151 0.837556 0.532178 0.219219

loop_
_geom_bond_atom_site_label_1
_geom_bond_atom_site_label_2
_ccdc_geom_bond_type
N5    H19   S    
C21   N5    S    
C27   C29   S    
C26   O11   S    
C4    C8    A    
C28   N7    S    
C27   O7    A    
N8    H25   S    
Cu1   O5    S    
C11   C19   S    
Cu2   O4    S    
N7    H24   S    
C8    C29   A    
C7    H11   S    
C3    C7    A    
C19   H2    S    
C5    C6    A    
C27   O8    A    
C15   C16   A    
N3    H12   S    
C2    C32   A    
C18   C19   S    
C14   N8    S    
N6    H21   S    
C20   C24   A    
C16   C17   A    
C23   O6    A    
Cu2   N1    S    
C18   H1    S    
C9    C29   A    
C22   N2    A    
O9    H14   S    
C13   C14   A    
N6    H20   S    
Cu1   Cu2   S    
N8    H26   S    
C31   H10   S    
C24   C25   S    
N7    H23   S    
C4    C5    A    
C25   C26   S    
C22   H3    S    
C2    C4    A    
C25   H4    S    
C5    C28   A    
C10   C30   A    
C31   C32   A    
C19   O10   S    
N4    H16   S    
C17   C18   S    
C1    O1    A    
C9    N3    S    
C8    H7    S    
C10   C12   S    
C16   C23   S    
Cu1   N2    S    
C25   N6    S    
C12   O4    A    
C21   N1    A    
Cu1   O7    S    
C11   C17   A    
Cu2   O2    S    
C6    H5    S    
C24   N2    A    
C15   O9    S    
O11   H22   S    
C12   O3    A    
C18   N4    S    
C6    C7    A    
O10   H17   S    
C2    C3    A    
Cu1   O3    S    
C3    C10   A    
C11   C13   A    
C26   H6    S    
C23   O5    A    
C30   C31   A    
C20   C26   S    
C32   H9    S    
N3    H13   S    
N5    H18   S    
N4    H15   S    
Cu2   O8    S    
C1    C13   S    
Cu2   O6    S    
Cu1   O1    S    
C14   C15   A    
C30   H8    S    
C21   C22   A    
C1    O2    A    
C20   N1    A    
C9    C28   A    
