data_mof_unit_61831.cif
_audit_creation_date              2012-12-10T20:28:25-0500
_audit_creation_method            fapswitch 2.2
_symmetry_space_group_name_H-M    P1
_symmetry_Int_Tables_number       1
_space_group_crystal_system       triclinic
_cell_length_a                    25.978296
_cell_length_b                    36.282109
_cell_length_c                    22.272753
_cell_angle_alpha                 89.999733
_cell_angle_beta                  125.486674
_cell_angle_gamma                 90.001126
_cell_volume                      17093.6634901

loop_
_atom_site_label
_atom_site_type_symbol
_atom_type_description
_atom_site_fract_x
_atom_site_fract_y
_atom_site_fract_z
_atom_type_partial_charge
C1    C     C_R   0.139945 0.249805 0.999433 0.895665
C2    C     C_R   0.287349 0.768598 0.190305 -0.091433
C3    C     C_R   0.685561 0.758141 0.461665 -0.142774
C4    C     C_R   0.185789 0.741233 0.461671 -0.142679
C5    C     C_R   0.814110 0.259034 0.538331 -0.142666
C6    C     C_R   0.814439 0.741860 0.538335 -0.142723
C7    C     C_R   0.185539 0.258078 0.461664 -0.142731
C8    C     C_1   0.671735 0.249909 0.343460 -0.044350
C9    C     C_1   0.328264 0.750092 0.656539 -0.044162
C10   C     C_1   0.328256 0.249908 0.656540 -0.043691
C11   C     C_1   0.671743 0.750092 0.343460 -0.043742
C12   C     C_1   0.171736 0.749908 0.343461 -0.044124
C13   C     C_R   0.287289 0.231674 0.190366 -0.091352
C14   C     C_1   0.828265 0.250091 0.656540 -0.044309
C15   C     C_1   0.828257 0.749908 0.656540 -0.043701
C16   C     C_1   0.171744 0.250092 0.343460 -0.043650
C17   C     C_1   0.861504 0.250094 0.722973 -0.100687
C18   C     C_1   0.138497 0.749905 0.277028 -0.100619
C19   C     C_1   0.138502 0.250096 0.277028 -0.100415
C20   C     C_1   0.861498 0.749904 0.722972 -0.100443
C21   C     C_1   0.361503 0.750095 0.722972 -0.100671
C22   C     C_1   0.638496 0.249905 0.277027 -0.100745
C23   C     C_1   0.638502 0.750097 0.277028 -0.100501
C24   C     C_R   0.712694 0.768347 0.809633 -0.091362
C25   C     C_1   0.361498 0.249903 0.722972 -0.100470
C26   C     C_R   0.056779 0.980727 0.045942 -0.163046
C27   C     C_R   0.943221 0.019273 0.954058 -0.163043
C28   C     C_R   0.943221 0.980726 0.954058 -0.163050
C29   C     C_R   0.056779 0.019274 0.045942 -0.163054
C30   C     C_R   0.556640 0.480727 0.046745 -0.163127
C31   C     C_R   0.443360 0.519273 0.953254 -0.163131
C32   C     C_R   0.443360 0.480726 0.953254 -0.163139
C33   C     C_R   0.556640 0.519274 0.046745 -0.163136
C34   C     C_R   0.000000 0.961380 0.000000 0.150935
C35   C     C_R   0.212657 0.731399 0.809700 -0.091455
C36   C     C_R   1.000000 0.038620 1.000000 0.150934
C37   C     C_R   0.500000 0.461380 0.000000 0.150937
C38   C     C_R   0.500000 0.538620 1.000000 0.150938
C39   C     C_1   0.000001 0.921727 0.000000 -0.054243
C40   C     C_1   0.999999 0.078272 1.000000 -0.054242
C41   C     C_1   0.500001 0.421727 0.000000 -0.054315
C42   C     C_1   0.499999 0.578272 1.000000 -0.054315
C43   C     C_1   0.999999 0.111490 0.999999 -0.113802
C44   C     C_1   0.000001 0.888510 0.000001 -0.113802
C45   C     C_1   0.499999 0.611490 0.999999 -0.113851
C46   C     C_R   0.787361 0.268720 0.190270 -0.091496
C47   C     C_1   0.500001 0.388510 0.000001 -0.113851
C48   C     C_R   0.999999 0.151008 1.000000 0.836749
C49   C     C_R   0.000000 0.848991 0.000000 0.836753
C50   C     C_R   0.499999 0.651008 1.000000 0.836745
C51   C     C_R   0.500000 0.348991 0.000000 0.836740
C52   C     C_R   0.000000 0.349013 0.000000 0.807465
C53   C     C_R   1.000000 0.650987 1.000000 0.807465
C54   C     C_R   0.500000 0.849013 0.000000 0.807483
C55   C     C_R   0.499999 0.150987 1.000000 0.807483
C56   C     C_R   0.016480 0.519273 0.959013 -0.167853
C57   C     C_R   0.787306 0.731653 0.190367 -0.091387
C58   C     C_R   0.983521 0.480727 0.040988 -0.167845
C59   C     C_R   0.983521 0.519272 0.040987 -0.167876
C60   C     C_R   0.016481 0.480728 0.959014 -0.167880
C61   C     C_R   0.509725 0.019273 0.952930 -0.167929
C62   C     C_R   0.490273 0.980727 0.047068 -0.167936
C63   C     C_R   0.490273 0.019272 0.047068 -0.167961
C64   C     C_R   0.509726 0.980727 0.952931 -0.167956
C65   C     C_R   0.000000 0.538616 0.000000 0.153231
C66   C     C_R   0.000001 0.461384 0.000001 0.153229
C67   C     C_R   0.499999 0.038616 0.999999 0.153088
C68   C     C_R   0.212712 0.268327 0.809635 -0.091377
C69   C     C_R   0.500000 0.961384 1.000000 0.153088
C70   C     C_1   1.000000 0.578263 1.000000 -0.064821
C71   C     C_1   0.000001 0.421737 0.000001 -0.064819
C72   C     C_1   0.499999 0.078262 0.999999 -0.064877
C73   C     C_1   0.500000 0.921737 0.000000 -0.064879
C74   C     C_1   0.000001 0.388524 0.000001 -0.122499
C75   C     C_1   1.000000 0.611476 1.000000 -0.122507
C76   C     C_1   0.500000 0.888524 0.000000 -0.122536
C77   C     C_1   0.499999 0.111476 0.999999 -0.122527
C78   C     C_R   0.708677 0.236104 0.744804 0.440262
C79   C     C_R   0.737214 0.259458 0.862737 0.133049
C80   C     C_R   0.291286 0.763730 0.255204 0.440239
C81   C     C_R   0.291162 0.236647 0.255204 0.440203
C82   C     C_R   0.708815 0.763383 0.744789 0.440203
C83   C     C_R   0.208722 0.736267 0.744800 0.440264
C84   C     C_R   0.791324 0.263896 0.255196 0.440284
C85   C     C_R   0.791185 0.736616 0.255211 0.440226
C86   C     C_R   0.208839 0.263354 0.744796 0.440227
C87   C     C_R   0.262763 0.740454 0.137231 0.132948
C88   C     C_R   0.262712 0.259750 0.137155 0.132713
C89   C     C_R   0.860055 0.750195 0.000566 0.895649
C90   C     C_R   0.737283 0.740267 0.862838 0.132734
C91   C     C_R   0.237236 0.759545 0.862770 0.132921
C92   C     C_R   0.762786 0.240542 0.137263 0.133024
C93   C     C_R   0.762717 0.759733 0.137162 0.132708
C94   C     C_R   0.237287 0.240250 0.862845 0.132687
C95   C     C_R   0.757840 0.292438 0.850142 -0.148674
C96   C     C_R   0.242101 0.707460 0.149733 -0.148743
C97   C     C_R   0.242001 0.292782 0.149459 -0.148902
C98   C     C_R   0.758000 0.707241 0.850522 -0.148888
C99   C     C_R   0.257892 0.792540 0.850263 -0.148662
C100  C     C_R   0.860051 0.249807 0.000558 0.895442
C101  C     C_R   0.742159 0.207562 0.149858 -0.148593
C102  C     C_R   0.741999 0.792758 0.149478 -0.148806
C103  C     C_R   0.257998 0.207219 0.850540 -0.148820
C104  C     C_R   0.753762 0.297176 0.785216 -0.212651
C105  C     C_R   0.246154 0.702677 0.214634 -0.212645
C106  C     C_R   0.245994 0.297671 0.214300 -0.212627
C107  C     C_R   0.754002 0.702362 0.785675 -0.212633
C108  C     C_R   0.253839 0.797323 0.785363 -0.212677
C109  C     C_R   0.746238 0.202824 0.214784 -0.212682
C110  C     C_R   0.745998 0.797637 0.214325 -0.212665
C111  C     C_R   0.139948 0.750194 0.999439 0.895507
C112  C     C_R   0.254005 0.202330 0.785699 -0.212658
C113  C     C_R   0.729133 0.269084 0.732552 -0.163007
C114  C     C_R   0.270793 0.730738 0.267363 -0.163163
C115  C     C_R   0.270619 0.269678 0.267165 -0.163523
C116  C     C_R   0.729364 0.730359 0.732816 -0.163489
C117  C     C_R   0.229208 0.769261 0.732637 -0.163188
C118  C     C_R   0.770868 0.230916 0.267448 -0.163028
C119  C     C_R   0.770636 0.769640 0.267184 -0.163510
C120  C     C_R   0.229381 0.230324 0.732835 -0.163546
C121  C     C_R   0.189702 0.753728 0.932787 0.348440
C122  C     C_R   0.639945 0.749805 0.999434 0.895658
C123  C     C_R   0.810303 0.246309 0.067220 0.348424
C124  C     C_R   0.810288 0.753805 0.067198 0.348464
C125  C     C_R   0.189713 0.246189 0.932803 0.348473
C126  C     C_R   0.689697 0.253691 0.932780 0.348419
C127  C     C_R   0.310298 0.746272 0.067213 0.348430
C128  C     C_R   0.310287 0.253811 0.067197 0.348466
C129  C     C_R   0.689712 0.746195 0.932802 0.348458
C130  C     C_R   0.196170 0.749786 0.999755 -0.201355
C131  C     C_R   0.803829 0.250214 0.000242 -0.201371
C132  C     C_R   0.803834 0.749784 0.000253 -0.201325
C133  C     C_R   0.360055 0.250195 0.000567 0.895675
C134  C     C_R   0.196166 0.250216 0.999747 -0.201333
C135  C     C_R   0.696171 0.249786 0.999758 -0.201357
C136  C     C_R   0.303830 0.750214 0.000246 -0.201340
C137  C     C_R   0.303834 0.249784 0.000253 -0.201318
C138  C     C_R   0.696166 0.750216 0.999747 -0.201311
C139  C     C_R   0.256368 0.746042 0.067153 -0.123700
C140  C     C_R   0.743625 0.253919 0.932835 -0.123725
C141  C     C_R   0.743648 0.745959 0.932871 -0.123657
C142  C     C_R   0.256351 0.254048 0.067126 -0.123658
C143  C     C_R   0.756375 0.246081 0.067165 -0.123724
C144  C     C_R   0.360052 0.749806 0.000561 0.895518
C145  C     C_R   0.243632 0.753958 0.932847 -0.123704
C146  C     C_R   0.243649 0.245952 0.932874 -0.123658
C147  C     C_R   0.756352 0.754041 0.067129 -0.123656
C148  C     C_R   0.775577 0.258970 0.461226 -0.155611
C149  C     C_R   0.224321 0.741297 0.538774 -0.155365
C150  C     C_R   0.224067 0.258016 0.538767 -0.154724
C151  C     C_R   0.775911 0.741922 0.461232 -0.154789
C152  C     C_R   0.275679 0.758703 0.461226 -0.155374
C153  C     C_R   0.724423 0.241030 0.538774 -0.155619
C154  C     C_R   0.724089 0.758078 0.538768 -0.154795
C155  C     C_R   0.639949 0.250193 0.999442 0.895451
C156  C     C_R   0.275933 0.241984 0.461233 -0.154732
C157  C     C_R   0.711399 0.249935 0.422756 0.131934
C158  C     C_R   0.288602 0.750066 0.577244 0.131965
C159  C     C_R   0.288598 0.249935 0.577244 0.132073
C160  C     C_R   0.711402 0.750065 0.422756 0.132062
C161  C     C_R   0.211398 0.749935 0.422756 0.131967
C162  C     C_R   0.788602 0.250065 0.577244 0.131936
C163  C     C_R   0.788598 0.749936 0.577244 0.132064
C164  C     C_R   0.211402 0.250064 0.422756 0.132075
C165  C     C_R   0.099029 0.250053 0.198009 0.838836
C166  C     C_R   0.712640 0.231281 0.809730 -0.091470
C167  C     C_R   0.900971 0.749947 0.801991 0.838855
C168  C     C_R   0.900973 0.250051 0.801991 0.838966
C169  C     C_R   0.099028 0.749948 0.198009 0.838943
C170  C     C_R   0.599029 0.750052 0.198009 0.838838
C171  C     C_R   0.400971 0.249947 0.801991 0.838818
C172  C     C_R   0.400972 0.750052 0.801991 0.838925
C173  C     C_R   0.599027 0.249949 0.198009 0.838948
C174  C     C_R   0.685890 0.240966 0.461669 -0.142719
C175  C     C_R   0.314211 0.758767 0.538329 -0.142730
C176  C     C_R   0.314461 0.241922 0.538336 -0.142782
Cl1   Cl    Cl    0.678574 0.200696 0.679087 -0.594039
Cl2   Cl    Cl    0.885737 0.238918 0.150942 -0.587410
Cl3   Cl    Cl    0.885699 0.761314 0.150874 -0.587457
Cl4   Cl    Cl    0.114303 0.238674 0.849129 -0.587430
Cl5   Cl    Cl    0.614263 0.261082 0.849058 -0.587446
Cl6   Cl    Cl    0.385725 0.738843 0.150920 -0.587481
Cl7   Cl    Cl    0.385697 0.261326 0.150871 -0.587467
Cl8   Cl    Cl    0.614300 0.738686 0.849126 -0.587493
Cl9   Cl    Cl    0.321397 0.799099 0.321004 -0.594022
Cl10  Cl    Cl    0.321247 0.201360 0.321169 -0.593931
Cl11  Cl    Cl    0.678713 0.798674 0.678831 -0.593927
Cl12  Cl    Cl    0.178619 0.700896 0.679007 -0.593980
Cl13  Cl    Cl    0.821426 0.299304 0.320913 -0.593994
Cl14  Cl    Cl    0.821287 0.701325 0.321169 -0.593884
Cl15  Cl    Cl    0.178756 0.298642 0.678833 -0.593885
Cl16  Cl    Cl    0.114276 0.761156 0.849080 -0.587441
H1    H     H_    0.029300 0.466034 0.927132 0.151936
H2    H     H_    0.899054 0.966032 0.918321 0.154940
H3    H     H_    0.899054 0.033965 0.918321 0.154954
H4    H     H_    0.100946 0.966035 0.081679 0.154945
H5    H     H_    0.600698 0.533968 0.083107 0.154957
H6    H     H_    0.399302 0.466032 0.916893 0.154954
H7    H     H_    0.399302 0.533965 0.916892 0.154964
H8    H     H_    0.600698 0.466035 0.083107 0.154971
H9    H     H_    0.726152 0.272934 0.682431 0.155121
H10   H     H_    0.273751 0.726853 0.317462 0.154990
H11   H     H_    0.273524 0.273644 0.317212 0.154639
H12   H     H_    0.970702 0.533966 0.072869 0.151943
H13   H     H_    0.726455 0.726399 0.682764 0.154671
H14   H     H_    0.226250 0.773145 0.682538 0.154970
H15   H     H_    0.773848 0.227067 0.317569 0.155102
H16   H     H_    0.773545 0.773600 0.317236 0.154652
H17   H     H_    0.226476 0.226357 0.682788 0.154620
H18   H     H_    0.697219 0.205587 0.819271 0.173490
H19   H     H_    0.302797 0.794303 0.180835 0.173501
H20   H     H_    0.302771 0.205940 0.181045 0.173493
H21   H     H_    0.697207 0.794076 0.818963 0.173505
H22   H     H_    0.197215 0.705694 0.819173 0.173475
H23   H     H_    0.970702 0.466034 0.072870 0.151960
H24   H     H_    0.802782 0.294414 0.180729 0.173468
H25   H     H_    0.802793 0.705924 0.181037 0.173484
H26   H     H_    0.197231 0.294061 0.818956 0.173472
H27   H     H_    0.777314 0.314317 0.890763 0.139384
H28   H     H_    0.222618 0.685607 0.109058 0.139453
H29   H     H_    0.222520 0.314582 0.108673 0.139637
H30   H     H_    0.777489 0.685438 0.891302 0.139613
H31   H     H_    0.277370 0.814395 0.890935 0.139557
H32   H     H_    0.722686 0.185684 0.109237 0.139483
H33   H     H_    0.722510 0.814561 0.108698 0.139712
H34   H     H_    0.029299 0.533966 0.927131 0.151952
H35   H     H_    0.277478 0.185418 0.891325 0.139738
H36   H     H_    0.769859 0.322598 0.775801 0.159137
H37   H     H_    0.230029 0.677246 0.223977 0.159162
H38   H     H_    0.229830 0.323131 0.223490 0.159239
H39   H     H_    0.770170 0.676907 0.776475 0.159226
H40   H     H_    0.269960 0.822756 0.776016 0.159109
H41   H     H_    0.730140 0.177403 0.224200 0.159081
H42   H     H_    0.729829 0.823093 0.223525 0.159170
H43   H     H_    0.270168 0.176869 0.776508 0.159183
H44   H     H_    0.863684 0.266057 0.567554 0.170538
H45   H     H_    0.517291 0.966034 0.916318 0.152133
H46   H     H_    0.136135 0.734417 0.432449 0.170549
H47   H     H_    0.135690 0.264358 0.432438 0.170570
H48   H     H_    0.864271 0.735531 0.567561 0.170566
H49   H     H_    0.363865 0.765583 0.567551 0.170532
H50   H     H_    0.636316 0.233942 0.432446 0.170519
H51   H     H_    0.635729 0.764469 0.432439 0.170549
H52   H     H_    0.364310 0.235642 0.567562 0.170552
H53   H     H_    0.795774 0.265959 0.431695 0.188745
H54   H     H_    0.204044 0.734514 0.568307 0.188582
H55   H     H_    0.203589 0.264265 0.568289 0.188075
H56   H     H_    0.482707 0.033966 0.083680 0.152127
H57   H     H_    0.796371 0.735625 0.431709 0.188122
H58   H     H_    0.295955 0.765486 0.431693 0.188578
H59   H     H_    0.704226 0.234040 0.568305 0.188741
H60   H     H_    0.703629 0.764376 0.568291 0.188119
H61   H     H_    0.296411 0.235735 0.431711 0.188072
H62   H     H_    0.482708 0.966034 0.083681 0.152143
H63   H     H_    0.517291 0.033966 0.916317 0.152151
H64   H     H_    0.100946 0.033968 0.081679 0.154936
O1    O     O_3   0.000000 0.249990 0.000000 -0.505346
O2    O     O_R   0.405540 0.228660 0.042720 -0.601347
O3    O     O_R   0.405540 0.771340 0.042720 -0.601209
O4    O     O_R   0.594460 0.228660 0.957280 -0.601150
O5    O     O_R   0.111850 0.228640 0.162930 -0.629225
O6    O     O_R   0.888150 0.771360 0.837070 -0.629229
O7    O     O_R   0.888150 0.228640 0.837070 -0.629321
O8    O     O_R   0.111850 0.771360 0.162930 -0.629290
O9    O     O_R   0.611850 0.728640 0.162930 -0.629216
O10   O     O_R   0.388150 0.271360 0.837070 -0.629213
O11   O     O_R   0.388150 0.728640 0.837070 -0.629276
O12   O     O_3   0.000000 0.750010 0.000000 -0.505346
O13   O     O_R   0.611850 0.271360 0.162930 -0.629308
O14   O     O_R   0.051760 0.168530 0.042720 -0.627902
O15   O     O_R   0.948240 0.831470 0.957280 -0.627901
O16   O     O_R   0.948240 0.168530 0.957280 -0.627906
O17   O     O_R   0.051760 0.831470 0.042720 -0.627908
O18   O     O_R   0.551760 0.668530 0.042720 -0.627913
O19   O     O_R   0.448240 0.331470 0.957280 -0.627911
O20   O     O_R   0.448240 0.668530 0.957280 -0.627917
O21   O     O_R   0.551760 0.331470 0.042720 -0.627917
O22   O     O_R   0.009000 0.331450 0.957280 -0.637763
O23   O     O_3   0.500000 0.749990 0.000000 -0.505327
O24   O     O_R   0.991000 0.668550 0.042720 -0.637753
O25   O     O_R   0.991000 0.331450 0.042720 -0.637690
O26   O     O_R   0.009000 0.668550 0.957280 -0.637704
O27   O     O_R   0.509000 0.831450 0.957280 -0.637774
O28   O     O_R   0.491000 0.168550 0.042720 -0.637786
O29   O     O_R   0.491000 0.831450 0.042720 -0.637727
O30   O     O_R   0.509000 0.168550 0.957280 -0.637711
O31   O     O_R   0.051110 0.271360 0.162930 -0.615460
O32   O     O_R   0.948890 0.728640 0.837070 -0.615482
O33   O     O_R   0.948890 0.271360 0.837070 -0.615525
O34   O     O_3   0.500000 0.250010 0.000000 -0.505327
O35   O     O_R   0.051110 0.728640 0.162930 -0.615523
O36   O     O_R   0.551110 0.771360 0.162930 -0.615546
O37   O     O_R   0.448890 0.228640 0.837070 -0.615524
O38   O     O_R   0.448890 0.771360 0.837070 -0.615587
O39   O     O_R   0.551110 0.228640 0.162930 -0.615589
O40   O     O_R   0.137190 0.228630 0.042710 -0.644811
O41   O     O_R   0.862810 0.771370 0.957290 -0.644813
O42   O     O_R   0.862810 0.228630 0.957290 -0.644889
O43   O     O_R   0.137190 0.771370 0.042710 -0.644866
O44   O     O_R   0.637190 0.728630 0.042710 -0.644833
O45   O     O_R   0.094460 0.271340 0.957280 -0.601396
O46   O     O_R   0.362810 0.271370 0.957290 -0.644832
O47   O     O_R   0.362810 0.728630 0.957290 -0.644888
O48   O     O_R   0.637190 0.271370 0.042710 -0.644910
O49   O     O_R   0.905540 0.728660 0.042720 -0.601387
O50   O     O_R   0.905540 0.271340 0.042720 -0.601200
O51   O     O_R   0.094460 0.728660 0.957280 -0.601259
O52   O     O_R   0.594460 0.771340 0.957280 -0.601336
Zn1   Zn    Zn3+2 0.987140 0.280510 0.061030 1.017817
Zn2   Zn    Zn3+2 0.926080 0.780520 0.938970 1.010115
Zn3   Zn    Zn3+2 0.926080 0.219480 0.938970 1.009986
Zn4   Zn    Zn3+2 0.073920 0.780520 0.061030 1.010030
Zn5   Zn    Zn3+2 0.573920 0.719480 0.061030 1.010091
Zn6   Zn    Zn3+2 0.426080 0.280520 0.938970 1.010095
Zn7   Zn    Zn3+2 0.426080 0.719480 0.938970 1.010008
Zn8   Zn    Zn3+2 0.573920 0.280520 0.061030 1.009962
Zn9   Zn    Zn3+2 0.012860 0.719490 0.938970 1.017786
Zn10  Zn    Zn3+2 0.012860 0.280510 0.938970 1.017693
Zn11  Zn    Zn3+2 0.987140 0.719490 0.061030 1.017708
Zn12  Zn    Zn3+2 0.487140 0.780510 0.061030 1.017754
Zn13  Zn    Zn3+2 0.512860 0.219490 0.938970 1.017785
Zn14  Zn    Zn3+2 0.512860 0.780510 0.938970 1.017676
Zn15  Zn    Zn3+2 0.487140 0.219490 0.061030 1.017661
Zn16  Zn    Zn3+2 0.073920 0.219480 0.061030 1.010118

loop_
_geom_bond_atom_site_label_1
_geom_bond_atom_site_label_2
_ccdc_geom_bond_type
C133  C137  S    
O49   Zn11  S    
C107  H39   S    
C133  O46   A    
C26   H4    S    
C121  Cl16  S    
C89   O41   A    
C53   O26   A    
C153  H59   S    
C15   C163  S    
O26   Zn9   S    
O32   Zn9   S    
C125  C146  A    
O4    Zn13  S    
C103  H35   S    
C131  C140  A    
C12   C161  S    
C40   C43   T    
O38   Zn14  S    
C115  H11   S    
C95   H27   S    
C113  H9    S    
C88   C97   A    
C25   C171  S    
C49   O17   A    
C5    C148  A    
C13   H20   S    
C53   C75   S    
C123  Cl2   S    
O11   Zn7   S    
C8    C157  S    
C109  C118  A    
C104  H36   S    
C15   C20   T    
C124  C147  A    
C150  C159  A    
C137  C146  A    
C127  C136  A    
C117  H14   S    
C112  C120  A    
O12   Zn11  S    
C96   H28   S    
C55   O30   A    
C106  H38   S    
C103  C112  A    
C167  O6    A    
C167  O32   A    
O22   Zn10  S    
C105  C114  A    
C111  C130  S    
C50   O18   A    
C12   C18   T    
O31   Zn1   S    
O12   Zn4   S    
C46   C84   A    
C6    C151  A    
C49   O15   A    
C133  O2    A    
C78   C113  A    
C112  H43   S    
O52   Zn14  S    
C1    O40   A    
C28   C34   A    
O39   Zn15  S    
C24   C90   A    
O34   Zn15  S    
C21   C172  S    
C33   C38   A    
C106  C115  A    
C83   C117  A    
C166  H18   S    
C173  O13   A    
C9    C21   T    
C154  H60   S    
C9    C158  S    
C11   C23   T    
C148  H53   S    
C57   C85   A    
C35   H22   S    
O41   Zn2   S    
C90   C141  S    
C129  C141  A    
C6    C163  A    
C4    C161  A    
C19   C165  S    
C109  H41   S    
C53   O24   A    
C30   H8    S    
C149  H54   S    
C78   Cl1   S    
O51   Zn9   S    
O7    Zn3   S    
C121  C130  A    
C152  H58   S    
O13   Zn8   S    
C16   C164  S    
C54   O29   A    
C111  O51   A    
C99   C108  A    
C2    H19   S    
C45   C50   S    
O23   Zn14  S    
C52   C74   S    
C65   C70   S    
C124  C132  A    
C67   C72   S    
C85   C119  A    
C59   H12   S    
O33   Zn10  S    
C28   H2    S    
C149  C158  A    
C152  C161  A    
C157  C174  A    
C135  C143  A    
O29   Zn12  S    
C48   O14   A    
C61   H63   S    
C170  O9    A    
C122  O52   A    
C14   C17   T    
C128  Cl7   S    
O6    Zn2   S    
O34   Zn13  S    
C60   H1    S    
C165  O5    A    
C99   H31   S    
C34   C39   S    
O15   Zn2   S    
C2    C87   A    
O28   Zn15  S    
O2    Zn15  S    
C64   C69   A    
C3    C154  A    
C68   C94   A    
C7    C150  A    
C61   C67   A    
C31   C32   A    
C41   C47   T    
C84   Cl13  S    
C32   C37   A    
O20   Zn7   S    
C69   C73   S    
C101  H32   S    
O23   Zn12  S    
C159  C176  A    
C83   Cl12  S    
C81   Cl10  S    
C91   C145  S    
C22   C173  S    
C156  H61   S    
C92   C143  S    
C108  H40   S    
C132  C141  A    
C20   C167  S    
C108  C117  A    
C80   C114  A    
C17   C168  S    
C110  C119  A    
C39   C44   T    
C51   O19   A    
C165  O31   A    
C118  H15   S    
O16   Zn3   S    
C59   C65   A    
C98   H30   S    
O9    Zn5   S    
C148  C157  A    
C37   C41   S    
C107  C116  A    
C174  H50   S    
O47   Zn7   S    
C104  C113  A    
O43   Zn4   S    
C48   O16   A    
C84   C118  A    
C70   C75   T    
C127  Cl6   S    
C4    H46   S    
C126  Cl5   S    
C86   C120  A    
C119  H16   S    
C91   C99   A    
C125  C134  A    
C94   C146  S    
C96   C105  A    
O8    Zn4   S    
C31   H7    S    
C172  O38   A    
O23   Zn7   S    
C173  O39   A    
O25   Zn1   S    
C169  O35   A    
C170  O36   A    
C46   C92   A    
C101  C109  A    
C13   C81   A    
C54   O27   A    
O1    Zn16  S    
C62   H62   S    
C144  O3    A    
C124  Cl3   S    
C32   H6    S    
C52   O25   A    
C152  C175  A    
C5    H44   S    
O37   Zn13  S    
C114  H10   S    
O48   Zn8   S    
C176  H52   S    
C58   H23   S    
C79   C140  S    
C60   C66   A    
C168  O33   A    
O46   Zn6   S    
O34   Zn8   S    
C130  C139  A    
C11   C160  S    
O19   Zn6   S    
C78   C166  A    
O50   Zn1   S    
C122  C138  S    
C35   C83   A    
C47   C51   S    
C85   Cl14  S    
C153  C174  A    
C98   C107  A    
C56   C60   A    
C62   C69   A    
C105  H37   S    
C14   C162  S    
C61   C64   A    
C79   C95   A    
C62   C63   A    
C63   H56   S    
C89   O49   A    
O42   Zn3   S    
C134  C142  A    
C66   C71   S    
O44   Zn5   S    
C125  Cl4   S    
C64   H45   S    
C92   C101  A    
C97   C106  A    
C129  Cl8   S    
C126  C135  A    
O24   Zn11  S    
C46   H24   S    
C55   O28   A    
C73   C76   T    
C102  C110  A    
C27   H3    S    
C100  O42   A    
C52   O22   A    
C18   C169  S    
C120  H17   S    
O23   Zn5   S    
C156  C176  A    
C123  C131  A    
C87   C139  S    
C93   C102  A    
C71   C74   T    
C27   C36   A    
C7    C164  A    
C31   C38   A    
C153  C162  A    
C5    C162  A    
C58   C59   A    
C82   C116  A    
C136  C144  S    
O27   Zn14  S    
C57   H25   S    
C16   C19   T    
C51   O21   A    
C122  O44   A    
C102  H33   S    
O30   Zn13  S    
C30   C37   A    
O34   Zn6   S    
O35   Zn11  S    
O36   Zn12  S    
C10   C159  S    
C42   C45   T    
C110  H42   S    
C44   C49   S    
O12   Zn9   S    
C68   C86   A    
O1    Zn10  S    
C100  C131  S    
C151  H57   S    
O3    Zn12  S    
C4    C149  A    
C29   C36   A    
C126  C140  A    
C86   Cl15  S    
C89   C132  S    
O10   Zn6   S    
C38   C42   S    
C172  O11   A    
C55   C77   S    
C56   C65   A    
O45   Zn10  S    
C135  C155  S    
C171  O10   A    
C29   H64   S    
O1    Zn1   S    
C24   C82   A    
O18   Zn5   S    
C26   C34   A    
C129  C138  A    
C155  O48   A    
C80   Cl9   S    
C43   C48   S    
C116  H13   S    
C100  O50   A    
C57   C93   A    
C1    O45   A    
C127  C139  A    
O5    Zn16  S    
C88   C142  S    
C58   C66   A    
C171  O37   A    
C150  H55   S    
C63   C67   A    
C154  C163  A    
C36   C40   S    
O21   Zn8   S    
C6    H48   S    
C169  O8    A    
C68   H26   S    
C128  C137  A    
C72   C77   T    
C24   H21   S    
C158  C175  A    
C8    C22   T    
C33   H5    S    
C138  C147  A    
C87   C96   A    
C81   C115  A    
C3    H51   S    
C144  O47   A    
O17   Zn4   S    
C54   C76   S    
C7    H47   S    
C3    C160  A    
C121  C145  A    
C123  C143  A    
C1    C134  S    
C95   C104  A    
C175  H49   S    
C30   C33   A    
C136  C145  A    
C94   C103  A    
C111  O43   A    
C56   H34   S    
C82   Cl11  S    
C151  C160  A    
O1    Zn3   S    
C10   C25   T    
C155  O4    A    
C23   C170  S    
C13   C88   A    
C97   H29   S    
C93   C147  S    
C79   C166  A    
C168  O7    A    
C2    C80   A    
C156  C164  A    
C26   C29   A    
O40   Zn16  S    
C50   O20   A    
C27   C28   A    
O14   Zn16  S    
C128  C142  A    
C90   C98   A    
O12   Zn2   S    
C35   C91   A    
