data_mof_unit_46688.cif
_audit_creation_date              2013-03-05T15:39:56-0500
_audit_creation_method            fapswitch 2.2
_symmetry_space_group_name_H-M    P1
_symmetry_Int_Tables_number       1
_space_group_crystal_system       triclinic
_cell_length_a                    27.98038
_cell_length_b                    18.706126
_cell_length_c                    16.856075
_cell_angle_alpha                 90.059782
_cell_angle_beta                  62.648975
_cell_angle_gamma                 90.160449
_cell_volume                      7836.22846311

loop_
_atom_site_label
_atom_site_type_symbol
_atom_site_description
_atom_site_fract_x
_atom_site_fract_y
_atom_site_fract_z
_atom_type_partial_charge
O1    O     O_R   0.255040 0.869590 0.478480 -0.596452
O2    O     O_R   0.744960 0.130410 0.521520 -0.596135
O3    O     O_R   0.744960 0.869590 0.521520 -0.595322
O4    O     O_R   0.255040 0.130410 0.478480 -0.596925
O5    O     O_R   0.755040 0.369590 0.478480 -0.591580
O6    O     O_R   0.244960 0.630410 0.521520 -0.594977
O7    O     O_R   0.244960 0.369590 0.521520 -0.594448
O8    O     O_R   0.755040 0.630410 0.478480 -0.594117
O9    O     O_R   0.182050 0.796550 0.624440 -0.546843
O10   O     O_R   0.817950 0.203450 0.375560 -0.590023
O11   O     O_R   0.817950 0.796550 0.375560 -0.602411
O12   O     O_R   0.182050 0.203450 0.624440 -0.547592
O13   O     O_R   0.682050 0.296550 0.624440 -0.569370
O14   O     O_R   0.317950 0.703450 0.375560 -0.548902
O15   O     O_R   0.317950 0.296550 0.375560 -0.550838
O16   O     O_R   0.682050 0.703450 0.624440 -0.603375
Cu1   Cu    Cu3+1 0.209920 0.785290 0.495070 1.028655
Cu2   Cu    Cu3+1 0.790080 0.214710 0.504930 1.036928
Cu3   Cu    Cu3+1 0.790080 0.785290 0.504930 1.037565
Cu4   Cu    Cu3+1 0.209920 0.214710 0.495070 1.029086
Cu5   Cu    Cu3+1 0.709920 0.285290 0.495070 1.032864
Cu6   Cu    Cu3+1 0.290080 0.714710 0.504930 1.033027
Cu7   Cu    Cu3+1 0.290080 0.285290 0.504930 1.039352
Cu8   Cu    Cu3+1 0.709920 0.714710 0.495070 1.027810
C1    C     C_R   0.295020 0.728301 0.329699 0.834605
C2    C     C_R   0.704226 0.270202 0.670694 0.869042
C3    C     C_R   0.704280 0.729722 0.670720 0.837160
C4    C     C_R   0.295099 0.271546 0.329635 0.826998
C5    C     C_R   0.794922 0.228135 0.329721 0.792869
C6    C     C_R   0.205010 0.771758 0.670285 0.840828
C7    C     C_R   0.204956 0.228345 0.670334 0.839607
C8    C     C_R   0.795719 0.770261 0.329265 0.843051
O17   O     O_R   0.250530 0.763330 0.367210 -0.605029
O18   O     O_R   0.749470 0.236670 0.632790 -0.540636
O19   O     O_R   0.749470 0.763330 0.632790 -0.532709
O20   O     O_R   0.250530 0.236670 0.367210 -0.604470
O21   O     O_R   0.750530 0.263330 0.367210 -0.594910
O22   O     O_R   0.249470 0.736670 0.632790 -0.604640
O23   O     O_R   0.249470 0.263330 0.632790 -0.604375
O24   O     O_R   0.750530 0.736670 0.367210 -0.539456
O25   O     O_R   0.177260 0.690030 0.513710 -0.561223
O26   O     O_R   0.822740 0.309970 0.486290 -0.568628
O27   O     O_R   0.822740 0.690030 0.486290 -0.570623
O28   O     O_R   0.177260 0.309970 0.513710 -0.560446
O29   O     O_R   0.677260 0.190030 0.513710 -0.556030
O30   O     O_R   0.322740 0.809970 0.486290 -0.558133
O31   O     O_R   0.322740 0.190030 0.486290 -0.556251
O32   O     O_R   0.677260 0.809970 0.513710 -0.570189
C9    C     C_R   0.196454 0.631795 0.528865 0.829578
C10   C     C_R   0.799316 0.368895 0.487155 0.820662
C11   C     C_R   0.799306 0.631087 0.487192 0.817809
C12   C     C_R   0.196447 0.368222 0.528876 0.830260
C13   C     C_R   0.696493 0.131632 0.527449 0.832018
C14   C     C_R   0.303801 0.868236 0.470856 0.827131
C15   C     C_R   0.303447 0.131740 0.472183 0.821016
C16   C     C_R   0.700677 0.869226 0.513898 0.838870
C17   C     C_R   0.032516 0.499914 0.565509 0.022591
C18   C     C_R   0.937329 0.500106 0.545190 0.022284
C19   C     C_R   0.553948 0.000206 0.487622 0.030074
C20   C     C_R   0.462276 0.000008 0.457359 0.027839
C21   C     C_R   0.006963 0.565534 0.566918 0.023754
C22   C     C_R   0.958780 0.434553 0.556474 0.025205
C23   C     C_R   0.959154 0.565584 0.556214 0.026072
C24   C     C_R   0.006807 0.434363 0.566508 0.024259
C25   C     C_R   0.523379 0.062959 0.501609 0.019393
C26   C     C_R   0.491423 0.936180 0.446211 0.023304
C27   C     C_R   0.481373 0.064485 0.476508 0.019304
C28   C     C_R   0.540130 0.938040 0.454159 0.019923
C29   C     C_R   0.107696 0.434592 0.570082 -0.020833
C30   C     C_R   0.865734 0.564945 0.528039 -0.014767
C31   C     C_R   0.865414 0.435390 0.528481 -0.015337
C32   C     C_R   0.107734 0.565099 0.570577 -0.021707
C33   C     C_R   0.633452 0.939659 0.481280 -0.027402
C34   C     C_R   0.390252 0.066029 0.444753 -0.018526
C35   C     C_R   0.391996 0.935300 0.436378 -0.021097
C36   C     C_R   0.614025 0.062720 0.536561 -0.025049
C37   C     C_R   0.163250 0.434535 0.550135 -0.081519
C38   C     C_R   0.824164 0.564850 0.500078 -0.082313
C39   C     C_R   0.824078 0.435288 0.500165 -0.084455
C40   C     C_R   0.163276 0.565343 0.550267 -0.080282
C41   C     C_R   0.674688 0.936859 0.508819 -0.082126
C42   C     C_R   0.336680 0.065764 0.453884 -0.082399
C43   C     C_R   0.337273 0.934788 0.450925 -0.078448
C44   C     C_R   0.665273 0.064556 0.537043 -0.070041
C45   C     C_R   0.189777 0.500006 0.539935 -0.265046
C46   C     C_R   0.805941 0.500007 0.483586 -0.267118
C47   C     C_R   0.691521 0.000202 0.531911 -0.258911
C48   C     C_R   0.311311 0.000170 0.458171 -0.265672
H1    H     H_    0.232358 0.500103 0.521207 0.184540
H2    H     H_    0.775599 0.499914 0.460536 0.181846
H3    H     H_    0.726969 0.999941 0.542297 0.186368
H4    H     H_    0.269752 0.999975 0.470497 0.185583
C49   C     C_R   0.083109 0.499860 0.567099 -0.015282
C50   C     C_R   0.891037 0.500155 0.529634 -0.011519
C51   C     C_R   0.600039 0.000600 0.503023 -0.020978
C52   C     C_R   0.414349 0.000282 0.447430 -0.016562
C53   C     C_R   0.625817 0.885621 0.429157 0.353693
C54   C     C_R   0.421911 0.128790 0.431827 0.340588
C55   C     C_R   0.426057 0.874416 0.410023 0.338250
C56   C     C_R   0.576601 0.120108 0.566439 0.343333
C57   C     C_R   0.074676 0.372797 0.595564 0.336701
C58   C     C_R   0.879587 0.625486 0.563674 0.349072
C59   C     C_R   0.878643 0.375065 0.565008 0.350772
C60   C     C_R   0.074777 0.626716 0.596932 0.337331
C61   C     C_R   0.577877 0.882377 0.422594 -0.275187
C62   C     C_R   0.462160 0.128914 0.459439 -0.288235
C63   C     C_R   0.472823 0.874133 0.421121 -0.278521
C64   C     C_R   0.534236 0.121458 0.543483 -0.281708
C65   C     C_R   0.027838 0.371632 0.585246 -0.278149
C66   C     C_R   0.928973 0.627986 0.565407 -0.281788
C67   C     C_R   0.927948 0.372389 0.566890 -0.280543
C68   C     C_R   0.027862 0.628007 0.586892 -0.278259
H5    H     H_    0.574102 0.839748 0.382801 0.184001
H6    H     H_    0.483296 0.178336 0.455626 0.189603
H7    H     H_    0.494854 0.824703 0.406999 0.183494
H8    H     H_    0.506944 0.166423 0.565341 0.186634
H9    H     H_    0.006873 0.321417 0.598734 0.183166
H10   H     H_    0.938835 0.678004 0.585707 0.180787
H11   H     H_    0.937137 0.322681 0.588603 0.181263
H12   H     H_    0.006636 0.677921 0.601848 0.183458
H13   H     H_    0.150369 0.741622 0.076530 0.135092
H14   H     H_    0.847698 0.253877 0.923357 0.148763
H15   H     H_    0.849458 0.741906 0.921562 0.149265
H16   H     H_    0.150563 0.259282 0.076092 0.135558
H17   H     H_    0.648318 0.238606 0.078990 0.147316
H18   H     H_    0.349690 0.758490 0.923431 0.136663
H19   H     H_    0.349704 0.240261 0.923695 0.146336
H20   H     H_    0.650235 0.759036 0.078460 0.149149
C69   C     C_R   0.221009 0.767217 0.952866 0.108813
C70   C     C_R   0.777354 0.229670 0.048108 0.099369
C71   C     C_R   0.779469 0.765599 0.046811 0.088270
C72   C     C_R   0.221089 0.233128 0.952671 0.107407
C73   C     C_R   0.718711 0.262481 0.954292 0.089520
C74   C     C_R   0.279049 0.732898 0.047095 0.108505
C75   C     C_R   0.279170 0.266393 0.047121 0.105222
C76   C     C_R   0.720216 0.735292 0.953245 0.089107
C77   C     C_R   0.277498 0.771236 0.910640 -0.171166
C78   C     C_R   0.720827 0.226014 0.090979 -0.159214
C79   C     C_R   0.723010 0.769881 0.090024 -0.140567
C80   C     C_R   0.277514 0.228456 0.910594 -0.169689
C81   C     C_R   0.775224 0.266022 0.911374 -0.139607
C82   C     C_R   0.222560 0.728882 0.089321 -0.172608
C83   C     C_R   0.222748 0.271060 0.089191 -0.172468
C84   C     C_R   0.776691 0.731131 0.909951 -0.136462
H21   H     H_    0.299455 0.788755 0.841908 0.133397
H22   H     H_    0.699047 0.209404 0.160098 0.140174
H23   H     H_    0.701564 0.786266 0.159215 0.191461
H24   H     H_    0.299355 0.210810 0.841917 0.136317
H25   H     H_    0.796994 0.282741 0.842287 0.189471
H26   H     H_    0.200603 0.711363 0.158053 0.132355
H27   H     H_    0.200905 0.288721 0.157861 0.132832
H28   H     H_    0.798158 0.714915 0.840653 0.189527
C85   C     C_R   0.306229 0.754163 0.957264 -0.164036
C86   C     C_R   0.691802 0.242397 0.044578 -0.161577
C87   C     C_R   0.693673 0.754741 0.043760 -0.172008
C88   C     C_R   0.306282 0.245007 0.957360 -0.160368
C89   C     C_R   0.804234 0.249749 0.957781 -0.168369
C90   C     C_R   0.193830 0.745954 0.042697 -0.165743
C91   C     C_R   0.193983 0.254514 0.042427 -0.165827
C92   C     C_R   0.806021 0.746201 0.956261 -0.171051
C93   C     C_R   0.144648 0.829486 0.943704 -0.197784
C94   C     C_R   0.854378 0.168809 0.056927 -0.184163
C95   C     C_R   0.855908 0.828059 0.055851 -0.182822
C96   C     C_R   0.144576 0.170966 0.943723 -0.198006
C97   C     C_R   0.643133 0.326659 0.944755 -0.181356
C98   C     C_R   0.355387 0.670579 0.056271 -0.197207
C99   C     C_R   0.355597 0.328738 0.056136 -0.190681
C100  C     C_R   0.643860 0.672455 0.944297 -0.181463
H29   H     H_    0.131246 0.848047 0.011506 0.151589
H30   H     H_    0.867621 0.149786 0.989356 0.155646
H31   H     H_    0.868852 0.847382 0.988485 0.157031
H32   H     H_    0.131184 0.152395 0.011516 0.151806
H33   H     H_    0.630044 0.345528 0.012352 0.156330
H34   H     H_    0.368786 0.652018 0.988469 0.151817
H35   H     H_    0.369011 0.347257 0.988316 0.154890
H36   H     H_    0.630912 0.653222 0.011702 0.156665
C101  C     C_R   0.117821 0.851754 0.895081 -0.072464
C102  C     C_R   0.881728 0.147576 0.105132 -0.058866
C103  C     C_R   0.882652 0.850755 0.104505 -0.058092
C104  C     C_R   0.117703 0.148571 0.895187 -0.072487
C105  C     C_R   0.617017 0.350395 0.895586 -0.066388
C106  C     C_R   0.382196 0.648276 0.104907 -0.070688
C107  C     C_R   0.382368 0.351321 0.104761 -0.068511
C108  C     C_R   0.617261 0.649408 0.895541 -0.057129
C109  C     C_R   0.136369 0.829468 0.806891 -0.173765
C110  C     C_R   0.863387 0.170289 0.193083 -0.217543
C111  C     C_R   0.864397 0.828082 0.192491 -0.221606
C112  C     C_R   0.136198 0.170827 0.807024 -0.174388
C113  C     C_R   0.635554 0.328191 0.807308 -0.182996
C114  C     C_R   0.363651 0.670563 0.193097 -0.176690
C115  C     C_R   0.363834 0.329138 0.192963 -0.182634
C116  C     C_R   0.635591 0.671895 0.807467 -0.222372
H37   H     H_    0.116218 0.847362 0.768883 0.194587
H38   H     H_    0.883914 0.153092 0.230774 0.176540
H39   H     H_    0.884215 0.846841 0.230753 0.175376
H40   H     H_    0.115971 0.152833 0.769077 0.194615
H41   H     H_    0.616286 0.347711 0.768631 0.189429
H42   H     H_    0.383785 0.652636 0.231118 0.193613
H43   H     H_    0.383973 0.347300 0.230981 0.192541
H44   H     H_    0.615935 0.652825 0.769087 0.176974
C117  C     C_R   0.182364 0.787369 0.765844 -0.048097
C118  C     C_R   0.817199 0.211983 0.234300 -0.058028
C119  C     C_R   0.818932 0.784736 0.233197 -0.035236
C120  C     C_R   0.182302 0.212935 0.765869 -0.048831
C121  C     C_R   0.680618 0.284306 0.766908 -0.030583
C122  C     C_R   0.317675 0.712702 0.234131 -0.050230
C123  C     C_R   0.317800 0.286894 0.234066 -0.054653
C124  C     C_R   0.680945 0.715442 0.766825 -0.040151
C125  C     C_R   0.209003 0.765111 0.814686 -0.199872
C126  C     C_R   0.790015 0.233226 0.185863 -0.192606
C127  C     C_R   0.792777 0.761245 0.183858 -0.115924
C128  C     C_R   0.209066 0.235326 0.814582 -0.199773
C129  C     C_R   0.705971 0.259692 0.816817 -0.116296
C130  C     C_R   0.291054 0.734993 0.185274 -0.199582
C131  C     C_R   0.291138 0.264319 0.185263 -0.198312
C132  C     C_R   0.706857 0.739437 0.816317 -0.114432
H45   H     H_    0.244666 0.732162 0.783195 0.152220
H46   H     H_    0.754180 0.265834 0.217518 0.151294
H47   H     H_    0.757612 0.727161 0.214873 0.174184
H48   H     H_    0.244873 0.268244 0.782996 0.153140
H49   H     H_    0.740853 0.225302 0.785920 0.174568
H50   H     H_    0.255405 0.767968 0.216754 0.151822
H51   H     H_    0.255376 0.231312 0.216810 0.152002
H52   H     H_    0.742033 0.773535 0.785216 0.174768
C133  C     C_R   0.190592 0.786427 0.903626 0.072118
C134  C     C_R   0.808153 0.211372 0.097129 0.072658
C135  C     C_R   0.810506 0.783757 0.095472 0.060813
C136  C     C_R   0.190600 0.214078 0.903529 0.072295
C137  C     C_R   0.688089 0.281767 0.905381 0.061159
C138  C     C_R   0.309461 0.713673 0.096336 0.072259
C139  C     C_R   0.309631 0.285517 0.096286 0.071583
C140  C     C_R   0.689152 0.716980 0.904695 0.060963
O33   O     O_R   0.051640 0.926880 0.885090 -0.579656
O34   O     O_R   0.948360 0.073120 0.114910 -0.588987
O35   O     O_R   0.948360 0.926880 0.114910 -0.589004
O36   O     O_R   0.051640 0.073120 0.885090 -0.579663
O37   O     O_R   0.551640 0.426880 0.885090 -0.580510
O38   O     O_R   0.448360 0.573120 0.114910 -0.580550
O39   O     O_R   0.448360 0.426880 0.114910 -0.581818
O40   O     O_R   0.551640 0.573120 0.885090 -0.588664
Cu9   Cu    Cu3+1 0.495240 0.500000 0.924150 0.974112
Cu10  Cu    Cu3+1 0.504760 0.500000 0.075850 0.994054
Cu11  Cu    Cu3+1 0.995240 0.000000 0.924150 0.994428
Cu12  Cu    Cu3+1 0.004760 0.000000 0.075850 0.954509
C141  C     C_R   0.926560 0.902944 0.066535 0.808578
C142  C     C_R   0.073454 0.096995 0.933452 0.803254
C143  C     C_R   0.073511 0.903122 0.933370 0.801701
C144  C     C_R   0.926367 0.096708 0.066708 0.806967
C145  C     C_R   0.426561 0.402985 0.066536 0.803960
C146  C     C_R   0.573429 0.597083 0.933474 0.807748
C147  C     C_R   0.573391 0.402903 0.933450 0.812335
C148  C     C_R   0.426492 0.596883 0.066628 0.799346
O41   O     O_R   0.940620 0.926560 0.986760 -0.584666
O42   O     O_R   0.059380 0.073440 0.013240 -0.592867
O43   O     O_R   0.059380 0.926560 0.013240 -0.593125
O44   O     O_R   0.940620 0.073440 0.986760 -0.584260
O45   O     O_R   0.440620 0.426560 0.986760 -0.587952
O46   O     O_R   0.559380 0.573440 0.013240 -0.585297
O47   O     O_R   0.559380 0.426560 0.013240 -0.585975
O48   O     O_R   0.440620 0.573440 0.986760 -0.593348
N1    N     N_R   0.670209 0.843910 0.367231 0.122240
O49   O     O_R   0.716373 0.875149 0.320502 -0.408664
O50   O     O_R   0.661902 0.780796 0.343287 -0.402524
N2    N     N_R   0.421502 0.186320 0.375363 0.146334
O51   O     O_R   0.409405 0.173642 0.310743 -0.367592
O52   O     O_R   0.438743 0.249682 0.381846 -0.368239
N3    N     N_R   0.419273 0.817969 0.357875 0.139506
O53   O     O_R   0.436525 0.753743 0.359717 -0.368355
O54   O     O_R   0.402198 0.832664 0.299764 -0.376647
N4    N     N_R   0.576509 0.172151 0.629524 0.136540
O55   O     O_R   0.590090 0.153611 0.690839 -0.383626
O56   O     O_R   0.556982 0.235774 0.632649 -0.366049
N5    N     N_R   0.082537 0.316357 0.646447 0.139646
O57   O     O_R   0.065455 0.251844 0.644780 -0.368865
O58   O     O_R   0.100542 0.331284 0.703354 -0.379109
N6    N     N_R   0.838440 0.672463 0.623511 0.132634
O59   O     O_R   0.850075 0.737938 0.634681 -0.390657
O60   O     O_R   0.793111 0.644776 0.681540 -0.402374
N7    N     N_R   0.837038 0.328599 0.625262 0.131083
O61   O     O_R   0.791848 0.356793 0.682631 -0.407211
O62   O     O_R   0.848177 0.263319 0.637722 -0.390975
N8    N     N_R   0.082915 0.682807 0.648149 0.139045
O63   O     O_R   0.101262 0.667510 0.704435 -0.379916
O64   O     O_R   0.065767 0.747303 0.647422 -0.369036

loop_
_geom_bond_atom_site_label_1
_geom_bond_atom_site_label_2
_geom_bond_distance
_ccdc_geom_bond_type
C47   H3    1.083542 S    
O39   C145  1.300545 A    
Cu2   Cu5   2.676000 S    
C10   C39   1.484870 S    
C66   H10   1.073917 S    
C16   C41   1.483003 S    
N8    O63   1.301742 A    
C29   C49   1.415298 A    
Cu6   O22   1.963501 S    
C6    O22   1.288052 A    
C21   C23   1.429629 A    
C22   C24   1.429432 A    
C130  H50   1.083246 S    
Cu4   O28   1.962972 S    
C114  C122  1.393396 A    
O3    Cu3   1.960756 S    
C84   C92   1.396143 A    
C25   C64   1.407669 A    
C53   N1    1.433037 S    
C53   C61   1.396824 A    
C122  C130  1.404661 A    
C83   H27   1.082949 S    
C43   C48   1.400576 A    
Cu12  O42   1.961101 S    
C97   C137  1.402003 A    
Cu10  O46   1.961101 S    
C82   C90   1.395821 A    
C95   C135  1.400807 A    
C33   C41   1.428977 A    
C14   C43   1.498354 S    
C103  C141  1.464274 S    
C98   H34   1.083249 S    
O36   C142  1.300548 A    
C46   H2    1.083878 S    
C68   H12   1.073847 S    
C128  H48   1.083290 S    
C3    O19   1.286991 A    
C141  O41   1.293179 A    
C132  H52   1.083258 S    
C100  C140  1.401152 A    
C120  C128  1.404642 A    
C77   C85   1.395841 A    
C80   C88   1.395137 A    
C81   C89   1.395985 A    
N4    O56   1.301842 A    
C33   C51   1.413575 A    
C93   C101  1.405860 A    
C12   C37   1.493192 S    
C70   C78   1.406323 A    
C129  C137  1.401065 A    
C148  O48   1.292950 A    
C113  H41   1.083337 S    
C5    C118  1.464798 S    
O38   C148  1.301616 A    
O2    C13   1.313469 A    
Cu11  O41   1.961101 S    
H19   C88   1.083046 S    
C17   C21   1.416940 A    
C29   C57   1.415877 A    
C36   C56   1.422378 A    
C54   C62   1.402328 A    
C9    C40   1.491270 S    
C125  H45   1.083241 S    
C8    C119  1.466596 S    
C11   C38   1.486743 S    
Cu3   O19   1.963111 S    
C60   N8    1.440644 S    
C82   H26   1.082914 S    
O10   Cu2   1.960915 S    
N7    O62   1.302009 A    
O4    Cu4   1.960758 S    
C54   N2    1.440934 S    
C69   C77   1.405786 A    
C70   C134  1.482974 S    
C106  C114  1.394266 A    
O34   Cu12  1.962192 S    
C29   C37   1.431433 A    
C98   C106  1.405861 A    
C26   C63   1.412326 A    
C35   C43   1.435147 A    
C31   C39   1.439711 A    
C34   C54   1.424029 A    
C110  C118  1.393082 A    
C70   C89   1.404374 A    
C61   H5    1.077260 S    
O7    C12   1.305279 A    
Cu2   O26   1.958917 S    
N1    O49   1.300855 A    
C74   C85   1.403856 A    
C67   H11   1.073875 S    
Cu9   Cu10  2.689876 S    
C106  C148  1.465330 S    
C22   C67   1.408155 A    
C20   C27   1.413671 A    
N2    O51   1.301936 A    
C93   H29   1.083247 S    
O28   C12   1.289658 A    
O16   C3    1.296278 A    
C116  H44   1.083343 S    
O29   C13   1.286437 A    
C147  O47   1.293700 A    
C126  C134  1.401497 A    
C119  C127  1.406074 A    
C129  H49   1.083246 S    
C117  C125  1.404654 A    
C69   C90   1.403852 A    
C94   C134  1.401868 A    
O33   Cu11  1.962195 S    
Cu5   O29   1.958917 S    
C56   C64   1.406117 A    
C72   C91   1.403679 A    
Cu7   O31   1.962972 S    
C73   C86   1.403867 A    
Cu8   O32   1.962972 S    
C34   C52   1.414904 A    
C60   C68   1.398829 A    
C76   C87   1.403892 A    
O33   C143  1.301614 A    
C112  C120  1.392445 A    
C75   C88   1.403742 A    
C128  C136  1.400401 A    
C102  C110  1.393750 A    
Cu4   Cu7   2.669624 S    
C79   C87   1.395937 A    
C35   C55   1.420805 A    
O5    Cu5   1.955534 S    
C115  C123  1.392479 A    
C7    C120  1.462905 S    
O9    C6    1.297514 A    
O26   C10   1.280619 A    
O11   C8    1.296629 A    
H13   C90   1.082996 S    
O12   C7    1.295870 A    
C95   C103  1.405063 A    
O13   C2    1.297262 A    
C96   H32   1.083310 S    
C28   C61   1.404067 A    
H17   C86   1.083020 S    
C99   H35   1.083318 S    
C100  H36   1.083271 S    
C31   C59   1.415172 A    
C110  H38   1.083391 S    
O35   C141  1.300843 A    
N3    O53   1.301714 A    
C127  H47   1.082795 S    
O1    Cu1   1.955534 S    
O37   Cu9   1.962195 S    
O14   Cu6   1.960915 S    
C32   C40   1.429511 A    
C19   C25   1.408862 A    
C78   C86   1.396703 A    
C24   C65   1.413684 A    
C78   H22   1.082869 S    
C42   C48   1.401020 A    
O40   Cu9   1.956983 S    
N5    O58   1.301756 A    
C74   C138  1.481120 S    
C94   C102  1.406195 A    
C71   C79   1.405631 A    
C121  C129  1.404979 A    
N6    O59   1.301972 A    
C69   C133  1.481128 S    
C21   C68   1.413249 A    
C1    O17   1.288121 A    
C18   C22   1.417611 A    
O40   C146  1.300914 A    
Cu9   O48   1.965548 S    
Cu10  O47   1.965551 S    
C36   C44   1.437991 A    
C65   H9    1.073758 S    
C56   N4    1.440081 S    
O11   Cu3   1.960935 S    
C125  C133  1.400771 A    
O36   Cu11  1.956983 S    
C77   H21   1.082915 S    
C30   C50   1.411804 A    
C72   C136  1.479175 S    
C103  C111  1.394412 A    
C57   C65   1.399115 A    
Cu11  Cu12  2.689876 S    
O6    Cu6   1.955532 S    
C111  C119  1.392794 A    
C101  C109  1.394241 A    
C59   C67   1.395472 A    
C3    C124  1.466256 S    
C109  C117  1.393374 A    
C104  C112  1.393913 A    
O34   C144  1.302008 A    
C105  C113  1.395155 A    
C113  C121  1.393971 A    
C25   C27   1.420692 A    
N7    O61   1.300460 A    
C108  C116  1.394427 A    
C95   H31   1.083273 S    
C96   C104  1.404625 A    
C20   C26   1.410733 A    
C98   C138  1.401577 A    
C75   C139  1.479165 S    
Cu1   O17   1.963500 S    
C34   C42   1.434767 A    
Cu3   O27   1.962972 S    
C35   C52   1.416260 A    
C45   H1    1.083322 S    
C142  O42   1.292914 A    
Cu11  O44   1.965548 S    
C107  C115  1.393964 A    
C108  C146  1.464598 S    
C40   C45   1.399980 A    
C74   C82   1.405771 A    
C94   H30   1.083188 S    
C79   H23   1.082330 S    
O30   C14   1.291108 A    
C123  C131  1.404636 A    
C41   C47   1.393445 A    
C32   C49   1.414103 A    
C20   C52   1.425700 A    
Cu6   O30   1.958917 S    
C13   C44   1.492681 S    
O4    C15   1.309247 A    
C105  C147  1.466846 S    
O5    C10   1.312580 A    
C58   C66   1.396165 A    
C2    C121  1.466922 S    
C130  C138  1.400785 A    
C114  H42   1.083433 S    
C6    C117  1.464078 S    
N8    O64   1.301774 A    
C145  O45   1.292932 A    
C30   C58   1.415476 A    
C27   C62   1.403856 A    
C83   C91   1.395004 A    
C72   C80   1.405322 A    
O25   C9    1.292398 A    
C55   C63   1.404384 A    
C73   C81   1.405866 A    
Cu1   Cu6   2.676000 S    
C64   H8    1.082031 S    
Cu3   Cu8   2.669624 S    
C76   C84   1.405914 A    
N3    O54   1.301765 A    
O10   C5    1.298200 A    
O27   C11   1.277770 A    
O15   C4    1.295833 A    
C101  C143  1.465302 S    
H14   C89   1.082975 S    
O14   C1    1.297494 A    
C73   C137  1.481704 S    
O35   Cu12  1.956983 S    
Cu4   O20   1.963109 S    
H18   C85   1.082997 S    
C71   C135  1.481447 S    
Cu5   O21   1.963500 S    
C4    O20   1.285491 A    
N2    O52   1.301720 A    
C5    O21   1.287643 A    
C4    C123  1.463096 S    
N4    O55   1.302031 A    
C39   C46   1.391306 A    
C84   H28   1.082960 S    
C143  O43   1.292937 A    
C26   C28   1.429674 A    
O8    Cu8   1.960758 S    
C30   C38   1.441803 A    
C44   C47   1.393697 A    
C59   N7    1.432467 S    
C80   H24   1.082960 S    
C81   H25   1.082992 S    
C31   C50   1.410666 A    
C33   C53   1.417299 A    
C76   C140  1.481174 S    
C55   N3    1.440102 S    
Cu9   O45   1.961101 S    
O12   Cu4   1.960935 S    
C62   H6    1.081999 S    
C131  C139  1.400498 A    
C115  H43   1.083454 S    
C36   C51   1.422110 A    
O7    Cu7   1.960756 S    
H15   C92   1.083029 S    
C97   H33   1.083241 S    
H16   C91   1.083033 S    
H20   C87   1.083044 S    
Cu8   O24   1.963109 S    
C2    O18   1.290205 A    
C99   C107  1.404623 A    
C48   H4    1.083197 S    
C100  C108  1.405245 A    
Cu12  O43   1.965551 S    
C38   C46   1.390901 A    
O15   Cu7   1.960935 S    
O16   Cu8   1.960935 S    
C17   C49   1.428139 A    
C116  C124  1.392779 A    
C57   N5    1.440567 S    
C19   C51   1.427651 A    
C118  C126  1.405726 A    
C93   C133  1.401576 A    
O13   Cu5   1.960915 S    
N1    O50   1.301709 A    
O1    C14   1.310611 A    
C107  C145  1.463098 S    
C19   C28   1.420027 A    
O3    C16   1.303093 A    
N5    O57   1.301774 A    
C96   C136  1.400482 A    
C15   C42   1.491657 S    
Cu2   O18   1.963501 S    
O8    C11   1.312572 A    
C63   H7    1.076806 S    
C102  C144  1.465259 S    
O9    Cu1   1.960915 S    
N6    O60   1.300403 A    
C17   C24   1.416090 A    
O31   C15   1.284907 A    
C18   C23   1.416801 A    
O32   C16   1.286788 A    
C111  H39   1.083345 S    
C109  H37   1.083436 S    
O2    Cu2   1.955532 S    
C131  H51   1.083293 S    
C144  O44   1.292461 A    
C99   C139  1.400478 A    
O38   Cu10  1.962192 S    
C126  H46   1.083161 S    
C97   C105  1.406101 A    
C23   C66   1.408757 A    
C18   C50   1.434778 A    
Cu7   O23   1.963111 S    
C75   C83   1.405247 A    
C132  C140  1.401111 A    
C7    O23   1.285336 A    
O39   Cu10  1.956983 S    
C8    O24   1.286815 A    
O6    C9    1.305303 A    
C71   C92   1.404148 A    
Cu1   O25   1.958917 S    
C37   C45   1.399447 A    
C112  H40   1.083468 S    
C124  C132  1.405801 A    
O37   C147  1.301614 A    
C127  C135  1.401455 A    
C58   N6    1.432416 S    
C32   C60   1.415861 A    
C146  O46   1.293258 A    
C1    C122  1.464131 S    
C104  C142  1.463071 S    
