data_mof_unit_39205.cif
_audit_creation_date              2012-12-11T14:21:25-0500
_audit_creation_method            fapswitch 2.2
_symmetry_space_group_name_H-M    P1
_symmetry_Int_Tables_number       1
_space_group_crystal_system       triclinic
_cell_length_a                    11.579164
_cell_length_b                    11.540411
_cell_length_c                    19.525012
_cell_angle_alpha                 90.566369
_cell_angle_beta                  90.135509
_cell_angle_gamma                 59.941358
_cell_volume                      2258.08522996

loop_
_atom_site_label
_atom_site_type_symbol
_atom_type_description
_atom_site_fract_x
_atom_site_fract_y
_atom_site_fract_z
_atom_type_partial_charge
C1    C     C_R   0.640448 0.117493 0.599165 0.552521
C2    C     C_1   0.652908 0.149909 0.668568 0.005520
C3    C     C_R   0.663193 0.674092 0.192267 -0.010956
C4    C     C_R   0.612414 0.746067 0.598566 0.547868
C5    C     C_R   0.534802 0.735055 0.221702 -0.064205
C6    C     C_R   0.527633 0.709907 0.290975 -0.014612
C7    C     C_R   0.764165 0.635481 0.304416 -0.157715
C8    C     C_R   0.776998 0.622004 0.234182 -0.137056
C9    C     C_R   0.416651 0.795468 0.181501 0.212592
C10   C     C_R   0.301771 0.796314 0.205641 0.330586
C11   C     C_R   0.299899 0.753012 0.271900 0.241260
C12   C     C_1   0.641272 0.703907 0.667942 0.006618
C13   C     C_R   0.415523 0.700930 0.313308 0.197850
C14   C     C_R   0.639690 0.681553 0.333564 0.034910
C15   C     C_R   0.168270 0.180870 0.185219 0.001342
C16   C     C_R   0.240961 0.145395 0.598124 0.555993
C17   C     C_R   0.253221 0.228510 0.206514 0.010816
C18   C     C_R   0.281056 0.225948 0.277337 -0.007873
C19   C     C_R   0.188154 0.079477 0.295625 -0.157051
C20   C     C_R   0.136761 0.106844 0.230063 -0.131407
C21   C     C_R   0.298264 0.292958 0.160536 0.252110
C22   C     C_R   0.326976 0.388335 0.186040 0.007071
C23   C     C_1   0.126913 0.198339 0.859383 0.009042
C24   C     C_R   0.330674 0.405358 0.256107 -0.120817
C25   C     C_R   0.320735 0.317495 0.300934 -0.130656
C26   C     C_R   0.258648 0.139344 0.321114 -0.000562
C27   C     C_R   0.670818 0.187789 0.193741 0.052802
C28   C     C_R   0.646821 0.109047 0.401809 0.542133
C29   C     C_R   0.723843 0.054501 0.215100 -0.032615
C30   C     C_R   0.749747 0.026421 0.285026 -0.015398
C31   C     C_R   0.622692 0.264923 0.311598 -0.165455
C32   C     C_R   0.629242 0.291646 0.242690 0.197609
C33   C     C_R   0.769149 0.947782 0.167299 -0.141662
C34   C     C_1   0.171555 0.170272 0.727696 -0.029653
C35   C     C_R   0.866297 0.819602 0.185536 -0.023678
C36   C     C_R   0.912456 0.793306 0.252541 0.297966
C37   C     C_R   0.851505 0.894922 0.302632 -0.059383
C38   C     C_R   0.678331 0.133830 0.333070 -0.025795
C39   C     C_R   0.081902 0.230915 0.928678 0.553410
C40   C     C_R   0.615779 0.736716 0.402778 0.560206
C41   C     C_R   0.683804 0.604376 0.929567 0.541670
C42   C     C_R   0.708318 0.206468 0.930227 0.541391
C43   C     C_R   0.086338 0.233588 0.123953 0.556089
C44   C     C_R   0.682377 0.614257 0.124688 0.566299
C45   C     C_1   0.150334 0.181946 0.798978 -0.028242
C46   C     C_R   0.706761 0.210892 0.126065 0.574175
C47   C     C_R   0.300223 0.116916 0.393520 0.545805
C48   C     C_1   0.670124 0.646603 0.860210 0.007850
C49   C     C_1   0.654735 0.683727 0.728427 -0.029779
C50   C     C_1   0.663243 0.666818 0.799734 -0.029265
C51   C     C_1   0.195263 0.161104 0.667323 0.003460
C52   C     C_1   0.678532 0.190920 0.860877 0.010784
C53   C     C_1   0.658438 0.167331 0.729026 -0.029754
C54   C     C_1   0.665562 0.180712 0.800383 -0.028415
Cr1   Cr    Cr6+3 0.404720 0.198220 0.499960 1.020841
Cr2   Cr    Cr6+3 0.698290 0.897110 0.500380 1.016202
Cr3   Cr    Cr6+3 0.396970 0.904720 0.499610 1.052930
Cr4   Cr    Cr6+3 0.926180 0.151990 0.028120 1.052653
Cr5   Cr    Cr6+3 0.921330 0.451820 0.027470 1.056616
Cr6   Cr    Cr6+3 0.626260 0.446870 0.028710 1.092961
H1    H     H_    0.350687 0.446457 0.151556 0.177586
H2    H     H_    0.602964 0.465942 0.263452 0.335354
H3    H     H_    0.908293 0.740988 0.146975 0.142780
H4    H     H_    0.031359 0.660660 0.317831 0.322081
H5    H     H_    0.894769 0.870774 0.352949 0.141432
H6    H     H_    0.486570 0.870717 0.115997 0.313061
H7    H     H_    0.204490 0.862088 0.119631 0.361704
H8    H     H_    0.177944 0.779422 0.346000 0.303405
H9    H     H_    0.358883 0.599071 0.370457 0.313246
H10   H     H_    0.325840 0.175364 0.083314 0.323931
H11   H     H_    0.339666 0.329729 0.353414 0.174042
H12   H     H_    0.576759 0.346309 0.348584 0.144196
H13   H     H_    0.876662 0.567707 0.212740 0.187877
H14   H     H_    0.162571 0.020350 0.328275 0.157009
H15   H     H_    0.066822 0.074675 0.215523 0.196390
H16   H     H_    0.851012 0.606752 0.336137 0.144574
H17   H     H_    0.353090 0.479636 0.275546 0.164324
H18   H     H_    0.738084 0.965342 0.114228 0.124655
O1    O     O_R   0.267740 0.231960 0.575440 -0.499424
O2    O     O_R   0.596130 0.579390 0.952730 -0.497642
O3    O     O_R   0.639060 0.321160 0.958670 -0.495070
O4    O     O_R   0.527280 0.186640 0.570530 -0.490214
O5    O     O_R   0.821240 0.124200 0.104370 -0.519612
O6    O     O_R   0.036890 0.167040 0.097840 -0.498155
O7    O     O_R   0.056180 0.349610 0.102880 -0.471140
O8    O     O_R   0.797660 0.564870 0.097950 -0.529606
O9    O     O_R   0.595880 0.584250 0.104270 -0.435577
O10   O     O_R   0.638830 0.325670 0.099150 -0.444813
O11   O     O_3   0.824590 0.350230 0.028100 -0.273010
O12   O     O_R   0.685970 0.784660 0.430010 -0.521351
O13   O     O_R   0.728090 0.003450 0.576380 -0.501647
O14   O     O_R   0.682970 0.789190 0.570490 -0.493697
O15   O     O_R   0.499290 0.771880 0.575530 -0.498897
O16   O     O_R   0.285330 0.030870 0.569730 -0.489225
O17   O     O_R   0.270980 0.227080 0.423890 -0.524501
O18   O     O_R   0.530280 0.182120 0.430050 -0.525501
O19   O     O_R   0.731330 0.998570 0.424830 -0.531188
O20   O     O_3   0.597813 0.418002 0.222551 -0.693610
O21   O     O_3   0.014908 0.666504 0.267790 -0.680403
O22   O     O_3   0.411700 0.852420 0.118793 -0.716045
O23   O     O_R   0.502530 0.767000 0.423990 -0.453113
O24   O     O_3   0.188768 0.838710 0.165975 -0.648467
O25   O     O_3   0.181610 0.767191 0.295588 -0.670179
O26   O     O_3   0.429850 0.622910 0.369739 -0.701630
O27   O     O_3   0.315740 0.264982 0.091212 -0.687563
O28   O     O_R   0.288330 0.026350 0.429250 -0.500078
O29   O     O_3   0.499990 0.000020 0.499980 -0.277816
O30   O     O_R   0.821500 0.119340 0.952830 -0.510964
O31   O     O_R   0.037130 0.162530 0.957360 -0.495327
O32   O     O_R   0.056440 0.344740 0.951340 -0.488339
O33   O     O_R   0.797900 0.560360 0.957470 -0.501787

loop_
_geom_bond_atom_site_label_1
_geom_bond_atom_site_label_2
_ccdc_geom_bond_type
C28   O19   A    
C23   C45   T    
C27   C29   A    
Cr4   O31   S    
C19   C20   A    
C18   C26   A    
C16   C51   S    
C41   O2    A    
C12   C49   T    
Cr6   O10   S    
C7    C8    A    
C53   C54   S    
C42   O3    A    
C34   C51   T    
C36   C37   A    
C5    C6    A    
C33   H18   S    
C29   C33   A    
Cr5   O32   S    
C30   C38   A    
C1    C2    S    
Cr5   O11   S    
H6    O22   S    
C19   C26   A    
C40   O23   A    
H2    O20   S    
Cr2   O13   S    
C35   C36   A    
C37   H5    S    
Cr5   O33   S    
H8    O25   S    
C25   H11   S    
C4    C12   S    
C44   O9    A    
C9    C10   A    
C4    O14   A    
Cr2   O12   S    
Cr3   O28   S    
C1    O13   A    
Cr3   O15   S    
C21   C22   A    
C43   O6    A    
C18   C25   A    
Cr2   O19   S    
C44   O8    A    
Cr6   O9    S    
C52   C54   T    
C46   O10   A    
C39   O32   A    
C15   C20   A    
C3    C44   S    
C43   O7    A    
C10   O24   S    
C24   C25   A    
Cr1   O17   S    
C3    C8    A    
C1    O4    A    
Cr6   O11   S    
C2    C53   T    
C7    C14   A    
C46   O5    A    
C30   C37   A    
Cr1   O29   S    
C13   O26   S    
Cr5   O7    S    
Cr2   O29   S    
C5    C9    A    
C29   C30   A    
Cr4   O6    S    
C6    C14   A    
Cr1   O1    S    
Cr6   O3    S    
C31   C32   A    
C28   C38   S    
C47   O28   A    
C17   C18   A    
H4    O21   S    
C34   C45   S    
Cr1   O4    S    
C26   C47   S    
C27   C46   S    
C31   H12   S    
Cr3   O29   S    
C9    O22   S    
Cr3   O16   S    
C22   C24   A    
H9    O26   S    
C15   C17   A    
Cr6   O2    S    
C27   C32   A    
C19   H14   S    
Cr1   O18   S    
C3    C5    A    
H10   O27   S    
C11   O25   S    
C7    H16   S    
Cr3   O23   S    
C16   O16   A    
C31   C38   A    
C28   O18   A    
C16   O1    A    
Cr5   O8    S    
C15   C43   S    
Cr4   O5    S    
C6    C13   A    
C11   C13   A    
C23   C39   S    
C48   C50   T    
C8    H13   S    
C33   C35   A    
C41   C48   S    
C32   O20   S    
C36   O21   S    
Cr4   O30   S    
Cr4   O11   S    
C17   C21   A    
C10   C11   A    
C14   C40   S    
C4    O15   A    
C24   H17   S    
C39   O31   A    
C20   H15   S    
C49   C50   S    
C41   O33   A    
C47   O17   A    
C35   H3    S    
C40   O12   A    
Cr2   O14   S    
C42   O30   A    
C21   O27   S    
H7    O24   S    
C42   C52   S    
C22   H1    S    
