data_mof_unit_10124.cif
_audit_creation_date              2012-12-10T17:08:45-0500
_audit_creation_method            fapswitch 2.2
_symmetry_space_group_name_H-M    P1
_symmetry_Int_Tables_number       1
_space_group_crystal_system       triclinic
_cell_length_a                    15.715957
_cell_length_b                    10.621468
_cell_length_c                    10.168349
_cell_angle_alpha                 88.784395
_cell_angle_beta                  92.031999
_cell_angle_gamma                 91.417913
_cell_volume                      1695.42913146

loop_
_atom_site_label
_atom_site_type_symbol
_atom_type_description
_atom_site_fract_x
_atom_site_fract_y
_atom_site_fract_z
_atom_type_partial_charge
C1    C     C_R   0.495165 0.262790 0.501326 0.937136
C2    C     C_2   0.493852 0.869817 0.491823 -0.354231
C3    C     C_2   0.451594 0.068192 0.400190 -0.201376
C4    C     C_R   0.338706 0.499188 0.497952 0.872878
C5    C     C_2   0.476574 0.131235 0.507188 -0.376992
C6    C     C_2   0.521539 0.596263 0.924329 -0.192442
C7    C     C_2   0.540193 0.583067 0.070835 0.163630
C8    C     C_R   0.496866 0.736874 0.498155 0.901138
C9    C     C_R   0.661289 0.500392 0.501885 0.895706
C10   C     C_3   0.049158 0.393477 0.606451 0.307849
C11   C     C_3   0.042811 0.436153 0.355672 0.310458
C12   C     C_3   0.951276 0.405397 0.618827 0.224969
C13   C     C_3   0.942905 0.428624 0.362553 -0.159545
C14   C     C_1   0.750067 0.496682 0.505367 -0.193331
C15   C     C_3   0.083029 0.481253 0.491771 -0.026093
C16   C     C_3   0.908004 0.235377 0.751407 -0.320399
C17   C     C_3   0.104048 0.510578 0.790999 -0.294557
C18   C     C_3   0.917400 0.824903 0.444564 -0.340527
C19   C     C_3   0.367162 0.871721 0.328026 -0.375035
C20   C     C_3   0.280732 0.923857 0.362997 -0.365261
C21   C     C_3   0.207817 0.860105 0.284394 -0.911038
C22   C     C_3   0.605390 0.675692 0.127240 -0.378652
C23   C     C_3   0.916552 0.484481 0.498119 0.021242
C24   C     C_3   0.694932 0.645525 0.083441 -0.392151
C25   C     C_3   0.762452 0.731235 0.149342 -0.841652
C26   C     C_3   0.437317 0.411329 0.087550 -0.263198
C27   C     C_3   0.359731 0.368087 0.165481 -0.300403
C28   C     C_3   0.304548 0.273016 0.087348 -0.970250
C29   C     C_3   0.111741 0.233100 0.358338 -0.307497
C30   C     C_3   0.900161 0.298500 0.330153 -0.276431
C31   C     C_3   0.896724 0.272105 0.181690 -0.369827
C32   C     C_3   0.858568 0.141400 0.154113 -0.916498
C33   C     C_3   0.954190 0.621362 0.510509 0.311282
C34   C     C_3   0.052400 0.618654 0.507131 -0.594150
C35   C     C_1   0.825179 0.491612 0.503785 0.037605
C36   C     C_1   0.174502 0.486568 0.491119 0.046582
C37   C     C_1   0.249840 0.492935 0.493221 -0.196111
C38   C     C_2   0.439191 0.932454 0.410330 0.140420
H1    H     H_    0.936733 0.458099 0.708653 0.085518
H2    H     H_    0.081036 0.665615 0.594591 0.167369
H3    H     H_    0.074776 0.678810 0.423619 0.217556
H4    H     H_    0.936484 0.656998 0.608479 0.069221
H5    H     H_    0.865936 0.291750 0.811834 0.166663
H6    H     H_    0.972825 0.230611 0.798423 0.204753
H7    H     H_    0.880934 0.138007 0.748334 0.180748
H8    H     H_    0.045226 0.565957 0.784607 0.119878
H9    H     H_    0.159185 0.565517 0.752923 0.182677
H10   H     H_    0.118302 0.492733 0.897287 0.195585
H11   H     H_    0.980532 0.861680 0.481375 0.164513
H12   H     H_    0.543768 0.917394 0.549837 0.126653
H13   H     H_    0.868844 0.834646 0.520379 0.164852
H14   H     H_    0.897585 0.883449 0.357806 0.193312
H15   H     H_    0.215259 0.877940 0.177344 0.267635
H16   H     H_    0.206628 0.756905 0.304729 0.262446
H17   H     H_    0.146233 0.898657 0.312961 0.247837
H18   H     H_    0.270519 0.907608 0.469733 0.226404
H19   H     H_    0.279567 0.026920 0.341688 0.223370
H20   H     H_    0.378646 0.891383 0.222235 0.190076
H21   H     H_    0.363266 0.768170 0.342711 0.223654
H22   H     H_    0.750551 0.831430 0.122856 0.253356
H23   H     H_    0.440463 0.115138 0.305413 0.169062
H24   H     H_    0.761790 0.718443 0.258035 0.287067
H25   H     H_    0.826456 0.707066 0.116012 0.257105
H26   H     H_    0.709360 0.546021 0.110229 0.234798
H27   H     H_    0.698222 0.657715 0.974859 0.223434
H28   H     H_    0.588691 0.772819 0.094556 0.169837
H29   H     H_    0.606504 0.673639 0.235148 0.264950
H30   H     H_    0.281458 0.315328 0.992175 0.286296
H31   H     H_    0.341276 0.187651 0.068148 0.259379
H32   H     H_    0.248397 0.244134 0.144788 0.277975
H33   H     H_    0.377660 0.319126 0.258016 0.264521
H34   H     H_    0.478852 0.086122 0.604223 0.159129
H35   H     H_    0.318994 0.449982 0.181695 0.246245
H36   H     H_    0.402787 0.455856 0.002951 0.191510
H37   H     H_    0.470784 0.325047 0.060672 0.163392
H38   H     H_    0.061094 0.177551 0.406542 0.147533
H39   H     H_    0.164606 0.258114 0.428212 0.165671
H40   H     H_    0.138813 0.167804 0.288187 0.185771
H41   H     H_    0.899275 0.067945 0.201015 0.262495
H42   H     H_    0.793361 0.132071 0.192507 0.264920
H43   H     H_    0.854852 0.126437 0.046284 0.247856
H44   H     H_    0.856759 0.343457 0.129164 0.205129
H45   H     H_    0.527863 0.688668 0.877712 0.170209
H46   H     H_    0.961045 0.278328 0.140490 0.279414
H47   H     H_    0.931051 0.221165 0.386013 0.236143
H48   H     H_    0.833172 0.296451 0.361334 0.212594
H49   H     H_    0.520628 0.415471 0.888220 0.173553
H50   H     H_    0.056787 0.296509 0.574734 0.145667
H51   H     H_    0.054359 0.517689 0.287290 0.132957
H52   H     H_    0.917061 0.494129 0.284615 0.178816
N1    N     N_2   0.500900 0.501330 0.852150 -0.216200
N2    N     N_2   0.500920 0.501360 0.147810 -0.091722
O1    O     O_R   0.499990 0.319060 0.613040 -0.616861
O2    O     O_3   0.096467 0.393247 0.728880 -0.612235
O3    O     O_3   0.921497 0.698580 0.405483 -0.598916
O4    O     O_3   0.080839 0.337854 0.285126 -0.611020
O5    O     O_R   0.500010 0.319100 0.386900 -0.620152
O6    O     O_R   0.377130 0.499990 0.613120 -0.589077
O7    O     O_R   0.377160 0.500030 0.386980 -0.649945
O8    O     O_R   0.499990 0.680900 0.613100 -0.608892
O9    O     O_R   0.500010 0.680940 0.386960 -0.638152
O10   O     O_R   0.622840 0.499970 0.613020 -0.605747
O11   O     O_R   0.622870 0.500010 0.386880 -0.616935
O12   O     O_3   0.910427 0.284445 0.621445 -0.624844
Zn1   Zn    Zn3+2 0.499980 0.499970 0.650990 0.935533
Zn2   Zn    Zn3+2 0.500020 0.500030 0.349010 0.914411

loop_
_geom_bond_atom_site_label_1
_geom_bond_atom_site_label_2
_ccdc_geom_bond_type
C11   O4    S    
C4    O6    A    
C13   H52   S    
N1    Zn1   S    
C28   H31   S    
C17   H10   S    
C20   H18   S    
C18   H14   S    
C29   H38   S    
C32   H43   S    
C12   C23   S    
C10   H50   S    
O8    Zn1   S    
O6    Zn1   S    
C34   H2    S    
C33   H4    S    
C36   C37   T    
C28   H30   S    
C12   O12   S    
C5    H34   S    
H49   N1    S    
C10   C15   S    
C30   C31   S    
C10   O2    S    
C26   N2    S    
C6    N1    D    
C13   C23   S    
O10   Zn1   S    
C25   H25   S    
C11   H51   S    
C22   H28   S    
C2    H12   S    
O1    Zn1   S    
C11   C15   S    
C16   O12   S    
C29   H40   S    
C19   C20   S    
C3    C38   S    
C9    O10   A    
C23   C33   S    
C25   H22   S    
C30   H48   S    
C8    O9    A    
C16   H6    S    
C15   C34   S    
C24   H26   S    
C18   O3    S    
C34   H3    S    
C33   O3    S    
C18   H13   S    
C33   C34   S    
C4    C37   S    
C3    H23   S    
C19   H20   S    
C2    C8    S    
C13   C30   S    
C17   H8    S    
C1    O5    A    
C14   C35   T    
C21   H17   S    
C19   H21   S    
C31   H46   S    
C9    C14   S    
C19   C38   S    
C32   H42   S    
C2    C38   D    
C31   C32   S    
C9    O11   A    
C26   H37   S    
C26   C27   S    
C24   C25   S    
C30   H47   S    
C31   H44   S    
C16   H5    S    
C10   C12   S    
C24   H27   S    
O5    Zn2   S    
N2    Zn2   S    
C23   C35   S    
C1    C5    S    
C15   C36   S    
C27   H33   S    
O9    Zn2   S    
O7    Zn2   S    
C6    H45   S    
C28   H32   S    
C17   H9    S    
C3    C5    D    
C16   H7    S    
C29   O4    S    
C6    C7    S    
C7    C22   S    
C12   H1    S    
C8    O8    A    
C32   H41   S    
C21   H15   S    
C11   C13   S    
C21   H16   S    
C7    N2    D    
C26   H36   S    
O11   Zn2   S    
C22   C24   S    
C25   H24   S    
C22   H29   S    
C29   H39   S    
C20   C21   S    
C1    O1    A    
C4    O7    A    
C27   C28   S    
C17   O2    S    
C20   H19   S    
C27   H35   S    
C18   H11   S    
