data_mof_unit_37337.cif
_audit_creation_date              2013-03-05T15:48:54-0500
_audit_creation_method            fapswitch 2.2
_symmetry_space_group_name_H-M    P1
_symmetry_Int_Tables_number       1
_space_group_crystal_system       triclinic
_cell_length_a                    15.882012
_cell_length_b                    13.006504
_cell_length_c                    11.702505
_cell_angle_alpha                 99.639033
_cell_angle_beta                  93.077947
_cell_angle_gamma                 90.886008
_cell_volume                      2379.0795992

loop_
_atom_site_label
_atom_site_type_symbol
_atom_site_description
_atom_site_fract_x
_atom_site_fract_y
_atom_site_fract_z
_atom_type_partial_charge
O1    O     O_R   0.504390 0.354460 0.582000 -0.551357
O2    O     O_R   0.493940 0.341410 0.386200 -0.597119
C1    C     C_R   0.498926 0.299203 0.478830 0.816707
O3    O     O_R   0.384660 0.506540 0.597940 -0.515754
O4    O     O_R   0.374210 0.493480 0.402140 -0.592990
C2    C     C_R   0.340267 0.500041 0.500935 0.837789
Cu1   Cu    Cu3+1 0.506190 0.507730 0.615930 1.019290
Cu2   Cu    Cu3+1 0.493810 0.492270 0.384070 0.964924
O5    O     O_R   0.506060 0.658590 0.613800 -0.591359
O6    O     O_R   0.495610 0.645540 0.418000 -0.589448
O7    O     O_R   0.625790 0.506520 0.597860 -0.590816
O8    O     O_R   0.615340 0.493460 0.402060 -0.577371
C3    C     C_R   0.501720 0.700780 0.521257 0.829899
C4    C     C_R   0.659759 0.500000 0.499119 0.808788
C5    C     C_3   0.052793 0.484520 0.628406 0.691765
C6    C     C_3   0.044953 0.414349 0.411767 -0.402162
C7    C     C_3   0.947887 0.421038 0.400954 -0.352316
H1    H     H_    0.932903 0.393272 0.620692 0.203312
H2    H     H_    0.071603 0.416354 0.326359 0.223061
H3    H     H_    0.061958 0.337168 0.434118 0.216197
H4    H     H_    0.919013 0.343011 0.403729 0.171849
H5    H     H_    0.927922 0.442175 0.315468 0.241416
C8    C     C_1   0.749319 0.500380 0.497671 -0.160082
C9    C     C_3   0.083135 0.503451 0.507057 -0.011564
C10   C     C_3   0.953231 0.475018 0.617413 -0.583034
C11   C     C_3   0.917229 0.503026 0.500704 0.111425
C12   C     C_3   0.951406 0.613238 0.488338 0.292253
C13   C     C_3   0.049832 0.611200 0.482935 0.083065
C14   C     C_1   0.824869 0.501206 0.498272 0.016978
C15   C     C_1   0.175418 0.502068 0.505050 0.102284
C16   C     C_1   0.250814 0.500972 0.503142 -0.055009
H6    H     H_    0.076187 0.672763 0.554176 0.122636
H7    H     H_    0.935948 0.666502 0.569610 0.079807
H8    H     H_    0.923548 0.523145 0.691242 0.206189
C17   C     C_R   0.504045 0.814130 0.534007 -0.113494
C18   C     C_R   0.497076 0.185867 0.467189 -0.074119
C19   C     C_R   0.472950 0.015746 0.349714 -0.150620
C20   C     C_R   0.476233 0.123534 0.359386 -0.172859
C21   C     C_R   0.515053 0.139801 0.565274 -0.147463
C22   C     C_R   0.509495 0.031702 0.557916 0.031023
C23   C     C_R   0.489497 0.969436 0.447969 0.119061
C24   C     C_R   0.486889 0.861475 0.437053 -0.236045
C25   C     C_R   0.523306 0.875181 0.643048 -0.237510
C26   C     C_R   0.525326 0.983789 0.656595 0.332149
H9    H     H_    0.471544 0.814342 0.352690 0.171268
H10   H     H_    0.535809 0.838513 0.718613 0.194552
H11   H     H_    0.457278 0.968605 0.265532 0.155200
H12   H     H_    0.462223 0.157991 0.282641 0.170869
H13   H     H_    0.534486 0.188773 0.646711 0.214240
N1    N     N_R   0.515490 0.519350 0.790130 -0.241236
N2    N     N_R   0.484510 0.480650 0.209890 -0.186039
C27   C     C_R   0.415133 0.408482 0.025934 -0.212964
C28   C     C_R   0.424422 0.416151 0.146849 0.087463
C29   C     C_R   0.537641 0.538457 0.155502 0.067397
C30   C     C_R   0.531058 0.532729 0.033280 0.012827
C31   C     C_R   0.468529 0.467317 0.967509 -0.018692
C32   C     C_R   0.461056 0.462508 0.845045 0.501675
C33   C     C_R   0.576248 0.582786 0.854006 0.032824
C34   C     C_R   0.584920 0.590880 0.975542 -0.301071
H14   H     H_    0.618399 0.627715 0.810703 0.151015
H15   H     H_    0.366372 0.356444 0.979238 0.200494
H16   H     H_    0.633650 0.642067 0.023908 0.160709
H17   H     H_    0.383050 0.370575 0.190542 0.132248
H18   H     H_    0.584990 0.589324 0.207306 0.123172
N3    N     N_R   0.083937 0.572037 0.720136 0.078863
O9    O     O_R   0.032950 0.639069 0.773134 -0.389206
O10   O     O_R   0.164407 0.584423 0.747577 -0.306799
O11   O     O_3   0.912073 0.644606 0.388104 -0.528460
C35   C     C_3   0.899781 0.753220 0.407264 -0.205517
H19   H     H_    0.959660 0.797659 0.436746 0.179443
H20   H     H_    0.850957 0.774126 0.471266 0.134343
H21   H     H_    0.876795 0.776352 0.324273 0.197658
N4    N     N_R   0.542029 0.043248 0.770822 0.109799
O12   O     O_R   0.599603 0.013340 0.840704 -0.358959
O13   O     O_R   0.489529 0.113711 0.812724 -0.318264
N5    N     N_R   0.394605 0.400005 0.779246 0.120259
O14   O     O_R   0.318154 0.434481 0.782478 -0.334335
O15   O     O_R   0.405147 0.300522 0.748410 -0.339222
O16   O     O_3   0.086648 0.388466 0.651443 -0.589822
C36   C     C_3   0.075969 0.372289 0.766565 -0.140902
H22   H     H_    0.014756 0.399955 0.800440 0.137421
H23   H     H_    0.128683 0.410588 0.825311 0.231280
H24   H     H_    0.078252 0.287369 0.768250 0.171256
N6    N     N_R   0.079185 0.637783 0.373926 0.166643
O17   O     O_R   0.131874 0.716059 0.377728 -0.344181
O18   O     O_R   0.051431 0.587121 0.273167 -0.306627

loop_
_geom_bond_atom_site_label_1
_geom_bond_atom_site_label_2
_geom_bond_distance
_ccdc_geom_bond_type
C30   C31   1.405332 A    
C30   C34   1.404823 A    
C13   N6    1.473369 S    
N4    O12   1.301333 A    
Cu1   Cu2   2.683299 S    
C12   H7    1.120031 S    
Cu1   O7    1.922490 S    
C11   C12   1.556995 S    
C7    C11   1.548261 S    
C8    C14   1.199400 T    
C32   N5    1.429749 S    
N6    O18   1.301485 A    
C3    C17   1.456443 S    
C27   H15   1.082095 S    
C36   H24   1.109102 S    
C15   C16   1.199110 T    
O7    C4    1.291909 A    
C5    C10   1.580806 S    
C33   H14   1.081651 S    
C5    N3    1.486292 S    
C31   C32   1.422458 A    
C23   C24   1.388293 A    
C35   H20   1.112140 S    
C17   C24   1.395259 A    
O5    C3    1.292631 A    
C12   O11   1.421980 S    
C5    O16   1.428507 S    
C6    C7    1.544986 S    
N3    O10   1.301799 A    
C19   H11   1.084011 S    
C17   C25   1.401312 A    
C20   H12   1.083220 S    
C6    H3    1.112572 S    
C10   H8    1.110088 S    
C2    C16   1.422518 S    
C6    C9    1.557942 S    
N4    O13   1.301021 A    
C26   N4    1.436907 S    
H1    C10   1.113797 S    
O3    Cu1   1.929858 S    
N1    C33   1.364570 A    
C13   H6    1.113560 S    
N5    O14   1.301098 A    
O3    C2    1.293441 A    
C21   C22   1.395294 A    
O11   C35   1.411112 S    
C33   C34   1.407585 A    
C7    H4    1.113341 S    
N2    C28   1.360562 A    
C24   H9    1.084775 S    
C4    C8    1.423334 S    
C35   H21   1.109155 S    
C25   C26   1.394518 A    
C19   C20   1.387422 A    
Cu2   O8    1.929857 S    
N6    O17   1.301234 A    
Cu2   N2    2.015765 S    
C36   H23   1.110082 S    
C22   C23   1.418252 A    
C21   H13   1.080864 S    
O8    C4    1.294129 A    
C27   C28   1.401366 A    
Cu1   O5    1.966519 S    
C29   C30   1.417839 A    
C5    C9    1.580006 S    
C34   H16   1.083236 S    
O1    Cu1   1.965832 S    
N1    C32   1.380566 A    
C18   C21   1.399450 A    
O2    Cu2   1.966519 S    
C9    C13   1.569342 S    
Cu1   N1    2.015998 S    
N5    O15   1.299737 A    
C36   H22   1.111845 S    
O6    C3    1.296257 A    
O4    Cu2   1.922491 S    
C7    H5    1.112502 S    
N2    C29   1.371417 A    
C18   C20   1.400980 A    
O2    C1    1.293873 A    
C10   C11   1.553774 S    
C28   H17   1.081713 S    
O4    C2    1.292237 A    
C29   H18   1.082627 S    
C1    C18   1.457176 S    
C6    H2    1.110233 S    
C19   C23   1.399407 A    
C35   H19   1.112891 S    
C25   H10   1.083593 S    
C9    C15   1.467428 S    
O16   C36   1.416470 S    
C22   C26   1.414130 A    
C11   C14   1.465366 S    
Cu2   O6    1.965831 S    
N3    O9    1.302002 A    
C12   C13   1.568337 S    
O1    C1    1.295371 A    
C27   C31   1.410547 A    
