data_mof_unit_19035.cif
_audit_creation_date              2012-12-10T17:11:29-0500
_audit_creation_method            fapswitch 2.2
_symmetry_space_group_name_H-M    P1
_symmetry_Int_Tables_number       1
_space_group_crystal_system       triclinic
_cell_length_a                    15.066342
_cell_length_b                    13.045882
_cell_length_c                    11.7489
_cell_angle_alpha                 100.41096
_cell_angle_beta                  94.124967
_cell_angle_gamma                 91.360183
_cell_volume                      2263.79932684

loop_
_atom_site_label
_atom_site_type_symbol
_atom_type_description
_atom_site_fract_x
_atom_site_fract_y
_atom_site_fract_z
_atom_type_partial_charge
C1    C     C_R   0.503753 0.299389 0.478541 0.855906
C2    C     C_R   0.496246 0.700611 0.521459 0.855908
C3    C     C_R   0.042551 0.338603 0.584703 0.410494
C4    C     C_R   0.957449 0.661398 0.415299 0.410495
C5    C     C_R   0.491491 0.814245 0.533324 -0.167109
C6    C     C_R   0.508509 0.185755 0.466676 -0.167110
C7    C     C_R   0.476866 0.015749 0.346884 -0.117901
C8    C     C_R   0.523133 0.984251 0.653115 -0.117900
C9    C     C_R   0.487739 0.122872 0.357685 -0.206588
C10   C     C_R   0.512261 0.877128 0.642315 -0.206590
C11   C     C_R   0.527811 0.138630 0.564834 0.350811
C12   C     C_R   0.472188 0.861370 0.435166 0.350812
C13   C     C_R   0.512874 0.030990 0.554856 0.049689
C14   C     C_R   0.487126 0.969010 0.445144 0.049689
C15   C     C_R   0.413292 0.402484 0.018556 -0.182084
C16   C     C_R   0.586708 0.597516 0.981444 -0.182083
C17   C     C_R   0.419117 0.415058 0.141770 -0.029949
C18   C     C_R   0.580883 0.584942 0.858230 -0.029948
C19   C     C_R   0.538369 0.539505 0.158097 0.107150
C20   C     C_R   0.461631 0.460495 0.841903 0.107150
C21   C     C_R   0.531253 0.535226 0.035389 -0.004200
C22   C     C_R   0.468747 0.464774 0.964611 -0.004201
C23   C     C_R   0.329023 0.497022 0.499659 0.827341
C24   C     C_R   0.670976 0.502978 0.500341 0.827344
C25   C     C_R   0.812719 0.579438 0.447626 -0.019378
C26   C     C_R   0.187281 0.420562 0.552373 -0.019376
C27   C     C_R   0.767646 0.507443 0.500966 -0.117125
C28   C     C_R   0.232354 0.492557 0.499034 -0.117123
C29   C     C_R   0.813720 0.434601 0.551911 -0.185855
C30   C     C_R   0.186280 0.565400 0.448091 -0.185855
C31   C     C_R   0.905266 0.425928 0.544669 0.014133
C32   C     C_R   0.094735 0.574073 0.455332 0.014132
C33   C     C_R   0.953237 0.501826 0.499152 -0.056526
C34   C     C_R   0.046763 0.498175 0.500849 -0.056526
C35   C     C_R   0.907457 0.581343 0.452420 -0.027821
C36   C     C_R   0.092543 0.418657 0.547581 -0.027822
C37   C     C_R   0.949189 0.342413 0.582658 0.301991
C38   C     C_R   0.050811 0.657588 0.417344 0.301992
Cu1   Cu    Cu3+1 0.506660 0.507730 0.615930 0.993030
Cu2   Cu    Cu3+1 0.493340 0.492270 0.384070 0.993031
H1    H     H_    0.776129 0.382237 0.593877 0.150920
H2    H     H_    0.223871 0.617764 0.406125 0.150919
H3    H     H_    0.521629 0.843703 0.719696 0.227831
H4    H     H_    0.478371 0.156297 0.280304 0.227831
H5    H     H_    0.459342 0.970011 0.261340 0.220194
H6    H     H_    0.540657 0.029989 0.738660 0.220194
H7    H     H_    0.412265 0.409915 0.786466 0.172337
H8    H     H_    0.587735 0.590084 0.213534 0.172336
N1    N     N_R   0.516670 0.519360 0.790130 -0.234445
N2    N     N_R   0.483330 0.480640 0.209870 -0.234444
O1    O     O_R   0.504720 0.354460 0.582000 -0.571660
O2    O     O_R   0.495280 0.645540 0.418000 -0.571659
O3    O     O_R   0.493480 0.341410 0.386200 -0.564595
O4    O     O_R   0.506520 0.658590 0.613800 -0.564596
O5    O     O_R   0.375880 0.506510 0.597910 -0.598769
O6    O     O_R   0.624120 0.493490 0.402090 -0.598768
O7    O     O_R   0.364640 0.493450 0.402110 -0.585111
O8    O     O_R   0.635360 0.506550 0.597890 -0.585112
C39   C     C_2   0.759077 0.649574 0.386223 0.941395
O9    O     O_2   0.763833 0.645245 0.282079 -0.549373
O10   O     O_R   0.702186 0.718769 0.447164 -0.739823
H9    H     H_    0.668671 0.761712 0.395612 0.337966
C40   C     C_2   0.240923 0.350423 0.613773 0.941395
O11   O     O_2   0.236171 0.354752 0.717917 -0.549375
O12   O     O_R   0.297811 0.281226 0.552828 -0.739820
H10   H     H_    0.331326 0.238282 0.604377 0.337964
C41   C     C_2   0.351480 0.321339 0.946906 0.872965
O13   O     O_2   0.271823 0.321501 0.960768 -0.510248
O14   O     O_R   0.385138 0.244282 0.864103 -0.735473
H11   H     H_    0.337022 0.193286 0.820917 0.353010
C42   C     C_2   0.648520 0.678662 0.053094 0.872962
O15   O     O_2   0.728176 0.678501 0.039230 -0.510247
O16   O     O_R   0.614861 0.755718 0.135898 -0.735475
H12   H     H_    0.662977 0.806714 0.179084 0.353008
O17   O     O_3   0.902275 0.261951 0.616054 -0.718913
H13   H     H_    0.850470 0.241439 0.558860 0.327245
O18   O     O_3   0.097725 0.738051 0.383949 -0.718913
H14   H     H_    0.149530 0.758562 0.441143 0.327245
O19   O     O_3   0.085494 0.253424 0.614594 -0.683304
H15   H     H_    0.043711 0.205993 0.643083 0.391981
O20   O     O_3   0.914506 0.746578 0.385410 -0.683305
H16   H     H_    0.956289 0.794009 0.356921 0.391981
O21   O     O_3   0.438221 0.804747 0.329582 -0.697876
H17   H     H_    0.391526 0.755443 0.345331 0.330371
O22   O     O_3   0.561779 0.195253 0.670418 -0.697876
H18   H     H_    0.608474 0.244557 0.654669 0.330372
C43   C     C_2   0.647879 0.642125 0.805118 0.992427
O23   O     O_2   0.632943 0.729038 0.786154 -0.552199
O24   O     O_R   0.732445 0.602757 0.788568 -0.680245
H19   H     H_    0.738851 0.531747 0.811187 0.307383
C44   C     C_2   0.352121 0.357875 0.194882 0.992425
O25   O     O_2   0.367057 0.270962 0.213846 -0.552198
O26   O     O_R   0.267555 0.397244 0.211431 -0.680245
H20   H     H_    0.261149 0.468253 0.188812 0.307383

loop_
_geom_bond_atom_site_label_1
_geom_bond_atom_site_label_2
_ccdc_geom_bond_type
Cu1   O1    S    
C43   O23   D    
C40   O12   S    
O26   H20   S    
C27   C29   A    
O16   H12   S    
C17   C44   S    
C24   C27   S    
C26   C40   S    
C3    O19   S    
C6    C9    A    
O20   H16   S    
O18   H14   S    
C16   C21   A    
C7    H5    S    
C19   C21   A    
Cu1   O4    S    
C7    C9    A    
C1    O3    A    
C13   C14   A    
C15   C22   A    
Cu1   O5    S    
C4    O20   S    
Cu2   O6    S    
C31   C33   A    
C32   C38   A    
C37   O17   S    
C4    C35   A    
C39   O9    D    
C21   C22   A    
O10   H9    S    
C16   C42   S    
C7    C14   A    
C39   O10   S    
C41   O13   D    
C24   O8    A    
O19   H15   S    
C5    C12   A    
C2    O4    A    
C44   O25   D    
C42   O16   S    
C19   H8    S    
O22   H18   S    
Cu1   O8    S    
C1    C6    S    
C12   O21   S    
C41   O14   S    
C32   C34   A    
O17   H13   S    
C20   N1    A    
C44   O26   S    
O21   H17   S    
C15   C41   S    
C33   C34   A    
C23   C28   S    
C1    O1    A    
C2    O2    A    
C25   C35   A    
C8    C10   A    
Cu1   N1    S    
C12   C14   A    
Cu2   O3    S    
C43   O24   S    
C2    C5    S    
C25   C27   A    
C20   C22   A    
C6    C11   A    
C26   C36   A    
C23   O7    A    
C9    H4    S    
Cu2   O7    S    
C29   H1    S    
C10   H3    S    
C4    C38   A    
C17   N2    A    
C23   O5    A    
C38   O18   S    
C24   O6    A    
C26   C28   A    
C18   C43   S    
C28   C30   A    
C5    C10   A    
C29   C31   A    
Cu2   O2    S    
C30   C32   A    
C11   C13   A    
C19   N2    A    
C3    C36   A    
C11   O22   S    
Cu2   N2    S    
C33   C35   A    
C34   C36   A    
O14   H11   S    
C8    H6    S    
C20   H7    S    
C40   O11   D    
Cu1   Cu2   S    
C8    C13   A    
C31   C37   A    
C42   O15   D    
C3    C37   A    
C16   C18   A    
O12   H10   S    
C30   H2    S    
C25   C39   S    
O24   H19   S    
C15   C17   A    
C18   N1    A    
