data_mof_unit_27782.cif
_audit_creation_date              2012-10-26T18:43:51-0400
_audit_creation_method            fapswitch 2.2
_symmetry_space_group_name_H-M    P1
_symmetry_Int_Tables_number       1
_space_group_crystal_system       triclinic
_cell_length_a                    9.540031
_cell_length_b                    10.8894
_cell_length_c                    17.341747
_cell_angle_alpha                 90.270636
_cell_angle_beta                  85.991654
_cell_angle_gamma                 90.71675
_cell_volume                      1796.99028227

loop_
_atom_site_label
_atom_site_type_symbol
_atom_type_description
_atom_site_fract_x
_atom_site_fract_y
_atom_site_fract_z
_atom_type_partial_charge
C1    C     C_R   0.501068 0.737346 0.501826 0.556822
C2    C     C_R   0.527276 0.511838 0.265844 -0.026784
C3    C     C_R   0.381059 0.935832 0.506792 -0.029066
C4    C     C_R   0.481747 0.498385 0.649921 0.540454
C5    C     C_R   0.504812 0.870141 0.504980 0.004529
C6    C     C_R   0.632737 0.939071 0.505164 0.242518
C7    C     C_R   0.629468 0.067788 0.500586 -0.139280
C8    C     C_R   0.500829 0.130230 0.501188 -0.036390
C9    C     C_R   0.378856 0.059451 0.504797 0.003832
C10   C     C_3   0.222681 0.063367 0.506287 -0.260333
C11   C     C_3   0.225473 0.922243 0.508786 -0.250482
C12   C     C_R   0.341705 0.488784 0.776548 -0.147338
C13   C     C_R   0.934423 0.476940 0.433516 0.171726
C14   C     C_R   0.918147 0.533680 0.563905 -0.023024
C15   C     C_R   0.066750 0.534023 0.563856 -0.021095
C16   C     C_R   0.499482 0.262711 0.499875 0.555012
C17   C     C_R   0.081920 0.478235 0.433316 0.161600
C18   C     C_3   0.093588 0.365408 0.384678 -0.279724
C19   C     C_3   0.934416 0.362222 0.386143 -0.278886
C20   C     C_R   0.518242 0.502878 0.350124 0.553546
C21   C     C_R   0.472687 0.491101 0.734281 0.016240
C22   C     C_R   0.596347 0.482643 0.773117 -0.133855
C23   C     C_R   0.412129 0.540724 0.147804 -0.114340
C24   C     C_R   0.589484 0.473657 0.852973 -0.153442
C25   C     C_R   0.458821 0.474397 0.895383 0.059644
C26   C     C_R   0.334950 0.479862 0.856799 -0.090096
C27   C     C_3   0.865019 0.393818 0.113166 0.004580
C28   C     C_3   0.008655 0.425656 0.142555 -0.259559
C29   C     C_3   0.091344 0.310126 0.157530 -0.448394
C30   C     C_3   0.795419 0.860228 0.581741 0.030362
C31   C     C_3   0.857375 0.974658 0.619326 -0.291926
C32   C     C_3   0.922404 0.942764 0.694519 -0.483897
C33   C     C_R   0.405094 0.531717 0.227562 -0.165573
C34   C     C_R   0.657351 0.504543 0.223255 -0.118417
C35   C     C_R   0.664719 0.508505 0.142218 0.272708
C36   C     C_R   0.540637 0.526147 0.104698 0.084219
C37   C     C_2   0.450240 0.469868 0.979964 0.334856
C38   C     C_2   0.545834 0.529172 0.020166 -0.077793
Cu1   Cu    Cu3+1 0.359330 0.500020 0.500000 0.935515
Cu2   Cu    Cu3+1 0.640670 0.499980 0.500000 0.952580
F1    F     F_    0.342796 0.404547 0.016597 -0.670809
H1    H     H_    0.698731 0.482154 0.741920 0.121386
H2    H     H_    0.303930 0.542031 0.259163 0.131143
H3    H     H_    0.138141 0.287906 0.415434 0.146431
H4    H     H_    0.894689 0.376866 0.328334 0.117565
H5    H     H_    0.886193 0.282683 0.418546 0.145268
H6    H     H_    0.752916 0.495332 0.252556 0.121841
H7    H     H_    0.632805 0.578926 0.990418 0.102065
H8    H     H_    0.233293 0.479521 0.888843 0.151490
H9    H     H_    0.316885 0.559699 0.119795 0.161776
H10   H     H_    0.244802 0.494017 0.747775 0.115789
H11   H     H_    0.686442 0.465018 0.881325 0.106842
H12   H     H_    0.728387 0.118046 0.497578 0.141191
H13   H     H_    0.881554 0.343870 0.057308 0.158324
H14   H     H_    0.807019 0.328930 0.154054 0.116622
H15   H     H_    0.069610 0.482843 0.098814 0.206264
H16   H     H_    0.994706 0.479613 0.197017 0.147371
H17   H     H_    0.033896 0.253094 0.202637 0.131418
H18   H     H_    0.195332 0.336186 0.177972 0.176506
H19   H     H_    0.108270 0.255384 0.103549 0.193510
H20   H     H_    0.876157 0.787625 0.578948 0.153901
H21   H     H_    0.703888 0.823518 0.618565 0.121270
H22   H     H_    0.938985 0.016874 0.578723 0.172428
H23   H     H_    0.175534 0.106516 0.560053 0.138045
H24   H     H_    0.773480 0.042960 0.632420 0.154895
H25   H     H_    0.841496 0.902167 0.736368 0.151404
H26   H     H_    0.965781 0.027398 0.720299 0.155514
H27   H     H_    0.009045 0.876415 0.683426 0.137248
H28   H     H_    0.185249 0.097731 0.451419 0.132836
H29   H     H_    0.180515 0.882931 0.564260 0.136467
H30   H     H_    0.189833 0.877473 0.455710 0.160890
H31   H     H_    0.857100 0.559971 0.616026 0.101920
H32   H     H_    0.115402 0.560639 0.615896 0.111596
H33   H     H_    0.144828 0.384180 0.326379 0.122689
N1    N     N_R   0.852130 0.499070 0.499500 -0.227567
N2    N     N_R   0.148040 0.499110 0.499500 -0.232283
O1    O     O_R   0.381190 0.680360 0.500000 -0.508806
O2    O     O_3   0.762333 0.883380 0.504791 -0.549252
O3    O     O_R   0.618770 0.680320 0.499990 -0.459217
O4    O     O_R   0.367430 0.500040 0.613600 -0.517513
O5    O     O_R   0.605020 0.500000 0.613590 -0.525520
O6    O     O_R   0.381230 0.319680 0.500010 -0.495671
O7    O     O_R   0.618810 0.319640 0.500000 -0.514512
O8    O     O_R   0.394980 0.500000 0.386410 -0.505855
O9    O     O_R   0.632570 0.499960 0.386400 -0.504219
O10   O     O_3   0.792682 0.503540 0.099041 -0.583726

loop_
_geom_bond_atom_site_label_1
_geom_bond_atom_site_label_2
_ccdc_geom_bond_type
C24   H11   S    
C1    O1    A    
C35   C36   A    
C28   H15   S    
C19   H5    S    
C7    C8    A    
C22   H1    S    
C28   H16   S    
C1    C5    S    
Cu1   O1    S    
C28   C29   S    
Cu1   O8    S    
C4    O4    A    
C30   C31   S    
C35   O10   S    
C11   H30   S    
C6    O2    S    
C34   C35   A    
C25   C37   S    
C4    O5    A    
C13   N1    A    
C8    C9    A    
C23   C33   A    
C17   N2    A    
C9    C10   S    
C38   H7    S    
C32   H27   S    
C2    C34   A    
C15   N2    A    
C8    C16   S    
C21   C22   A    
Cu2   O7    S    
C27   H13   S    
C13   C19   S    
C2    C20   S    
C33   H2    S    
C31   H22   S    
C24   C25   A    
C26   H8    S    
Cu1   Cu2   S    
C18   C19   S    
C23   H9    S    
C25   C26   A    
C12   C21   A    
C16   O7    A    
C12   C26   A    
Cu2   O9    S    
C27   O10   S    
C37   C38   D    
C3    C9    A    
C18   H3    S    
C31   C32   S    
C29   H19   S    
C20   O9    A    
C16   O6    A    
C17   C18   S    
Cu2   O3    S    
Cu1   N2    S    
C32   H26   S    
C2    C33   A    
C15   H32   S    
C20   O8    A    
C1    O3    A    
C22   C24   A    
C7    H12   S    
C12   H10   S    
C32   H25   S    
C31   H24   S    
C14   H31   S    
Cu2   O5    S    
C10   H23   S    
Cu1   O6    S    
C3    C5    A    
C19   H4    S    
C6    C7    A    
Cu2   N1    S    
C13   C17   A    
Cu1   O4    S    
C30   H21   S    
C14   N1    A    
C4    C21   S    
C5    C6    A    
C36   C38   S    
C27   H14   S    
C37   F1    S    
C3    C11   S    
C10   C11   S    
C11   H29   S    
C30   O2    S    
C10   H28   S    
C29   H17   S    
C18   H33   S    
C23   C36   A    
C30   H20   S    
C27   C28   S    
C29   H18   S    
C14   C15   A    
C34   H6    S    
