data_mof_unit_41641.cif
_audit_creation_date              2012-12-11T14:33:14-0500
_audit_creation_method            fapswitch 2.2
_symmetry_space_group_name_H-M    P1
_symmetry_Int_Tables_number       1
_space_group_crystal_system       triclinic
_cell_length_a                    7.000769
_cell_length_b                    14.125988
_cell_length_c                    17.889857
_cell_angle_alpha                 111.987337
_cell_angle_beta                  95.845092
_cell_angle_gamma                 90.403775
_cell_volume                      1630.01195368

loop_
_atom_site_label
_atom_site_type_symbol
_atom_type_description
_atom_site_fract_x
_atom_site_fract_y
_atom_site_fract_z
_atom_type_partial_charge
O1    O     O_R   0.484560 0.544530 0.414330 -0.539260
O2    O     O_R   0.197040 0.638810 0.585080 -0.553292
O3    O     O_R   0.026800 0.455470 0.585670 -0.557431
C1    C     C_R   0.375206 0.677814 0.610349 0.653648
O4    O     O_R   0.155000 0.556150 0.414940 -0.544588
O5    O     O_R   0.984450 0.372220 0.414320 -0.533744
C2    C     C_R   0.317593 0.564679 0.386488 0.746521
O6    O     O_R   0.526900 0.627780 0.585680 -0.543756
O7    O     O_3   0.339170 0.439750 0.499990 -0.358545
V1    V     V_3+5 0.064350 0.511180 0.500000 1.378551
O8    O     O_R   0.654880 0.361190 0.414920 -0.541459
C3    C     C_R   0.816982 0.324132 0.387101 0.664642
O9    O     O_R   0.696930 0.443850 0.585060 -0.527890
C4    C     C_R   0.872619 0.417418 0.602246 0.744582
V2    V     V_3+5 0.564340 0.488820 0.500000 1.425738
O10   O     O_3   0.839390 0.560250 0.500010 -0.381628
C5    C     C_R   0.042759 0.857326 0.818667 -0.042891
C6    C     C_R   0.908238 0.376605 0.669507 -0.096924
C7    C     C_R   0.954719 0.813785 0.673689 -0.138071
C8    C     C_R   0.024820 0.787304 0.738866 -0.166932
C9    C     C_R   0.015917 0.959194 0.830713 -0.197033
C10   C     C_R   0.976526 0.990920 0.763499 0.101830
C11   C     C_R   0.933254 0.915956 0.685166 0.108994
C12   C     C_R   0.979289 0.094488 0.772074 0.088578
C13   C     C_R   0.924949 0.124833 0.704795 0.076458
C14   C     C_R   0.870345 0.046615 0.628666 -0.185752
C15   C     C_R   0.877069 0.943872 0.619013 -0.222095
C16   C     C_R   0.039170 0.168499 0.847164 -0.213618
C17   C     C_R   0.027649 0.268213 0.859800 -0.219326
C18   C     C_R   0.990189 0.303680 0.796770 0.114863
C19   C     C_R   0.933746 0.232082 0.716939 0.044747
C20   C     C_R   0.010554 0.409304 0.813594 0.073063
C21   C     C_R   0.977344 0.445122 0.748719 0.087176
C22   C     C_R   0.888422 0.270859 0.654195 -0.251323
H1    H     H_    0.840629 0.885652 0.558991 0.130060
H2    H     H_    0.841336 0.220464 0.592686 0.138841
H3    H     H_    0.050699 0.314465 0.922331 0.145553
H4    H     H_    0.928879 0.755333 0.613429 0.148109
H5    H     H_    0.074715 0.712921 0.726243 0.129661
H6    H     H_    0.023847 0.010596 0.893165 0.088843
H7    H     H_    0.826429 0.062666 0.575265 0.142492
H8    H     H_    0.091963 0.152888 0.899775 0.122283
H9    H     H_    0.101587 0.226922 0.300824 0.134268
H10   H     H_    0.835559 0.035660 0.187826 0.196093
C23   C     C_2   0.133858 0.036712 0.182875 -0.351998
C24   C     C_2   0.971239 0.077747 0.214795 -0.091082
C25   C     C_2   0.811405 0.217668 0.323233 -0.177776
C26   C     C_2   0.969186 0.179589 0.283800 -0.127966
H11   H     H_    0.270807 0.078586 0.207227 0.150349
C27   C     C_R   0.415894 0.778666 0.680724 -0.043121
C28   C     C_R   0.540908 0.461780 0.854712 -0.071531
C29   C     C_R   0.537844 0.865687 0.822616 -0.117226
C30   C     C_R   0.476734 0.776346 0.756691 -0.172621
C31   C     C_R   0.411920 0.875432 0.673250 -0.193783
C32   C     C_R   0.465563 0.969626 0.742145 0.098304
C33   C     C_R   0.533638 0.961403 0.816102 0.118146
C34   C     C_R   0.456965 0.071175 0.740437 0.063201
C35   C     C_R   0.528310 0.162799 0.810078 0.082620
C36   C     C_R   0.613206 0.144332 0.877763 -0.186396
C37   C     C_R   0.605660 0.048170 0.882548 -0.232177
C38   C     C_R   0.373492 0.082614 0.670951 -0.208529
C39   C     C_R   0.363159 0.176518 0.666058 -0.138329
C40   C     C_R   0.439293 0.266590 0.729130 0.093059
C41   C     C_R   0.515915 0.266073 0.806615 0.056230
C42   C     C_R   0.425486 0.358118 0.715414 -0.052800
C43   C     C_R   0.456474 0.451106 0.778868 -0.230993
C44   C     C_R   0.567972 0.368531 0.872530 0.053874
H12   H     H_    0.668584 0.040703 0.937908 0.119826
H13   H     H_    0.419839 0.519399 0.767631 0.087399
H14   H     H_    0.279928 0.177023 0.612078 0.175511
H15   H     H_    0.589074 0.860033 0.879552 0.162428
H16   H     H_    0.475470 0.704418 0.765069 0.095899
H17   H     H_    0.370919 0.874154 0.613181 0.097693
H18   H     H_    0.698299 0.200669 0.926940 0.163486
H19   H     H_    0.305356 0.019797 0.619292 0.135873
H20   H     H_    0.335042 0.664656 0.192842 0.158266
H21   H     H_    0.612598 0.588851 0.307095 0.153281
C45   C     C_2   0.314440 0.601174 0.318273 -0.342965
C46   C     C_2   0.475449 0.609073 0.284315 -0.127978
H22   H     H_    0.771000 0.635285 0.206510 0.125711
C47   C     C_2   0.633994 0.654795 0.183028 -0.323561
C48   C     C_2   0.472416 0.645095 0.215988 -0.120332
H23   H     H_    0.177625 0.621175 0.295023 0.129244
O11   O     O_R   0.421600 0.630430 0.917010 -0.542983
O12   O     O_R   0.793840 0.702190 0.087630 -0.542478
O13   O     O_R   0.964010 0.886170 0.088190 -0.535183
C49   C     C_R   0.631175 0.692965 0.115789 0.747962
O14   O     O_R   0.751460 0.619510 0.917500 -0.549106
O15   O     O_R   0.921330 0.802900 0.916840 -0.548753
C50   C     C_R   0.577154 0.575323 0.911517 0.662247
O16   O     O_R   0.464290 0.713700 0.088350 -0.543509
O17   O     O_3   0.609200 0.818520 0.002630 -0.377466
V3    V     V_3+5 0.884140 0.747190 0.002530 1.358946
O18   O     O_R   0.251150 0.814630 0.917340 -0.542200
C51   C     C_R   0.074748 0.823191 0.888647 0.671365
O19   O     O_R   0.293530 0.897310 0.087470 -0.529698
C52   C     C_R   0.131118 0.933830 0.115447 0.779006
V4    V     V_3+5 0.384070 0.769710 0.002370 1.379570
O20   O     O_3   0.109180 0.698190 0.002460 -0.392396
C53   C     C_3   0.031232 0.484583 0.901425 -0.302905
C54   C     C_3   0.191506 0.480679 0.963672 -0.811604
H24   H     H_    0.132683 0.466128 0.014066 0.192811
H25   H     H_    0.278879 0.419931 0.932396 0.268305
H26   H     H_    0.282297 0.550967 0.993337 0.260282
H27   H     H_    0.045678 0.557963 0.900791 0.256132
H28   H     H_    0.899544 0.478927 0.926721 0.173147
C55   C     C_2   0.629045 0.155300 0.308034 0.363015
H29   H     H_    0.493869 0.192869 0.316801 0.052859
O21   O     O_2   0.628169 0.063166 0.291133 -0.528231
C56   C     C_3   0.636244 0.385844 0.961964 -0.374778
C57   C     C_3   0.504528 0.344200 0.007910 -0.796352
H30   H     H_    0.433851 0.407413 0.052438 0.229337
H31   H     H_    0.393093 0.287546 0.966480 0.241464
H32   H     H_    0.591267 0.307749 0.044349 0.214498
H33   H     H_    0.779974 0.357106 0.967035 0.170879
H34   H     H_    0.658886 0.468785 0.998872 0.151675
C58   C     C_2   0.385421 0.363753 0.634481 0.384150
H35   H     H_    0.345673 0.436127 0.631959 0.091149
O22   O     O_2   0.416465 0.294290 0.571980 -0.534084
C59   C     C_3   0.006447 0.556948 0.760505 -0.362811
C60   C     C_3   0.813879 0.601935 0.746037 -0.699085
H36   H     H_    0.805672 0.619652 0.690646 0.222482
H37   H     H_    0.693367 0.547853 0.735941 0.210585
H38   H     H_    0.789522 0.671249 0.797721 0.233445
H39   H     H_    0.089292 0.609336 0.816337 0.169225
H40   H     H_    0.106020 0.560377 0.717688 0.149815

loop_
_geom_bond_atom_site_label_1
_geom_bond_atom_site_label_2
_ccdc_geom_bond_type
C13   C19   A    
C32   C33   A    
C40   C42   A    
C54   H24   S    
C49   O16   A    
C4    C6    S    
O2    C1    A    
C7    C8    A    
C1    O6    A    
C47   C48   D    
O17   V4    S    
C23   C24   D    
C38   H19   S    
C53   H27   S    
C39   C40   A    
C16   C17   A    
O13   V3    S    
C58   O22   D    
C28   C50   S    
O5    C3    A    
C18   C19   A    
C59   H40   S    
C43   H13   S    
O18   V4    S    
V2    O10   S    
C5    C8    A    
C39   H14   S    
O13   C52   A    
C56   C57   S    
C53   C54   S    
C60   H38   S    
C31   C32   A    
O12   V3    S    
C45   H23   S    
C57   H30   S    
O19   V4    S    
C55   H29   S    
O1    V2    S    
C11   C15   A    
H9    C26   S    
V3    O20   S    
O8    V2    S    
O12   C49   A    
C36   C37   A    
C54   H25   S    
O9    C4    A    
O15   V3    S    
C55   O21   D    
O18   C51   A    
O11   C50   A    
C3    C25   S    
H10   C24   S    
H21   C46   S    
C35   C41   A    
C24   C26   S    
C27   C30   A    
C41   C44   A    
C12   C13   A    
H20   C48   S    
O4    C2    A    
C8    H5    S    
C59   H39   S    
C15   H1    S    
C35   C36   A    
C5    C9    A    
C33   C37   A    
C1    C27   S    
C28   C43   A    
O15   C51   A    
C7    C11   A    
C17   C18   A    
C7    H4    S    
C31   H17   S    
C44   C56   S    
C25   C26   D    
C23   H11   S    
O19   C52   A    
C14   C15   A    
C19   C22   A    
C57   H31   S    
C28   C44   A    
C6    C22   A    
C36   H18   S    
C60   H36   S    
C47   C49   S    
O3    C4    A    
C2    C45   S    
C5    C51   S    
O14   C50   A    
C42   C43   A    
C54   H26   S    
C25   C55   S    
O9    V2    S    
C10   C12   A    
O2    V1    S    
C56   H34   S    
C29   C30   A    
O7    V1    S    
O14   V3    S    
O1    C2    A    
C10   C11   A    
C12   C16   A    
H22   C47   S    
O5    V1    S    
C46   C48   S    
O8    C3    A    
C34   C38   A    
O6    V2    S    
C53   H28   S    
O11   V4    S    
C20   C21   A    
C32   C34   A    
C13   C14   A    
O4    V1    S    
C27   C31   A    
O3    V1    S    
C23   C52   S    
C58   H35   S    
C18   C20   A    
C45   C46   D    
C34   C35   A    
C9    H6    S    
C16   H8    S    
O17   V3    S    
C57   H32   S    
C22   H2    S    
O16   V4    S    
O7    V2    S    
C38   C39   A    
C6    C21   A    
C60   H37   S    
C40   C41   A    
C20   C53   S    
C37   H12   S    
C21   C59   S    
V4    O20   S    
C17   H3    S    
C29   H15   S    
C42   C58   S    
C59   C60   S    
V1    O10   S    
C9    C10   A    
C30   H16   S    
C56   H33   S    
C29   C33   A    
C14   H7    S    
