data_mof_unit_15990.cif
_audit_creation_date              2012-10-26T21:00:43-0400
_audit_creation_method            fapswitch 2.2
_symmetry_space_group_name_H-M    P1
_symmetry_Int_Tables_number       1
_space_group_crystal_system       triclinic
_cell_length_a                    10.887283
_cell_length_b                    9.641903
_cell_length_c                    10.81623
_cell_angle_alpha                 90.931524
_cell_angle_beta                  91.900482
_cell_angle_gamma                 90.833099
_cell_volume                      1134.52058731

loop_
_atom_site_label
_atom_site_type_symbol
_atom_type_description
_atom_site_fract_x
_atom_site_fract_y
_atom_site_fract_z
_atom_type_partial_charge
C1    C     C_R   0.261976 0.498854 0.494638 0.549487
C2    C     C_R   0.492689 0.501487 0.737714 0.547808
C3    C     C_R   0.596331 0.748167 0.116271 -0.006232
C4    C     C_R   0.439108 0.757586 0.906326 -0.011059
C5    C     C_R   0.561256 0.877180 0.069058 -0.049819
C6    C     C_R   0.470161 0.880659 0.973690 -0.052782
C7    C     C_R   0.490585 0.630276 0.944193 -0.013334
C8    C     C_R   0.541357 0.625698 0.064949 -0.014661
C9    C     C_R   0.528671 0.499940 0.129437 -0.001135
C10   C     C_R   0.487777 0.504624 0.873279 -0.005510
C11   C     C_R   0.509008 0.376479 0.062198 -0.126013
C12   C     C_R   0.737043 0.500572 0.497490 0.572373
C13   C     C_R   0.499725 0.378601 0.934628 -0.132385
C14   C     C_R   0.056814 0.384032 0.436385 0.087201
C15   C     C_R   0.928861 0.386368 0.436655 0.126667
C16   C     C_R   0.869966 0.500658 0.489381 0.038371
C17   C     C_R   0.126841 0.497623 0.487375 0.010589
C18   C     C_1   0.698384 0.740549 0.205378 0.242687
C19   C     C_1   0.336945 0.758840 0.817510 0.250384
C20   C     C_1   0.615922 0.003487 0.121838 0.176675
C21   C     C_1   0.400603 0.005245 0.952118 0.178379
C22   C     C_R   0.938605 0.616003 0.532671 -0.150305
C23   C     C_R   0.065603 0.615154 0.529959 -0.146480
C24   C     C_R   0.427860 0.068558 0.416353 0.195962
C25   C     C_R   0.576674 0.074228 0.579910 0.207315
C26   C     C_R   0.425697 0.921055 0.419429 0.233049
C27   C     C_R   0.575495 0.926473 0.579624 0.234551
C28   C     C_R   0.512189 0.499658 0.263405 0.548611
Cu1   Cu    Cu3+1 0.500000 0.640660 0.500000 1.035201
Cu2   Cu    Cu3+1 0.500000 0.359340 0.500000 0.968370
H1    H     H_    0.500190 0.278510 0.107685 0.168787
H2    H     H_    0.404925 0.118861 0.237629 0.231264
H3    H     H_    0.733236 0.192107 0.614575 0.270738
H4    H     H_    0.624886 0.201631 0.729157 0.260945
H5    H     H_    0.254522 0.873728 0.351900 0.236840
H6    H     H_    0.365657 0.865377 0.246044 0.227333
H7    H     H_    0.636779 0.884161 0.753186 0.229673
H8    H     H_    0.746196 0.882756 0.645538 0.224615
H9    H     H_    0.498333 0.281212 0.884268 0.163629
H10   H     H_    0.894195 0.706484 0.570062 0.146569
H11   H     H_    0.115632 0.706774 0.562544 0.177012
H12   H     H_    0.162609 0.307044 0.303599 0.245251
H13   H     H_    0.163375 0.213429 0.440196 0.275747
H14   H     H_    0.882733 0.181846 0.421870 0.251447
H15   H     H_    0.880881 0.267183 0.285758 0.270679
H16   H     H_    0.345128 0.232830 0.335541 0.289675
N1    N     N_R   0.500000 0.852070 0.500000 -0.203993
N2    N     N_3   0.665455 0.140826 0.662457 -0.649893
N3    N     N_3   0.344548 0.842688 0.337109 -0.542153
N4    N     N_3   0.655597 0.853541 0.662701 -0.549808
N5    N     N_R   0.500000 0.147940 0.500000 -0.222814
N6    N     N_1   0.780792 0.735555 0.275393 -0.284150
N7    N     N_1   0.254546 0.761242 0.747549 -0.304476
N8    N     N_1   0.661852 0.102625 0.165067 -0.299804
N9    N     N_1   0.341356 0.102143 0.935281 -0.307233
N10   N     N_3   0.111250 0.268930 0.375762 -0.634779
N11   N     N_3   0.858469 0.274352 0.378884 -0.566426
N12   N     N_3   0.356483 0.129117 0.318825 -0.647845
O1    O     O_R   0.319640 0.618740 0.499990 -0.468708
O2    O     O_R   0.680360 0.618740 0.500010 -0.477513
O3    O     O_R   0.319620 0.381170 0.499990 -0.526824
O4    O     O_R   0.680380 0.381170 0.500010 -0.483389
O5    O     O_R   0.500000 0.618810 0.319650 -0.479351
O6    O     O_R   0.500000 0.618810 0.680350 -0.472931
O7    O     O_R   0.499970 0.381240 0.319640 -0.521966
O8    O     O_R   0.500030 0.381240 0.680360 -0.520117

loop_
_geom_bond_atom_site_label_1
_geom_bond_atom_site_label_2
_ccdc_geom_bond_type
H5    N3    S    
C7    C10   A    
C14   N10   S    
Cu2   N5    S    
Cu1   O5    S    
Cu1   Cu2   S    
H8    N4    S    
C25   C27   A    
C9    C11   A    
C1    C17   S    
C23   H11   S    
C27   N4    S    
H2    N12   S    
H14   N11   S    
C3    C5    A    
C22   H10   S    
C19   N7    T    
C24   N5    A    
C25   N5    A    
C28   O7    A    
Cu1   O6    S    
C11   H1    S    
C7    C8    A    
C5    C20   S    
C17   C23   A    
H16   N12   S    
H7    N4    S    
C15   N11   S    
C25   N2    S    
H15   N11   S    
Cu2   O8    S    
C26   N1    A    
Cu1   N1    S    
C4    C7    A    
C20   N8    T    
C2    O6    A    
C3    C8    A    
C6    C21   S    
C1    O1    A    
Cu2   O4    S    
C5    C6    A    
C13   H9    S    
Cu2   O7    S    
H4    N2    S    
Cu2   O3    S    
C18   N6    T    
C15   C16   A    
C12   O2    A    
C28   O5    A    
Cu1   O1    S    
H13   N10   S    
C11   C13   A    
C12   O4    A    
C3    C18   S    
C24   N12   S    
C4    C6    A    
C26   N3    S    
C27   N1    A    
C21   N9    T    
H3    N2    S    
C14   C15   A    
Cu1   O2    S    
C16   C22   A    
C1    O3    A    
H12   N10   S    
C22   C23   A    
C4    C19   S    
C2    C10   S    
H6    N3    S    
C12   C16   S    
C9    C28   S    
C24   C26   A    
C8    C9    A    
C2    O8    A    
C10   C13   A    
C14   C17   A    
