data_mof_unit_37981.cif
_audit_creation_date              2012-12-10T16:37:56-0500
_audit_creation_method            fapswitch 2.2
_symmetry_space_group_name_H-M    P1
_symmetry_Int_Tables_number       1
_space_group_crystal_system       triclinic
_cell_length_a                    27.891973
_cell_length_b                    18.331173
_cell_length_c                    16.796591
_cell_angle_alpha                 89.956255
_cell_angle_beta                  60.968347
_cell_angle_gamma                 89.916252
_cell_volume                      7508.90057339

loop_
_atom_site_label
_atom_site_type_symbol
_atom_type_description
_atom_site_fract_x
_atom_site_fract_y
_atom_site_fract_z
_atom_type_partial_charge
C1    C     C_R   0.699352 0.262922 0.677919 0.869819
C2    C     C_R   0.300635 0.737065 0.322089 0.866194
C3    C     C_R   0.300631 0.262965 0.322113 0.867628
C4    C     C_R   0.699382 0.737023 0.677878 0.864020
C5    C     C_R   0.199352 0.762922 0.677919 0.869820
C6    C     C_R   0.800635 0.237065 0.322089 0.866194
C7    C     C_R   0.800631 0.762965 0.322113 0.867629
C8    C     C_R   0.199382 0.237023 0.677878 0.864019
C9    C     C_R   0.891079 0.500096 0.531473 -0.071774
C10   C     C_R   0.108919 0.499912 0.468530 -0.071759
C11   C     C_R   0.391080 0.000097 0.531471 -0.071775
C12   C     C_R   0.608920 0.999912 0.468528 -0.071758
C13   C     C_R   0.112230 0.368934 0.449407 0.710173
C14   C     C_R   0.887766 0.631075 0.550605 0.710117
C15   C     C_R   0.888780 0.368929 0.547771 0.709781
C16   C     C_R   0.111221 0.631080 0.452225 0.709699
C17   C     C_R   0.612231 0.868934 0.449405 0.710172
C18   C     C_R   0.387767 0.131075 0.550602 0.710118
C19   C     C_R   0.388781 0.868929 0.547769 0.709782
C20   C     C_R   0.611222 0.131080 0.452222 0.709699
C21   C     C_R   0.716337 0.258065 0.958613 -0.113676
C22   C     C_R   0.283266 0.740462 0.041737 -0.121465
C23   C     C_R   0.283622 0.258213 0.041441 -0.114119
C24   C     C_R   0.716766 0.740330 0.958217 -0.121907
C25   C     C_R   0.216337 0.758065 0.958613 -0.113676
C26   C     C_R   0.783266 0.240462 0.041737 -0.121465
C27   C     C_R   0.783622 0.758213 0.041441 -0.114118
C28   C     C_R   0.216766 0.240330 0.958217 -0.121907
C29   C     C_R   0.765639 0.217463 0.913867 -0.109846
C30   C     C_R   0.233832 0.780736 0.086573 -0.105457
C31   C     C_R   0.234462 0.217441 0.086104 -0.109848
C32   C     C_R   0.766056 0.780777 0.913469 -0.105458
C33   C     C_R   0.265639 0.717463 0.913866 -0.109845
C34   C     C_R   0.733832 0.280736 0.086573 -0.105457
C35   C     C_R   0.734462 0.717441 0.086104 -0.109849
C36   C     C_R   0.266056 0.280777 0.913469 -0.105458
C37   C     C_R   0.801092 0.212967 0.952902 -0.073146
C38   C     C_R   0.198313 0.784873 0.047688 -0.009364
C39   C     C_R   0.199034 0.212795 0.047021 -0.073000
C40   C     C_R   0.801552 0.785063 0.952398 -0.009205
C41   C     C_R   0.301092 0.712967 0.952902 -0.073146
C42   C     C_R   0.698313 0.284873 0.047689 -0.009362
C43   C     C_R   0.699034 0.712795 0.047021 -0.073000
C44   C     C_R   0.301552 0.285062 0.952398 -0.009205
C45   C     C_R   0.634282 0.308922 0.959941 -0.069359
C46   C     C_R   0.365748 0.690916 0.040156 -0.169666
C47   C     C_R   0.365557 0.309246 0.040183 -0.068181
C48   C     C_R   0.634409 0.690593 0.959717 -0.168533
C49   C     C_R   0.134282 0.808922 0.959941 -0.069359
C50   C     C_R   0.865748 0.190916 0.040156 -0.169665
C51   C     C_R   0.865557 0.809246 0.040183 -0.068182
C52   C     C_R   0.134409 0.190593 0.959717 -0.168533
C53   C     C_R   0.608129 0.332614 0.908964 -0.110021
C54   C     C_R   0.391756 0.667171 0.091275 -0.160437
C55   C     C_R   0.391713 0.332854 0.091179 -0.108784
C56   C     C_R   0.608396 0.666935 0.908584 -0.158956
C57   C     C_R   0.108129 0.832614 0.908964 -0.110021
C58   C     C_R   0.891756 0.167171 0.091275 -0.160437
C59   C     C_R   0.891713 0.832854 0.091179 -0.108784
C60   C     C_R   0.108396 0.166935 0.908584 -0.158955
C61   C     C_R   0.623195 0.302936 0.824136 0.333387
C62   C     C_R   0.376763 0.697018 0.175956 0.349351
C63   C     C_R   0.376696 0.303093 0.175964 0.324956
C64   C     C_R   0.623342 0.696862 0.823942 0.340799
C65   C     C_R   0.123195 0.802936 0.824136 0.333386
C66   C     C_R   0.876763 0.197018 0.175956 0.349350
C67   C     C_R   0.876696 0.803093 0.175964 0.324956
C68   C     C_R   0.123342 0.196862 0.823942 0.340798
C69   C     C_R   0.672642 0.265154 0.778413 -0.167403
C70   C     C_R   0.327296 0.734757 0.221624 -0.159388
C71   C     C_R   0.327336 0.265263 0.221626 -0.166580
C72   C     C_R   0.672722 0.734651 0.778337 -0.158598
C73   C     C_R   0.172642 0.765154 0.778413 -0.167404
C74   C     C_R   0.827295 0.234757 0.221624 -0.159387
C75   C     C_R   0.827336 0.765263 0.221626 -0.166580
C76   C     C_R   0.172722 0.234651 0.778337 -0.158598
C77   C     C_R   0.700668 0.242134 0.827100 -0.163295
C78   C     C_R   0.299143 0.757398 0.172978 -0.161740
C79   C     C_R   0.299363 0.242265 0.172919 -0.162971
C80   C     C_R   0.700819 0.757275 0.827007 -0.161437
C81   C     C_R   0.200668 0.742135 0.827100 -0.163295
C82   C     C_R   0.799143 0.257398 0.172978 -0.161740
C83   C     C_R   0.799363 0.742265 0.172919 -0.162971
C84   C     C_R   0.200819 0.257275 0.827007 -0.161437
C85   C     C_R   0.704550 0.130635 0.495709 0.930004
C86   C     C_R   0.295454 0.869368 0.504282 0.929040
C87   C     C_R   0.294831 0.131062 0.505769 0.885256
C88   C     C_R   0.705167 0.868940 0.494236 0.884366
C89   C     C_R   0.204549 0.630635 0.495710 0.930003
C90   C     C_R   0.795453 0.369368 0.504284 0.929040
C91   C     C_R   0.794831 0.631062 0.505770 0.885256
C92   C     C_R   0.205166 0.368940 0.494237 0.884365
C93   C     C_R   0.683997 0.270223 0.914905 -0.106915
C94   C     C_R   0.315836 0.729111 0.085262 -0.067290
C95   C     C_R   0.315934 0.270453 0.085173 -0.108238
C96   C     C_R   0.684225 0.728891 0.914664 -0.068731
C97   C     C_R   0.183997 0.770224 0.914904 -0.106915
C98   C     C_R   0.815836 0.229111 0.085262 -0.067290
C99   C     C_R   0.815933 0.770453 0.085173 -0.108238
C100  C     C_R   0.184225 0.228891 0.914664 -0.068730
C101  C     C_R   0.610260 0.316229 0.055837 0.344267
C102  C     C_R   0.389184 0.682716 0.944115 0.350625
C103  C     C_R   0.389530 0.316601 0.944286 0.344150
C104  C     C_R   0.611023 0.682340 0.055756 0.350498
C105  C     C_R   0.110260 0.816229 0.055837 0.344268
C106  C     C_R   0.889184 0.182716 0.944115 0.350625
C107  C     C_R   0.889530 0.816602 0.944286 0.344151
C108  C     C_R   0.111023 0.182340 0.055756 0.350498
C109  C     C_R   0.642764 0.306239 0.098492 0.579735
C110  C     C_R   0.356449 0.690593 0.902524 0.697743
C111  C     C_R   0.357032 0.306586 0.901638 0.579632
C112  C     C_R   0.643751 0.690253 0.097347 0.697632
C113  C     C_R   0.142764 0.806239 0.098492 0.579736
C114  C     C_R   0.856449 0.190593 0.902524 0.697743
C115  C     C_R   0.857032 0.806586 0.901638 0.579632
C116  C     C_R   0.143751 0.190253 0.097347 0.697631
C117  C     C_R   0.741651 0.187404 0.795587 0.601311
C118  C     C_R   0.257905 0.811769 0.204501 0.589997
C119  C     C_R   0.258559 0.187431 0.204348 0.603324
C120  C     C_R   0.741875 0.811755 0.795572 0.591997
C121  C     C_R   0.241651 0.687404 0.795586 0.601311
C122  C     C_R   0.757905 0.311769 0.204501 0.589998
C123  C     C_R   0.758559 0.687431 0.204348 0.603324
C124  C     C_R   0.241875 0.311755 0.795572 0.591996
C125  C     C_R   0.774100 0.176244 0.837031 0.638406
C126  C     C_R   0.225290 0.822257 0.163245 0.647274
C127  C     C_R   0.226144 0.176200 0.162892 0.638073
C128  C     C_R   0.774454 0.822322 0.836844 0.646985
C129  C     C_R   0.274100 0.676245 0.837031 0.638405
C130  C     C_R   0.725290 0.322257 0.163245 0.647275
C131  C     C_R   0.726144 0.676200 0.162892 0.638073
C132  C     C_R   0.274454 0.322322 0.836844 0.646984
C133  C     C_R   0.070496 0.104814 0.937797 0.889631
C134  C     C_R   0.929857 0.894805 0.061806 0.971679
C135  C     C_R   0.929619 0.104933 0.062067 0.891190
C136  C     C_R   0.070018 0.894679 0.938340 0.973351
C137  C     C_R   0.570496 0.604814 0.937797 0.889631
C138  C     C_R   0.429856 0.394805 0.061806 0.971679
C139  C     C_R   0.429619 0.604933 0.062067 0.891189
C140  C     C_R   0.570018 0.394679 0.938340 0.973351
C141  C     C_R   0.555628 0.132602 0.476286 -0.280585
C142  C     C_R   0.444374 0.867409 0.523709 -0.284246
C143  C     C_R   0.443392 0.132592 0.526731 -0.285872
C144  C     C_R   0.556607 0.867418 0.473274 -0.289474
C145  C     C_R   0.055626 0.632602 0.476289 -0.280586
C146  C     C_R   0.944373 0.367408 0.523712 -0.284246
C147  C     C_R   0.943391 0.632592 0.526734 -0.285871
C148  C     C_R   0.056606 0.367418 0.473277 -0.289475
C149  C     C_R   0.527420 0.198869 0.487929 0.612209
C150  C     C_R   0.472581 0.801141 0.512068 0.620923
C151  C     C_R   0.471283 0.198847 0.516298 0.614451
C152  C     C_R   0.528716 0.801164 0.483707 0.622888
C153  C     C_R   0.027419 0.698869 0.487932 0.612209
C154  C     C_R   0.972579 0.301141 0.512071 0.620924
C155  C     C_R   0.971282 0.698846 0.516301 0.614450
C156  C     C_R   0.028715 0.301164 0.483710 0.622888
C157  C     C_R   0.472042 0.066364 0.511309 -0.078776
C158  C     C_R   0.527958 0.933646 0.488691 -0.078670
C159  C     C_R   0.527416 0.066335 0.490395 -0.075581
C160  C     C_R   0.472584 0.933676 0.509602 -0.075503
C161  C     C_R   0.972041 0.566364 0.511312 -0.078776
C162  C     C_R   0.027957 0.433646 0.488694 -0.078670
C163  C     C_R   0.027415 0.566335 0.490398 -0.075581
C164  C     C_R   0.972583 0.433676 0.509606 -0.075503
C165  C     C_R   0.944852 0.500043 0.519387 0.106891
C166  C     C_R   0.055146 0.499967 0.480617 0.106887
C167  C     C_R   0.444853 0.000044 0.519384 0.106891
C168  C     C_R   0.555147 0.999967 0.480615 0.106887
C169  C     C_R   0.864816 0.433609 0.535898 -0.151180
C170  C     C_R   0.135185 0.566398 0.464099 -0.151907
C171  C     C_R   0.135946 0.433426 0.461947 -0.112779
C172  C     C_R   0.864051 0.566582 0.538062 -0.113535
C173  C     C_R   0.364817 0.933609 0.535895 -0.151181
C174  C     C_R   0.635186 0.066398 0.464096 -0.151906
C175  C     C_R   0.635947 0.933426 0.461945 -0.112780
C176  C     C_R   0.364052 0.066582 0.538060 -0.113534
C177  C     C_R   0.815807 0.434652 0.528749 -0.145872
C178  C     C_R   0.184195 0.565353 0.471245 -0.145208
C179  C     C_R   0.185335 0.434258 0.468132 -0.225066
C180  C     C_R   0.814661 0.565746 0.531876 -0.224195
C181  C     C_R   0.315808 0.934652 0.528747 -0.145871
C182  C     C_R   0.684196 0.065353 0.471244 -0.145209
C183  C     C_R   0.685336 0.934258 0.468131 -0.225067
C184  C     C_R   0.314662 0.065746 0.531875 -0.224194
C185  C     C_R   0.787823 0.499789 0.539016 0.367258
C186  C     C_R   0.212176 0.500214 0.460984 0.367427
C187  C     C_R   0.287824 0.999790 0.539015 0.367256
C188  C     C_R   0.712177 0.000214 0.460983 0.367428
O1    O     O_R   0.746490 0.236330 0.638080 -0.541663
O2    O     O_R   0.253510 0.763670 0.361920 -0.541216
O3    O     O_R   0.253510 0.236330 0.361920 -0.533348
O4    O     O_R   0.746490 0.763670 0.638080 -0.532890
O5    O     O_R   0.246490 0.736330 0.638080 -0.541663
O6    O     O_R   0.753510 0.263670 0.361920 -0.541215
O7    O     O_R   0.753510 0.736330 0.361920 -0.533347
O8    O     O_R   0.246490 0.263670 0.638080 -0.532891
O9    O     O_R   0.674170 0.186160 0.516270 -0.601424
O10   O     O_R   0.325830 0.813840 0.483730 -0.600006
O11   O     O_R   0.325830 0.186160 0.483730 -0.574980
O12   O     O_R   0.674170 0.813840 0.516270 -0.573516
O13   O     O_R   0.174170 0.686160 0.516270 -0.601425
O14   O     O_R   0.825830 0.313840 0.483730 -0.600005
O15   O     O_R   0.825830 0.686160 0.483730 -0.574979
O16   O     O_R   0.174170 0.313840 0.516270 -0.573517
O17   O     O_R   0.739960 0.127620 0.525000 -0.526186
O18   O     O_R   0.260040 0.872380 0.475000 -0.526862
O19   O     O_R   0.260040 0.127620 0.475000 -0.558821
O20   O     O_R   0.739960 0.872380 0.525000 -0.559496
O21   O     O_R   0.239960 0.627620 0.525000 -0.526185
O22   O     O_R   0.760040 0.372380 0.475000 -0.526861
O23   O     O_R   0.760040 0.627620 0.475000 -0.558821
O24   O     O_R   0.239960 0.372380 0.525000 -0.559496
O25   O     O_R   0.680700 0.294870 0.629350 -0.612133
O26   O     O_R   0.319300 0.705130 0.370650 -0.608186
O27   O     O_R   0.319300 0.294870 0.370650 -0.632324
O28   O     O_R   0.680700 0.705130 0.629350 -0.628401
O29   O     O_R   0.180700 0.794870 0.629350 -0.612132
O30   O     O_R   0.819300 0.205130 0.370650 -0.608187
O31   O     O_R   0.819300 0.794870 0.370650 -0.632324
O32   O     O_R   0.180700 0.205130 0.629350 -0.628400
O33   O     O_R   0.062020 0.072840 0.007170 -0.600562
O34   O     O_R   0.937980 0.927160 0.992830 -0.594751
O35   O     O_R   0.937980 0.072840 0.992830 -0.600799
O36   O     O_R   0.062020 0.927160 0.007170 -0.595173
O37   O     O_R   0.562020 0.572840 0.007170 -0.600562
O38   O     O_R   0.437980 0.427160 0.992830 -0.594750
O39   O     O_R   0.437980 0.572840 0.992830 -0.600799
O40   O     O_R   0.562020 0.427160 0.007170 -0.595173
O41   O     O_R   0.947860 0.073950 0.109290 -0.539424
O42   O     O_R   0.052140 0.926050 0.890710 -0.550059
O43   O     O_R   0.052140 0.073950 0.890710 -0.541092
O44   O     O_R   0.947860 0.926050 0.109290 -0.551644
O45   O     O_R   0.447860 0.573950 0.109290 -0.539424
O46   O     O_R   0.552140 0.426050 0.890710 -0.550059
O47   O     O_R   0.552140 0.573950 0.890710 -0.541092
O48   O     O_R   0.447860 0.426050 0.109290 -0.551644
Zn1   Zn    Zn3+2 0.792340 0.208750 0.507670 1.257936
Zn2   Zn    Zn3+2 0.207660 0.791250 0.492330 1.252185
Zn3   Zn    Zn3+2 0.207660 0.208750 0.492330 1.233200
Zn4   Zn    Zn3+2 0.792340 0.791250 0.507670 1.227412
Zn5   Zn    Zn3+2 0.292340 0.708750 0.507670 1.257937
Zn6   Zn    Zn3+2 0.707660 0.291250 0.492330 1.252184
Zn7   Zn    Zn3+2 0.707660 0.708750 0.492330 1.233200
Zn8   Zn    Zn3+2 0.292340 0.291250 0.507670 1.227412
Zn9   Zn    Zn3+2 0.505960 0.500000 0.080520 1.177898
Zn10  Zn    Zn3+2 0.494040 0.500000 0.919480 1.177933
Zn11  Zn    Zn3+2 0.005960 0.000000 0.080520 1.177898
Zn12  Zn    Zn3+2 0.994040 0.000000 0.919480 1.177933
F1    F     F_    0.054890 0.236180 0.471137 -0.508747
F2    F     F_    0.945106 0.763830 0.528883 -0.515113
F3    F     F_    0.946698 0.236161 0.523424 -0.509750
F4    F     F_    0.053301 0.763849 0.476575 -0.516342
F5    F     F_    0.554891 0.736180 0.471134 -0.508747
F6    F     F_    0.445107 0.263831 0.528880 -0.515114
F7    F     F_    0.446699 0.736162 0.523421 -0.509750
F8    F     F_    0.553303 0.263849 0.476572 -0.516341
O49   O     O_3   0.734374 0.497513 0.554704 -0.691979
H1    H     H_    0.714025 0.538842 0.595218 0.341002
O50   O     O_3   0.265625 0.502489 0.445294 -0.691533
H2    H     H_    0.285974 0.461158 0.404783 0.340377
O51   O     O_3   0.234375 0.997513 0.554704 -0.691979
H3    H     H_    0.214025 0.038842 0.595218 0.341002
O52   O     O_3   0.765626 0.002489 0.445295 -0.691534
H4    H     H_    0.785974 0.961158 0.404783 0.340377
F9    F     F_    0.143975 0.310324 0.405205 -0.597571
F10   F     F_    0.856020 0.689685 0.594805 -0.596343
F11   F     F_    0.857224 0.310426 0.592617 -0.596412
F12   F     F_    0.142776 0.689583 0.407380 -0.595210
F13   F     F_    0.643976 0.810324 0.405203 -0.597572
F14   F     F_    0.356022 0.189685 0.594803 -0.596342
F15   F     F_    0.357226 0.810427 0.592615 -0.596411
F16   F     F_    0.642777 0.189583 0.407378 -0.595211
O53   O     O_3   0.589428 0.313376 0.786220 -0.694440
H5    H     H_    0.590674 0.268439 0.752409 0.353709
O54   O     O_3   0.410540 0.686651 0.213859 -0.697792
H6    H     H_    0.409317 0.731647 0.247560 0.352447
O55   O     O_3   0.410444 0.313453 0.213891 -0.698522
H7    H     H_    0.409333 0.268439 0.247547 0.356579
O56   O     O_3   0.589585 0.686573 0.786026 -0.701747
H8    H     H_    0.590674 0.731644 0.752477 0.355353
O57   O     O_3   0.089428 0.813376 0.786220 -0.694440
H9    H     H_    0.090674 0.768439 0.752409 0.353709
O58   O     O_3   0.910540 0.186651 0.213859 -0.697792
H10   H     H_    0.909317 0.231647 0.247560 0.352448
O59   O     O_3   0.910444 0.813453 0.213891 -0.698522
H11   H     H_    0.909333 0.768439 0.247547 0.356578
O60   O     O_3   0.089585 0.186573 0.786026 -0.701747
H12   H     H_    0.090674 0.231644 0.752477 0.355353
O61   O     O_3   0.553868 0.323076 0.107293 -0.713168
H13   H     H_    0.543009 0.329376 0.172410 0.402661
O62   O     O_3   0.445016 0.676714 0.886860 -0.648302
H14   H     H_    0.464227 0.696699 0.918587 0.325476
O63   O     O_3   0.445910 0.323389 0.892778 -0.712866
H15   H     H_    0.456740 0.329735 0.827674 0.402977
O64   O     O_3   0.555205 0.676389 0.113053 -0.647819
H16   H     H_    0.535954 0.696531 0.081405 0.325516
O65   O     O_3   0.053868 0.823076 0.107293 -0.713168
H17   H     H_    0.043009 0.829375 0.172410 0.402661
O66   O     O_3   0.945016 0.176714 0.886860 -0.648302
H18   H     H_    0.964227 0.196699 0.918586 0.325476
O67   O     O_3   0.945910 0.823389 0.892778 -0.712865
H19   H     H_    0.956739 0.829736 0.827674 0.402977
O68   O     O_3   0.055205 0.176389 0.113053 -0.647819
H20   H     H_    0.035954 0.196531 0.081405 0.325516
F17   F     F_    0.617809 0.307223 0.190936 -0.585318
F18   F     F_    0.382058 0.687675 0.810144 -0.534440
F19   F     F_    0.381980 0.307635 0.809195 -0.584454
F20   F     F_    0.618148 0.687273 0.189723 -0.533516
F21   F     F_    0.117809 0.807223 0.190936 -0.585319
F22   F     F_    0.882058 0.187675 0.810144 -0.534440
F23   F     F_    0.881980 0.807635 0.809195 -0.584454
F24   F     F_    0.118148 0.187273 0.189723 -0.533516
F25   F     F_    0.745418 0.136985 0.733576 -0.564299
F26   F     F_    0.253990 0.862479 0.266310 -0.563974
F27   F     F_    0.254964 0.136981 0.266283 -0.562678
F28   F     F_    0.745618 0.862493 0.733834 -0.562388
F29   F     F_    0.245418 0.636985 0.733576 -0.564299
F30   F     F_    0.753990 0.362479 0.266310 -0.563974
F31   F     F_    0.754964 0.636981 0.266283 -0.562678
F32   F     F_    0.245618 0.362493 0.733834 -0.562388
F33   F     F_    0.808507 0.117964 0.808805 -0.517719
F34   F     F_    0.190474 0.880124 0.191573 -0.516993
F35   F     F_    0.191939 0.117823 0.191045 -0.517517
F36   F     F_    0.809064 0.880292 0.808596 -0.516782
F37   F     F_    0.308507 0.617964 0.808805 -0.517719
F38   F     F_    0.690474 0.380124 0.191573 -0.516993
F39   F     F_    0.691939 0.617823 0.191045 -0.517517
F40   F     F_    0.309064 0.380292 0.808596 -0.516782

loop_
_geom_bond_atom_site_label_1
_geom_bond_atom_site_label_2
_ccdc_geom_bond_type
C85   C182  S    
C9    C169  A    
O62   H14   S    
C34   C42   A    
C67   O59   S    
O1    Zn1   S    
O14   Zn1   S    
C181  C187  A    
C61   C69   A    
O67   H19   S    
C149  F8    S    
C27   C99   A    
C170  C178  A    
C175  C183  A    
C42   C109  A    
C24   C96   A    
C64   O56   S    
C3    O27   A    
C62   C70   A    
C138  O38   A    
C5    O29   A    
C137  O47   A    
C147  C155  A    
O45   Zn9   S    
O28   Zn7   S    
C143  C151  A    
C90   C177  S    
C11   C167  A    
C82   C98   A    
C76   C84   A    
C88   O20   A    
O16   Zn3   S    
C73   C81   A    
C161  C163  A    
O11   Zn8   S    
C162  C164  A    
C121  F29   S    
O9    Zn6   S    
C50   C98   A    
C123  F31   S    
C84   C100  A    
C124  F32   S    
O22   Zn6   S    
C17   F13   S    
C57   C65   A    
C156  F1    S    
C19   F15   S    
C37   C114  A    
O33   Zn11  S    
C27   C35   A    
C10   C171  A    
C21   C29   A    
C187  O51   S    
C113  F21   S    
C128  F36   S    
C81   C121  A    
C23   C31   A    
C115  F23   S    
C24   C32   A    
O36   Zn11  S    
O68   H20   S    
C146  C154  A    
C112  F20   S    
O18   Zn2   S    
C86   O10   A    
C63   C71   A    
C2    O26   A    
C36   C44   A    
C6    O6    A    
C12   C174  A    
C176  C184  A    
C48   C96   A    
C2    O2    A    
C135  O35   A    
C126  F34   S    
C148  C162  A    
C103  O63   S    
C183  C188  A    
O39   Zn10  S    
C108  C116  A    
C21   C93   A    
C78   C94   A    
C9    C165  A    
C23   C95   A    
C49   C97   A    
C21   C42   A    
C22   C41   A    
C51   C107  A    
C24   C43   A    
C82   C122  A    
C161  C165  A    
C17   C175  A    
C102  O62   S    
C90   O14   A    
C18   C176  A    
C4    O28   A    
C29   C125  A    
C69   C77   A    
C31   C127  A    
C45   C93   A    
C174  C182  A    
C71   C79   A    
C85   O17   A    
C179  C186  A    
C117  F25   S    
C104  O64   S    
C111  F19   S    
C30   C38   A    
C11   C176  A    
C17   C144  A    
C120  F28   S    
C105  C113  A    
C18   C143  A    
C78   C118  A    
C149  C151  A    
O51   H3    S    
O4    Zn4   S    
C66   C74   A    
C109  F17   S    
C8    C76   S    
C49   C57   A    
C124  C132  A    
O49   H1    S    
C137  O37   A    
C52   C60   A    
C59   C67   A    
C53   C61   A    
C141  C159  A    
C20   C174  A    
C134  O34   A    
C55   C63   A    
C139  O45   A    
C86   C181  S    
C56   C64   A    
C134  O44   A    
C35   C43   A    
C186  O50   S    
C45   C53   A    
C130  F38   S    
O55   H7    S    
C22   C94   A    
C171  C179  A    
C169  C177  A    
C140  O40   A    
O3    Zn3   S    
C91   O23   A    
O21   Zn5   S    
C104  C112  A    
C89   O21   A    
C145  C163  A    
C146  C164  A    
C14   C147  A    
C52   C100  A    
C16   C145  A    
C178  C186  A    
C108  O68   S    
O63   H15   S    
C25   C38   A    
C68   O60   S    
C54   C139  S    
C136  O36   A    
C27   C40   A    
C10   C166  A    
C107  C115  A    
C91   C180  S    
O61   H13   S    
C182  C188  A    
C89   C178  S    
C60   C68   A    
C25   C97   A    
C122  F30   S    
C92   O24   A    
C67   C75   A    
C18   F14   S    
O7    Zn7   S    
C22   C30   A    
C114  F22   S    
O5    Zn5   S    
C20   C141  A    
C15   C146  A    
C131  F39   S    
C103  C111  A    
C58   C135  S    
C68   C76   A    
C59   C134  S    
C184  C187  A    
C32   C128  A    
C72   C80   A    
C56   C137  S    
C150  F7    S    
C5    C73   S    
C66   O58   S    
O41   Zn11  S    
C13   C171  A    
O58   H10   S    
C117  C125  A    
C25   C33   A    
C119  C127  A    
C140  O46   A    
C4    O4    A    
C138  O48   A    
O54   H6    S    
O2    Zn2   S    
C87   O11   A    
C88   O12   A    
C157  C167  A    
C80   C120  A    
C158  C168  A    
O52   H4    S    
C188  O52   S    
C164  C165  A    
C15   F11   S    
C152  F5    S    
C40   C115  A    
C101  C109  A    
C46   C94   A    
C177  C185  A    
C139  O39   A    
C6    O30   A    
O34   Zn12  S    
C79   C119  A    
C133  O33   A    
O56   H8    S    
O38   Zn10  S    
C153  C155  A    
C106  O66   S    
O47   Zn10  S    
C154  C156  A    
C92   O16   A    
O19   Zn3   S    
C172  C180  A    
C118  F26   S    
C173  C181  A    
C157  C159  A    
C83   C99   A    
C158  C160  A    
O20   Zn4   S    
C74   C82   A    
C6    C74   S    
O10   Zn5   S    
C153  F4    S    
C47   C103  A    
C110  F18   S    
C50   C58   A    
O23   Zn7   S    
C163  C166  A    
C147  C161  A    
O64   H16   S    
C38   C113  A    
C162  C166  A    
C63   O55   S    
C49   C105  A    
C54   C62   A    
C28   C39   A    
C136  O42   A    
C1    C69   S    
C23   C44   A    
O31   Zn4   S    
C3    C71   S    
O66   H18   S    
C19   C173  A    
C79   C95   A    
O59   H11   S    
C92   C179  S    
C51   C99   A    
O60   H12   S    
C46   C54   A    
O27   Zn8   S    
O17   Zn1   S    
C45   C101  A    
C151  F6    S    
C185  O49   S    
O8    Zn8   S    
C19   C142  A    
C1    O25   A    
C119  F27   S    
C102  C110  A    
C7    O7    A    
C35   C131  A    
C4    C72   S    
C5    O5    A    
C33   C129  A    
O25   Zn6   S    
C123  C131  A    
O48   Zn9   S    
C129  F37   S    
C121  C129  A    
C13   F9    S    
C120  C128  A    
C26   C37   A    
C10   C170  A    
C125  F33   S    
C33   C41   A    
C142  C150  A    
C36   C132  A    
O46   Zn10  S    
C75   C83   A    
C77   C93   A    
C8    O8    A    
C62   O54   S    
C44   C111  A    
C16   C170  A    
C28   C36   A    
C144  C152  A    
C39   C116  A    
C135  O41   A    
C29   C37   A    
C50   C106  A    
C61   O53   S    
C9    C172  A    
C65   O57   S    
C148  C156  A    
O30   Zn1   S    
C83   C123  A    
C2    C70   S    
C60   C133  S    
C91   O15   A    
C89   O13   A    
C30   C126  A    
C70   C78   A    
C53   C140  S    
O65   H17   S    
O43   Zn12  S    
C86   O18   A    
C141  C149  A    
C46   C102  A    
C55   C138  S    
C106  C114  A    
O26   Zn5   S    
C77   C117  A    
C101  O61   S    
C154  F3    S    
C48   C104  A    
C65   C73   A    
C159  C168  A    
C15   C169  A    
C160  C167  A    
C58   C66   A    
O32   Zn3   S    
C80   C96   A    
C107  O67   S    
C20   F16   S    
C7    O31   A    
C28   C100  A    
C32   C40   A    
C52   C108  A    
C105  O65   S    
C155  F2    S    
C26   C34   A    
C143  C157  A    
O37   Zn9   S    
C11   C173  A    
C14   C172  A    
C87   C184  S    
C90   O22   A    
C88   C183  S    
C7    C75   S    
O40   Zn9   S    
O57   H9    S    
C133  O43   A    
C8    O32   A    
C3    O3    A    
C132  F40   S    
O13   Zn2   S    
O53   H5    S    
C57   C136  S    
O12   Zn7   S    
C87   O19   A    
O15   Zn4   S    
C16   F12   S    
C26   C98   A    
C12   C175  A    
C116  F24   S    
C127  F35   S    
C41   C110  A    
C150  C152  A    
C51   C59   A    
C43   C112  A    
C144  C158  A    
O50   H2    S    
O42   Zn12  S    
C47   C55   A    
C85   O9    A    
C48   C56   A    
O6    Zn6   S    
C142  C160  A    
C12   C168  A    
O35   Zn12  S    
C84   C124  A    
O44   Zn11  S    
C145  C153  A    
O24   Zn8   S    
C81   C97   A    
C31   C39   A    
C64   C72   A    
C180  C185  A    
C34   C130  A    
C47   C95   A    
C118  C126  A    
C13   C148  A    
O29   Zn2   S    
C122  C130  A    
C14   F10   S    
C1    O1    A    
