data_mof_unit_21212.cif
_audit_creation_date              2013-03-05T15:48:36-0500
_audit_creation_method            fapswitch 2.2
_symmetry_space_group_name_H-M    P1
_symmetry_Int_Tables_number       1
_space_group_crystal_system       triclinic
_cell_length_a                    8.210833
_cell_length_b                    18.953317
_cell_length_c                    19.003897
_cell_angle_alpha                 99.235212
_cell_angle_beta                  94.309588
_cell_angle_gamma                 91.953107
_cell_volume                      2907.64562636

loop_
_atom_site_label
_atom_site_type_symbol
_atom_site_description
_atom_site_fract_x
_atom_site_fract_y
_atom_site_fract_z
_atom_type_partial_charge
P1    P     P_3+3 0.947550 0.663200 0.567530 0.516781
O1    O     O_2   0.118870 0.674530 0.547560 -0.303696
O2    O     O_3   0.870460 0.585330 0.542110 -0.410187
O3    O     O_3   0.354280 0.631750 0.418430 -0.362063
O4    O     O_2   0.251496 0.756526 0.478381 -0.370571
O5    O     O_3   0.975861 0.683406 0.660953 -0.535726
O6    O     O_3   0.298516 0.748484 0.344756 -0.536860
H1    H     H_    0.368998 0.661825 0.274885 0.112090
C1    C     C_3   0.360220 0.757861 0.225075 0.348372
H2    H     H_    0.234216 0.740104 0.201763 0.083967
P2    P     P_3+3 0.354660 0.445020 0.336980 0.481408
P3    P     P_3+3 0.915042 0.596574 0.288973 0.481040
O7    O     O_2   0.180880 0.466650 0.327890 -0.355366
O8    O     O_3   0.939000 0.596010 0.380670 -0.405032
O9    O     O_2   0.050971 0.551955 0.254272 -0.378796
O10   O     O_3   0.343515 0.354075 0.301826 -0.592580
O11   O     O_3   0.959153 0.684057 0.274753 -0.490692
C2    C     C_3   0.910546 0.731651 0.333197 0.468508
H3    H     H_    0.986036 0.726649 0.383012 0.136118
H4    H     H_    0.781549 0.720101 0.341542 0.002410
C3    C     C_3   0.929912 0.808731 0.319844 -0.744396
H5    H     H_    0.050351 0.832719 0.344237 0.267622
H6    H     H_    0.920858 0.811523 0.261675 0.301420
C4    C     C_3   0.790715 0.379787 0.312066 0.419963
H7    H     H_    0.669970 0.394267 0.330411 0.089382
H8    H     H_    0.880377 0.425571 0.329130 0.130851
C5    C     C_3   0.777403 0.362722 0.230878 -0.959955
H9    H     H_    0.683385 0.318999 0.212080 0.269000
H10   H     H_    0.742257 0.410449 0.207569 0.216280
H11   H     H_    0.897303 0.345927 0.212032 0.270988
Ba1   Ba    Ba6+2 0.152460 0.535140 0.468980 1.582183
C6    C     C_3   0.987856 0.624850 0.696771 0.169592
H12   H     H_    0.115835 0.608638 0.698756 0.097690
H13   H     H_    0.905708 0.579005 0.671602 0.133885
C7    C     C_3   0.941789 0.652522 0.772590 -0.081295
H14   H     H_    0.019752 0.701653 0.795369 0.187380
H15   H     H_    0.812024 0.668511 0.769935 0.140950
C8    C     C_3   0.302963 0.310587 0.350990 0.161783
H16   H     H_    0.178082 0.320985 0.367338 0.104418
H17   H     H_    0.393365 0.318904 0.398377 0.131635
C9    C     C_3   0.308026 0.234209 0.310770 -0.113880
H18   H     H_    0.213047 0.225261 0.264918 0.157755
H19   H     H_    0.429201 0.227250 0.288475 0.147297
P4    P     P_3+3 0.862750 0.336790 0.432410 0.467564
O12   O     O_2   0.691430 0.325420 0.452420 -0.377663
O13   O     O_3   0.939830 0.414660 0.457830 -0.401102
O14   O     O_3   0.456020 0.368240 0.581510 -0.380420
O15   O     O_3   0.841009 0.318879 0.338873 -0.563681
P5    P     P_3+3 0.891253 0.400725 0.711037 0.486399
O16   O     O_3   0.374170 0.535780 0.585810 -0.387393
O17   O     O_3   0.871300 0.403980 0.619270 -0.389445
O18   O     O_2   0.756556 0.446507 0.744683 -0.354185
O19   O     O_3   0.837463 0.313979 0.724718 -0.491635
Ba2   Ba    Ba6+2 0.657710 0.464850 0.530960 1.580500
P6    P     P_3+3 0.374351 0.724704 0.425822 0.458798
C10   C     C_3   0.396774 0.720630 0.290450 0.123107
H20   H     H_    0.528338 0.730839 0.308379 0.070270
O20   O     O_3   0.436130 0.464210 0.414140 -0.395527
C11   C     C_3   0.537558 0.682092 0.651159 0.418563
H21   H     H_    0.649296 0.655135 0.633404 0.069220
H22   H     H_    0.447034 0.680357 0.604097 0.134521
C12   C     C_3   0.588383 0.760282 0.682699 -0.807605
H23   H     H_    0.705481 0.763565 0.717079 0.243034
H24   H     H_    0.605558 0.791529 0.638843 0.215100
H25   H     H_    0.492491 0.784703 0.716395 0.304387
P7    P     P_3+3 0.448870 0.557078 0.675785 0.463288
O21   O     O_2   0.629420 0.533310 0.672080 -0.373075
O22   O     O_3   0.466042 0.649836 0.703693 -0.547926
H26   H     H_    0.833024 0.840983 0.344892 0.207236
C13   C     C_3   0.919108 0.264607 0.677662 0.372196
H27   H     H_    0.884852 0.270282 0.620830 0.098702
H28   H     H_    0.054340 0.272761 0.688801 0.039892
C14   C     C_3   0.869732 0.187635 0.686007 -0.732547
H29   H     H_    0.739538 0.175095 0.665535 0.216924
H30   H     H_    0.945481 0.150097 0.652967 0.147400
P8    P     P_3+3 0.435428 0.276870 0.580271 0.476277
C15   C     C_3   0.433776 0.317454 0.715851 0.264101
H31   H     H_    0.304179 0.328087 0.702620 0.015828
O23   O     O_2   0.567957 0.241844 0.534304 -0.355307
O24   O     O_3   0.487574 0.260950 0.667218 -0.544274
H32   H     H_    0.508989 0.366655 0.714502 0.144660
C16   C     C_3   0.454787 0.300080 0.791629 -0.085703
H33   H     H_    0.465416 0.350335 0.831058 0.075599
H34   H     H_    0.569727 0.272144 0.798463 0.219657
C17   C     C_R   0.989498 0.958297 0.545131 0.031207
C18   C     C_R   0.070807 0.913100 0.586341 -0.266828
C19   C     C_R   0.196107 0.058630 0.584316 -0.103354
C20   C     C_R   0.046643 0.030684 0.546763 0.077324
C21   C     C_R   0.253550 0.128082 0.583868 -0.043127
C22   C     C_R   0.165625 0.173823 0.546055 -0.013017
C23   C     C_R   0.013524 0.148732 0.508886 0.029056
C24   C     C_R   0.955694 0.076137 0.507787 0.053567
C25   C     C_R   0.226909 0.243682 0.543681 0.200846
C26   C     C_R   0.129249 0.290780 0.511784 -0.515912
C27   C     C_R   0.977837 0.268419 0.475186 0.256819
C28   C     C_R   0.922893 0.195151 0.470449 -0.005806
C29   C     C_R   0.842257 0.931368 0.505016 0.033910
C30   C     C_R   0.788589 0.857695 0.502598 -0.009931
C31   C     C_R   0.883384 0.810445 0.539306 -0.197214
C32   C     C_R   0.019068 0.842285 0.585410 0.423905
H35   H     H_    0.174854 0.345228 0.512876 0.180682
H36   H     H_    0.371237 0.143991 0.612171 0.179238
C33   C     C_R   0.790240 0.164750 0.423560 -0.006278
C34   C     C_R   0.740815 0.092668 0.419156 -0.020987
C35   C     C_R   0.810227 0.049115 0.466202 0.035499
C36   C     C_R   0.745738 0.978130 0.469317 -0.100648
C37   C     C_R   0.585203 0.952673 0.441023 0.319590
C38   C     C_R   0.635997 0.832472 0.466041 -0.059865
C39   C     C_R   0.536180 0.880977 0.437545 -0.218008
C40   C     C_R   0.582959 0.760062 0.461821 0.206731
C41   C     C_R   0.685959 0.712385 0.489663 -0.515786
C42   C     C_R   0.833964 0.735220 0.529068 0.233040
H37   H     H_    0.728296 0.195205 0.387113 0.163777
H38   H     H_    0.413429 0.864940 0.415176 0.211028
H39   H     H_    0.645766 0.656605 0.483915 0.173216
H40   H     H_    0.278038 0.027509 0.612311 0.136719
H41   H     H_    0.172616 0.932104 0.624370 0.166693
H42   H     H_    0.650621 0.071053 0.376278 0.193491
C43   C     C_R   0.608941 0.533530 0.302259 -0.533560
C44   C     C_R   0.461996 0.495373 0.277307 0.358239
C45   C     C_R   0.410130 0.486272 0.204286 -0.247449
C46   C     C_R   0.507079 0.513339 0.155553 -0.000168
C47   C     C_R   0.659429 0.548404 0.181385 -0.177699
C48   C     C_R   0.710090 0.558288 0.254435 0.247169
C49   C     C_R   0.480806 0.558353 0.038017 -0.143306
C50   C     C_R   0.429131 0.549943 0.965309 -0.056913
C51   C     C_R   0.347742 0.486111 0.929804 0.140387
C52   C     C_R   0.317121 0.431302 0.969661 -0.170229
C53   C     C_R   0.368481 0.439885 0.042721 -0.142814
C54   C     C_R   0.451666 0.503513 0.077826 0.136550
C55   C     C_R   0.144710 0.442196 0.823144 -0.076103
C56   C     C_R   0.093921 0.438429 0.750284 0.241223
C57   C     C_R   0.340255 0.505885 0.733613 0.289615
C58   C     C_R   0.393171 0.508832 0.805676 -0.233115
C59   C     C_R   0.295938 0.477394 0.851700 0.022793
C60   C     C_R   0.194099 0.468893 0.705950 -0.529925
H43   H     H_    0.508476 0.536788 0.825800 0.185240
H44   H     H_    0.451190 0.594248 0.937224 0.161140
H45   H     H_    0.541603 0.608431 0.063284 0.197428
H46   H     H_    0.295310 0.457083 0.185589 0.157674
H47   H     H_    0.256064 0.381262 0.944174 0.173538
H48   H     H_    0.345549 0.396081 0.071391 0.135157
H49   H     H_    0.064202 0.420216 0.857558 0.159338
H50   H     H_    0.740750 0.566326 0.144832 0.165606
H51   H     H_    0.154343 0.467129 0.650072 0.175733
H52   H     H_    0.650181 0.539279 0.358386 0.173391
N1    N     N_R   0.962235 0.599413 0.819905 0.239670
O25   O     O_R   0.831663 0.568995 0.838988 -0.376481
O26   O     O_R   0.097178 0.602344 0.861146 -0.400007
N2    N     N_R   0.282867 0.181420 0.356738 0.254519
O27   O     O_R   0.405454 0.144094 0.373813 -0.341462
O28   O     O_R   0.134467 0.157842 0.362748 -0.381375
N3    N     N_R   0.474082 0.739218 0.169654 0.218062
O29   O     O_R   0.596309 0.699056 0.180279 -0.457569
O30   O     O_R   0.463541 0.769246 0.112310 -0.311436
N4    N     N_R   0.367867 0.835423 0.247350 0.268039
O31   O     O_R   0.509519 0.870281 0.262528 -0.343996
O32   O     O_R   0.233260 0.870252 0.248046 -0.324533
C61   C     C_2   0.894477 0.174632 0.762122 1.286770
O33   O     O_2   0.817759 0.207666 0.808312 -0.601458
O34   O     O_R   0.001020 0.122770 0.779607 -0.749539
H53   H     H_    0.003292 0.117809 0.832128 0.349804
N5    N     N_R   0.316341 0.255783 0.806169 0.253087
O35   O     O_R   0.336014 0.189728 0.814704 -0.324528
O36   O     O_R   0.178508 0.284916 0.819911 -0.450398
N6    N     N_R   0.099153 0.808145 0.638972 0.259839
O37   O     O_R   0.049796 0.820870 0.703181 -0.378214
O38   O     O_R   0.251336 0.793406 0.632523 -0.396972
N7    N     N_R   0.460217 0.000078 0.425367 0.234496
O39   O     O_R   0.433081 0.054820 0.473097 -0.386571
O40   O     O_R   0.362425 0.984618 0.366994 -0.273671

loop_
_geom_bond_atom_site_label_1
_geom_bond_atom_site_label_2
_geom_bond_distance
_ccdc_geom_bond_type
P7    O22   1.750589 S    
C19   C20   1.413740 A    
C9    H18   1.112484 S    
C50   C51   1.407351 A    
C21   H36   1.078864 S    
C5    H10   1.106775 S    
C2    C3    1.527486 S    
N7    O40   1.306497 A    
C14   H29   1.114048 S    
C35   C36   1.440720 A    
O5    C6    1.394472 S    
N1    O25   1.302567 A    
C4    C5    1.519594 S    
O6    P6    1.749874 S    
O8    Ba1   2.745287 S    
C52   C53   1.402439 A    
H1    C10   1.117336 S    
C58   H43   1.081518 S    
C29   C30   1.442397 A    
C47   C48   1.399904 A    
C43   C48   1.399900 A    
C49   H45   1.079830 S    
C43   H52   1.081732 S    
O16   Ba2   2.905535 S    
C49   C50   1.396863 A    
C45   H46   1.082651 S    
N4    O31   1.307085 A    
N5    O36   1.301777 A    
C51   C59   1.494300 S    
O14   P8    1.730461 S    
P1    O1    1.501562 D    
C55   C59   1.416839 A    
P1    C42   1.889953 S    
Ba2   O20   2.760722 S    
C8    H16   1.108487 S    
C11   O22   1.405290 S    
O2    Ba2   2.797840 S    
C17   C20   1.429577 A    
C36   C37   1.423457 A    
P2    C44   1.847645 S    
P1    Ba1   3.394443 S    
C30   C38   1.415173 A    
C38   C39   1.398074 A    
C32   N6    1.423734 S    
C2    H3    1.110859 S    
N7    O39   1.301143 A    
O7    Ba1   2.815353 S    
C40   C41   1.396436 A    
C12   H24   1.111595 S    
C23   C28   1.424987 A    
C49   C54   1.404488 A    
C41   C42   1.395804 A    
C26   H35   1.082242 S    
P5    O17   1.750501 S    
Ba1   O13   2.797260 S    
P3    O11   1.752449 S    
C57   C60   1.391981 A    
P8    O23   1.547222 D    
C13   H27   1.118412 S    
N3    O30   1.306607 A    
P2    O20   1.547491 S    
C18   C32   1.390900 A    
C52   H47   1.081248 S    
C60   H51   1.082160 S    
C15   H31   1.107613 S    
O3    Ba1   2.760206 S    
C37   C39   1.393855 A    
P7    O21   1.567356 D    
P2    Ba1   3.377936 S    
C11   H21   1.113458 S    
C3    H5    1.110102 S    
C5    H11   1.112010 S    
N6    O38   1.300094 A    
C9    H19   1.114088 S    
O6    C10   1.404982 S    
O19   C13   1.410324 S    
C34   C35   1.413500 A    
P4    O13   1.572805 S    
O34   H53   1.016277 S    
C34   H42   1.077832 S    
P5    C56   1.843219 S    
C11   H22   1.114619 S    
P1    O5    1.751128 S    
C4    O15   1.397267 S    
C6    C7    1.532017 S    
C20   C24   1.419153 A    
P4    O15   1.749661 S    
C4    H7    1.104336 S    
C1    N4    1.460887 S    
C8    C9    1.528166 S    
C23   C24   1.436588 A    
C9    N2    1.449288 S    
C53   H48   1.082393 S    
C17   C18   1.403073 A    
C3    H26   1.108951 S    
O1    Ba1   2.851489 S    
P1    O2    1.572834 S    
C7    H14   1.119211 S    
C6    H13   1.103140 S    
C47   H50   1.083398 S    
C12   H23   1.115184 S    
P8    C25   1.848726 S    
P7    C57   1.837132 S    
P2    O10   1.742501 S    
C61   O33   1.221838 D    
P3    C48   1.840424 S    
P3    O9    1.546492 D    
C15   H32   1.105643 S    
C56   C60   1.395614 A    
P5    O18   1.542255 D    
O13   Ba2   2.900331 S    
C13   C14   1.536700 S    
C61   O34   1.400603 S    
O11   C2    1.405762 S    
C45   C46   1.410662 A    
C1    C10   1.539914 S    
C7    N1    1.459219 S    
O2    Ba1   2.899497 S    
O16   P7    1.751226 S    
C19   H40   1.075884 S    
C39   H38   1.078043 S    
O14   Ba2   2.759561 S    
C29   C36   1.426152 A    
P3    O8    1.740715 S    
O12   Ba2   2.852020 S    
C30   C31   1.435586 A    
C16   H34   1.107069 S    
C3    H6    1.112223 S    
P6    C40   1.857268 S    
N6    O37   1.303025 A    
N2    O28   1.302936 A    
C10   H20   1.108945 S    
C14   H30   1.110287 S    
Ba1   O16   2.761501 S    
C51   C52   1.406917 A    
C21   C22   1.397787 A    
C5    H9    1.109143 S    
C55   H49   1.082535 S    
C44   C45   1.402187 A    
Ba1   O20   2.906371 S    
C22   C25   1.409082 A    
C53   C54   1.408213 A    
C1    H2    1.113307 S    
C15   O24   1.404327 S    
C7    H15   1.117343 S    
C50   H44   1.082038 S    
C11   C12   1.537774 S    
C12   H25   1.117901 S    
C33   H37   1.080289 S    
O4    P6    1.542251 D    
P4    O12   1.501940 D    
P8    O24   1.751314 S    
C4    H8    1.109226 S    
C41   H39   1.082730 S    
C43   C44   1.395735 A    
C58   C59   1.413235 A    
Ba2   O21   2.815496 S    
N1    O26   1.302414 A    
C25   C26   1.398819 A    
C14   C61   1.505984 S    
C31   C32   1.418008 A    
O17   Ba2   2.745932 S    
C6    H12   1.104458 S    
N4    O32   1.306372 A    
C46   C47   1.412020 A    
O3    P6    1.745878 S    
P4    C27   1.881260 S    
C8    H17   1.110311 S    
P2    O7    1.503147 D    
C37   N7    1.432381 S    
C22   C23   1.415598 A    
C57   C58   1.397031 A    
C15   C16   1.526680 S    
P5    O19   1.752350 S    
C31   C42   1.447393 A    
C38   C40   1.413606 A    
C18   H41   1.075141 S    
C2    H4    1.102502 S    
Ba1   Ba2   4.529729 S    
C26   C27   1.395880 A    
N5    O35   1.301850 A    
C17   C29   1.413440 A    
C1    N3    1.469418 S    
P4    Ba2   3.395044 S    
C24   C35   1.414205 A    
C16   H33   1.109852 S    
C16   N5    1.459482 S    
C28   C33   1.399613 A    
C33   C34   1.399494 A    
C19   C21   1.384620 A    
N2    O27   1.300790 A    
C13   H28   1.115382 S    
N3    O29   1.303206 A    
C46   C54   1.492808 S    
C27   C28   1.432168 A    
C55   C56   1.405570 A    
O10   C8    1.392269 S    
