data_mof_unit_62335.cif
_audit_creation_date              2012-12-10T18:41:01-0500
_audit_creation_method            fapswitch 2.2
_symmetry_space_group_name_H-M    P1
_symmetry_Int_Tables_number       1
_space_group_crystal_system       triclinic
_cell_length_a                    15.070247
_cell_length_b                    13.858009
_cell_length_c                    19.393206
_cell_angle_alpha                 90.000298
_cell_angle_beta                  90.133356
_cell_angle_gamma                 90.000277
_cell_volume                      4050.13634603

loop_
_atom_site_label
_atom_site_type_symbol
_atom_type_description
_atom_site_fract_x
_atom_site_fract_y
_atom_site_fract_z
_atom_type_partial_charge
C1    C     C_R   0.330112 0.500000 0.499985 0.922977
C2    C     C_R   0.669888 0.500000 0.500015 0.922978
C3    C     C_R   0.187122 0.539141 0.443627 0.317115
C4    C     C_R   0.812562 0.460950 0.443652 0.320996
C5    C     C_R   0.812878 0.539141 0.556372 0.317115
C6    C     C_R   0.187437 0.460947 0.556346 0.320999
C7    C     C_R   0.233748 0.500008 0.499979 -0.201061
C8    C     C_R   0.766251 0.500009 0.500020 -0.201061
C9    C     C_R   0.048540 0.500097 0.499997 -0.005564
C10   C     C_R   0.951460 0.500098 0.500002 -0.005564
C11   C     C_R   0.568266 0.107911 0.532256 -0.257963
C12   C     C_R   0.458701 0.892076 0.446847 -0.258239
C13   C     C_R   0.431734 0.107910 0.467744 -0.257962
C14   C     C_R   0.541298 0.892077 0.553153 -0.258238
C15   C     C_R   0.566628 0.209398 0.532107 0.110727
C16   C     C_R   0.458880 0.790592 0.448122 0.104647
C17   C     C_R   0.433372 0.209397 0.467893 0.110724
C18   C     C_R   0.541120 0.790593 0.551878 0.104648
C19   C     C_R   0.500000 0.054678 0.500000 0.124398
C20   C     C_R   0.500000 0.945308 0.500000 0.125643
C21   C     C_R   0.499936 0.500009 0.367495 0.849408
C22   C     C_R   0.500064 0.500009 0.632505 0.849410
C23   C     C_R   0.498346 0.412512 0.744825 -0.134651
C24   C     C_R   0.501622 0.412509 0.255174 -0.134653
C25   C     C_R   0.497885 0.587688 0.255250 -0.135762
C26   C     C_R   0.502147 0.587688 0.744750 -0.135756
C27   C     C_R   0.498384 0.412663 0.816642 -0.097281
C28   C     C_R   0.501582 0.412659 0.183358 -0.097279
C29   C     C_R   0.497900 0.587674 0.183435 -0.095493
C30   C     C_R   0.502132 0.587675 0.816565 -0.095492
C31   C     C_R   0.500232 0.500204 0.852530 0.160176
C32   C     C_R   0.499767 0.500201 0.147470 0.160181
C33   C     C_R   0.500189 0.500063 0.708262 -0.015105
C34   C     C_R   0.499811 0.500063 0.291737 -0.015088
C35   C     C_R   0.418785 0.500317 0.963570 0.123775
C36   C     C_R   0.581215 0.500291 0.036430 0.123775
C37   C     C_R   0.418668 0.500275 0.035980 0.122149
C38   C     C_R   0.581333 0.500252 0.964019 0.122149
C39   C     C_R   0.499883 0.500269 0.072012 -0.125448
C40   C     C_R   0.500117 0.500272 0.927987 -0.125446
C41   C     C_R   0.094751 0.538361 0.443720 -0.161740
C42   C     C_R   0.904929 0.461805 0.443733 -0.167111
C43   C     C_R   0.905250 0.538360 0.556280 -0.161739
C44   C     C_R   0.095071 0.461802 0.556265 -0.167110
Cu1   Cu    Cu3+1 0.500000 0.596430 0.500000 1.008158
Cu2   Cu    Cu3+1 0.500000 0.403570 0.500000 1.009752
H1    H     H_    0.496793 0.343966 0.718035 0.164399
H2    H     H_    0.503150 0.343963 0.281964 0.164384
H3    H     H_    0.496340 0.656190 0.282097 0.155350
H4    H     H_    0.503716 0.656188 0.717903 0.155355
H5    H     H_    0.496911 0.344791 0.844331 0.151535
H6    H     H_    0.503031 0.344786 0.155668 0.151532
H7    H     H_    0.496453 0.655600 0.155806 0.150616
H8    H     H_    0.503604 0.655600 0.844194 0.150618
H9    H     H_    0.058920 0.568398 0.400223 0.191079
H10   H     H_    0.940510 0.431811 0.400225 0.190182
H11   H     H_    0.941082 0.568395 0.599777 0.191080
H12   H     H_    0.059489 0.431807 0.599771 0.190182
H13   H     H_    0.623611 0.071950 0.556831 0.143062
H14   H     H_    0.427249 0.928036 0.403762 0.142529
H15   H     H_    0.376388 0.071948 0.443169 0.143062
H16   H     H_    0.572751 0.928038 0.596238 0.142528
H17   H     H_    0.619278 0.248678 0.557642 0.133167
H18   H     H_    0.426165 0.751311 0.407131 0.152592
H19   H     H_    0.380722 0.248676 0.442358 0.133164
H20   H     H_    0.573835 0.751313 0.592869 0.152584
N1    N     N_R   0.500000 0.258690 0.500000 -0.179827
N2    N     N_R   0.500000 0.741310 0.500000 -0.186018
O1    O     O_R   0.371460 0.581430 0.500010 -0.558014
O2    O     O_R   0.628540 0.418570 0.499990 -0.572915
O3    O     O_R   0.628540 0.581430 0.499990 -0.558016
O4    O     O_R   0.371460 0.418570 0.500010 -0.572916
O5    O     O_R   0.500020 0.581470 0.400190 -0.594724
O6    O     O_R   0.499980 0.418530 0.599810 -0.581429
O7    O     O_R   0.499980 0.581470 0.599810 -0.594723
O8    O     O_R   0.500020 0.418530 0.400190 -0.581427
I1    I     I_    0.296743 0.500649 0.906744 -0.199968
I2    I     I_    0.703258 0.500579 0.093256 -0.199958
I3    I     I_    0.296448 0.499989 0.092133 -0.206075
I4    I     I_    0.703552 0.499931 0.907867 -0.206080
Cl1   Cl    Cl    0.242432 0.587079 0.371303 -0.607334
Cl2   Cl    Cl    0.756869 0.413113 0.371279 -0.581658
Cl3   Cl    Cl    0.757570 0.587078 0.628697 -0.607340
Cl4   Cl    Cl    0.243129 0.413108 0.628718 -0.581666

loop_
_geom_bond_atom_site_label_1
_geom_bond_atom_site_label_2
_ccdc_geom_bond_type
C10   C42   A    
C14   C18   A    
C19   C20   S    
C4    C8    A    
Cu2   O8    S    
Cu1   Cu2   S    
C30   H8    S    
C21   O8    A    
C11   C19   A    
C29   H7    S    
C35   C37   A    
C29   C32   A    
C3    C7    A    
C26   H4    S    
C30   C31   A    
C5    Cl3   S    
Cu1   O3    S    
C18   N2    A    
C14   H16   S    
C21   O5    A    
C31   C40   S    
Cu1   O5    S    
C32   C39   S    
C41   H9    S    
C42   H10   S    
C11   C15   A    
C12   C16   A    
C44   H12   S    
C23   C33   A    
C24   C34   A    
C3    Cl1   S    
C16   N2    A    
C23   C27   A    
C9    C10   S    
Cu2   O4    S    
C25   C34   A    
C5    C43   A    
C6    C44   A    
C22   O7    A    
C11   H13   S    
C27   H5    S    
C25   C29   A    
C17   N1    A    
C1    O4    A    
C23   H1    S    
C13   C19   A    
Cu1   O1    S    
C24   H2    S    
C14   C20   A    
C28   C32   A    
C6    Cl4   S    
C21   C34   S    
C27   C31   A    
C35   I1    S    
C1    O1    A    
C37   I3    S    
C26   C33   A    
C15   N1    A    
C12   C20   A    
Cu1   N2    S    
C4    Cl2   S    
C26   C30   A    
C22   O6    A    
C2    O3    A    
Cu2   O6    S    
C22   C33   S    
C3    C41   A    
C9    C44   A    
C10   C43   A    
C1    C7    S    
C9    C41   A    
C36   C39   A    
C2    C8    S    
C24   C28   A    
C5    C8    A    
C6    C7    A    
C18   H20   S    
C17   H19   S    
C13   C17   A    
Cu1   O7    S    
C36   C38   A    
C35   C40   A    
Cu2   N1    S    
C37   C39   A    
C36   I2    S    
C38   C40   A    
C28   H6    S    
C4    C42   A    
C25   H3    S    
Cu2   O2    S    
C43   H11   S    
C12   H14   S    
C13   H15   S    
C38   I4    S    
C15   H17   S    
C16   H18   S    
C2    O2    A    
