data_mof_unit_19071.cif
_audit_creation_date              2012-12-11T16:22:04-0500
_audit_creation_method            fapswitch 2.2
_symmetry_space_group_name_H-M    P1
_symmetry_Int_Tables_number       1
_space_group_crystal_system       triclinic
_cell_length_a                    13.534037
_cell_length_b                    13.941591
_cell_length_c                    29.987074
_cell_angle_alpha                 97.355401
_cell_angle_beta                  90.308548
_cell_angle_gamma                 118.722357
_cell_volume                      4906.54132573

loop_
_atom_site_label
_atom_site_type_symbol
_atom_type_description
_atom_site_fract_x
_atom_site_fract_y
_atom_site_fract_z
_atom_type_partial_charge
C1    C     C_R   0.721050 0.098766 0.569154 0.548993
C2    C     C_R   0.357061 0.665029 0.675226 0.039503
C3    C     C_R   0.279903 0.697080 0.661434 -0.130166
C4    C     C_R   0.282330 0.728183 0.619214 -0.136127
C5    C     C_R   0.247486 0.627247 0.825551 -0.166724
C6    C     C_R   0.225676 0.608120 0.869638 -0.177937
C7    C     C_R   0.414866 0.632971 0.882722 0.306151
C8    C     C_R   0.434713 0.646845 0.837474 0.344247
C9    C     C_R   0.348269 0.640388 0.808530 0.001629
C10   C     C_1   0.358281 0.645638 0.761245 -0.041210
C11   C     C_1   0.360452 0.651469 0.721669 -0.045162
C12   C     C_R   0.383669 0.788240 0.550997 0.537790
C13   C     C_R   0.305962 0.604344 0.898018 -0.038964
C14   C     C_3   0.230266 0.170742 0.722279 0.253991
C15   C     C_3   0.213259 0.079796 0.750637 -0.023701
C16   C     C_1   0.292675 0.200252 0.876037 0.021190
C17   C     C_1   0.363004 0.138420 0.612834 -0.012465
C18   C     C_3   0.316647 0.259553 0.758924 0.214803
C19   C     C_3   0.300839 0.169504 0.787425 0.072694
C20   C     C_3   0.413724 0.249845 0.736103 -0.004244
C21   C     C_3   0.326105 0.159729 0.699322 0.004149
C22   C     C_3   0.396016 0.158463 0.764032 0.222545
C23   C     C_R   0.397044 0.119199 0.569253 0.544721
C24   C     C_3   0.309744 0.067109 0.727322 -0.148301
C25   C     C_1   0.295998 0.181922 0.836111 0.028135
C26   C     C_1   0.342534 0.150335 0.651359 -0.027259
C27   C     C_3   0.862943 0.267808 0.735521 0.012238
C28   C     C_3   0.766531 0.217126 0.767032 -0.124596
C29   C     C_1   0.891690 0.203036 0.879286 0.006781
C30   C     C_1   0.766915 0.128832 0.614813 -0.010812
C31   C     C_3   0.935168 0.230376 0.760884 -0.131989
C32   C     C_3   0.837979 0.178490 0.791859 0.079221
C33   C     C_3   0.882152 0.119017 0.728136 -0.107955
C34   C     C_R   0.720481 0.096290 0.442706 0.549315
C35   C     C_3   0.810950 0.158024 0.703337 0.010399
C36   C     C_3   0.786249 0.069919 0.759458 0.269374
C37   C     C_3   0.713349 0.105802 0.734140 -0.104161
C38   C     C_1   0.860904 0.190321 0.840339 -0.000255
C39   C     C_1   0.792141 0.145325 0.654548 -0.055170
C40   C     C_3   0.264325 0.584694 0.258801 0.245522
C41   C     C_3   0.243381 0.655635 0.228603 -0.034353
C42   C     C_1   0.308711 0.606949 0.111012 -0.009082
C43   C     C_1   0.366502 0.736806 0.378409 0.006720
C44   C     C_3   0.356782 0.582308 0.229623 -0.126827
C45   C     C_R   0.382276 0.784523 0.424536 0.547369
C46   C     C_3   0.339039 0.657105 0.200076 -0.035156
C47   C     C_3   0.446473 0.688657 0.260254 -0.034266
C48   C     C_3   0.352211 0.687821 0.289374 0.066369
C49   C     C_3   0.429117 0.762537 0.230060 0.022921
C50   C     C_3   0.334211 0.759553 0.258916 0.230585
C51   C     C_1   0.326913 0.634906 0.151024 -0.061140
C52   C     C_1   0.358150 0.709378 0.338409 -0.001770
C53   C     C_R   0.364265 0.129942 0.398170 0.003898
C54   C     C_R   0.440766 0.220565 0.378101 -0.119251
C55   C     C_R   0.429426 0.220629 0.331710 0.013009
C56   C     C_R   0.397225 0.114460 0.442467 0.543357
C57   C     C_R   0.337794 0.129369 0.305469 0.052396
C58   C     C_R   0.256379 0.043435 0.325911 -0.101968
C59   C     C_R   0.269360 0.043602 0.372035 -0.114566
C60   C     C_R   0.259809 0.060640 0.136718 0.238843
C61   C     C_R   0.252334 0.092291 0.094945 -0.081657
C62   C     C_R   0.401559 0.278855 0.121354 -0.141892
C63   C     C_R   0.409553 0.248639 0.162996 -0.152938
C64   C     C_R   0.335930 0.141804 0.171590 0.022650
C65   C     C_1   0.330253 0.125091 0.217730 -0.066577
C66   C     C_1   0.329776 0.122127 0.257465 -0.045041
C67   C     C_R   0.364180 0.730340 0.590422 0.006000
C68   C     C_R   0.318904 0.202511 0.087824 -0.025195
C69   C     C_R   0.791278 0.143242 0.405551 -0.009261
C70   C     C_R   0.825965 0.080157 0.376377 -0.147336
C71   C     C_R   0.880224 0.120261 0.338148 -0.186031
C72   C     C_R   0.900798 0.223775 0.328555 0.067204
C73   C     C_R   0.871225 0.290185 0.358284 0.252129
C74   C     C_R   0.816787 0.249484 0.396874 -0.132302
C75   C     C_R   0.971503 0.345521 0.177220 0.249042
C76   C     C_R   0.979478 0.337975 0.130367 -0.152358
C77   C     C_R   0.997340 0.171126 0.129389 -0.017369
C78   C     C_R   0.437365 0.691629 0.602958 -0.107885
C79   C     C_R   0.006492 0.189254 0.177382 -0.041961
C80   C     C_R   0.984918 0.271165 0.200421 0.081640
C81   C     C_1   0.963441 0.268927 0.247417 0.080355
C82   C     C_1   0.939102 0.254044 0.285371 0.045509
C83   C     C_R   0.990077 0.251011 0.105593 -0.029939
C84   C     C_R   0.283488 0.232788 0.922021 0.550648
C85   C     C_R   0.267619 0.549381 0.938472 0.533056
C86   C     C_R   0.944100 0.221862 0.923236 0.561923
C87   C     C_R   0.293138 0.242060 0.048561 0.531206
C88   C     C_R   0.275080 0.558469 0.065017 0.534771
C89   C     C_R   0.434055 0.656784 0.645383 0.015999
C90   C     C_R   0.006154 0.253088 0.056191 0.558574
Cr1   Cr    Cr6+3 0.583430 0.162610 0.509470 1.012931
Cr2   Cr    Cr6+3 0.584210 0.916680 0.495400 1.016545
Cr3   Cr    Cr6+3 0.332380 0.920740 0.495100 1.030234
Cr4   Cr    Cr6+3 0.086810 0.177030 0.983130 1.014900
Cr5   Cr    Cr6+3 0.337180 0.419300 0.994610 1.046766
Cr6   Cr    Cr6+3 0.084840 0.422330 0.995830 1.028416
H1    H     H_    0.142796 0.589067 0.880440 0.151473
H2    H     H_    0.308636 0.988389 0.714201 0.111589
H3    H     H_    0.721062 0.258432 0.783640 0.127644
H4    H     H_    0.622969 0.051827 0.722238 0.103537
H5    H     H_    0.926200 0.075646 0.712003 0.149551
H6    H     H_    0.183191 0.626959 0.803945 0.129169
H7    H     H_    0.025807 0.283063 0.772719 0.122548
H8    H     H_    0.160228 0.642477 0.215538 0.144649
H9    H     H_    0.364089 0.507712 0.216993 0.108976
H10   H     H_    0.190594 0.031700 0.068749 0.135301
H11   H     H_    0.185827 0.973490 0.305834 0.126452
H12   H     H_    0.221080 0.703575 0.684326 0.102669
H13   H     H_    0.209190 0.972570 0.386566 0.139279
H14   H     H_    0.514662 0.287446 0.397786 0.126071
H15   H     H_    0.468398 0.311080 0.189565 0.111113
H16   H     H_    0.454508 0.364210 0.116683 0.140029
H17   H     H_    0.974842 0.399497 0.113103 0.130872
H18   H     H_    0.791052 0.299478 0.419243 0.111229
H19   H     H_    0.807253 0.998146 0.382081 0.136278
H20   H     H_    0.225267 0.758102 0.610536 0.134077
H21   H     H_    0.902132 0.068330 0.315137 0.109804
H22   H     H_    0.499096 0.693146 0.579965 0.117298
O1    O     O_R   0.493980 0.188910 0.559650 -0.514267
O2    O     O_R   0.480180 0.824400 0.444640 -0.503947
O3    O     O_R   0.308310 0.808540 0.439800 -0.495996
O4    O     O_R   0.340740 0.020600 0.455570 -0.496686
O5    O     O_3   0.500010 0.000010 0.499990 -0.241823
O6    O     O_R   0.969650 0.150960 0.933380 -0.489124
O7    O     O_R   0.187740 0.180870 0.937580 -0.500295
O8    O     O_R   0.358510 0.327410 0.940870 -0.477637
O9    O     O_R   0.324180 0.507870 0.953930 -0.475609
O10   O     O_R   0.170560 0.527890 0.952050 -0.512169
O11   O     O_R   0.987620 0.318470 0.945550 -0.491761
O12   O     O_R   0.678640 0.153520 0.554450 -0.497615
O13   O     O_R   0.976400 0.159270 0.031530 -0.524440
O14   O     O_R   0.194000 0.188570 0.028560 -0.536134
O15   O     O_R   0.365260 0.335720 0.039020 -0.507552
O16   O     O_R   0.330440 0.515580 0.044910 -0.503891
O17   O     O_R   0.177310 0.536200 0.050190 -0.513812
O18   O     O_R   0.993870 0.326170 0.036530 -0.495109
O19   O     O_3   0.169610 0.339550 0.991190 -0.266357
O20   O     O_R   0.698130 0.004030 0.549500 -0.507066
O21   O     O_R   0.481060 0.827210 0.535360 -0.503882
O22   O     O_R   0.309260 0.811560 0.537660 -0.514784
O23   O     O_R   0.341620 0.023400 0.546290 -0.493352
O24   O     O_R   0.493030 0.185890 0.461780 -0.522647
O25   O     O_R   0.677760 0.150720 0.463730 -0.503540
O26   O     O_R   0.697180 0.001010 0.451640 -0.513273
O27   O     O_3   0.144899 0.177216 0.698597 -0.720271
H23   H     H_    0.132068 0.233321 0.717426 0.328693
O28   O     O_3   0.481701 0.151395 0.787043 -0.700493
H24   H     H_    0.519072 0.127785 0.763220 0.315415
C91   C     C_3   0.525001 0.348836 0.727784 -0.257725
C92   C     C_3   0.592364 0.418792 0.772149 -0.262554
C93   C     C_3   0.690631 0.528737 0.763786 -0.454446
H25   H     H_    0.743063 0.514433 0.738308 0.140966
H26   H     H_    0.658248 0.581078 0.751547 0.162994
H27   H     H_    0.744099 0.573403 0.795673 0.172536
H28   H     H_    0.537288 0.436307 0.795297 0.240701
H29   H     H_    0.625880 0.372780 0.788998 0.185294
H30   H     H_    0.576131 0.318921 0.707639 0.137026
H31   H     H_    0.504409 0.399830 0.708015 0.136852
O29   O     O_3   0.317579 0.358157 0.776140 -0.714142
H32   H     H_    0.331407 0.399767 0.750335 0.321106
C94   C     C_3   0.906983 0.380793 0.720322 -0.246363
C95   C     C_3   0.942351 0.472278 0.760826 -0.302811
C96   C     C_3   0.996081 0.586109 0.745809 -0.465076
H33   H     H_    0.075870 0.602935 0.730228 0.151144
H34   H     H_    0.938072 0.590723 0.720911 0.148937
H35   H     H_    0.015423 0.650523 0.775460 0.143349
H36   H     H_    0.867265 0.459970 0.779358 0.162714
H37   H     H_    0.003814 0.468520 0.784257 0.166439
H38   H     H_    0.980286 0.396500 0.699998 0.155966
H39   H     H_    0.839223 0.379445 0.698702 0.141796
O30   O     O_3   0.745654 0.966311 0.773312 -0.683257
H40   H     H_    0.711073 0.911803 0.745523 0.308743
O31   O     O_3   0.178192 0.492572 0.274464 -0.649995
H41   H     H_    0.216881 0.460767 0.290671 0.309089
O32   O     O_3   0.321400 0.851111 0.275390 -0.708378
H42   H     H_    0.308796 0.878971 0.248304 0.312534
C97   C     C_3   0.516108 0.863234 0.210275 -0.243376
C98   C     C_3   0.590749 0.960232 0.246839 -0.296979
C99   C     C_3   0.664873 0.063687 0.225955 -0.462929
H43   H     H_    0.723903 0.050006 0.203857 0.150404
H44   H     H_    0.611949 0.086119 0.205829 0.159871
H45   H     H_    0.714301 0.133598 0.253166 0.151610
H46   H     H_    0.537613 0.979053 0.270611 0.209343
H47   H     H_    0.645833 0.938936 0.266184 0.158087
H48   H     H_    0.569573 0.839079 0.188862 0.134006
H49   H     H_    0.469369 0.888968 0.188332 0.147613
C100  C     C_3   0.555980 0.700485 0.280913 -0.255830
C101  C     C_3   0.631360 0.690139 0.244808 -0.297023
C102  C     C_3   0.726976 0.677906 0.265719 -0.456051
H50   H     H_    0.777730 0.749164 0.292403 0.150415
H51   H     H_    0.692008 0.600265 0.280751 0.149911
H52   H     H_    0.782839 0.674538 0.239290 0.149932
H53   H     H_    0.581010 0.616526 0.218997 0.162161
H54   H     H_    0.668239 0.764940 0.227857 0.158930
H55   H     H_    0.602476 0.781512 0.303059 0.141310
H56   H     H_    0.532746 0.634202 0.302242 0.138919
O33   O     O_3   0.187518 0.952627 0.142524 -0.726242
H57   H     H_    0.207321 0.939381 0.172107 0.320958
C103  C     C_3   0.520804 0.314173 0.310688 -0.260967
C104  C     C_3   0.606604 0.281132 0.291192 -0.301453
C105  C     C_3   0.699417 0.374245 0.269858 -0.414489
H58   H     H_    0.662504 0.395065 0.241901 0.138000
H59   H     H_    0.746328 0.448995 0.295484 0.178576
H60   H     H_    0.759707 0.347462 0.256071 0.210157
H61   H     H_    0.645833 0.260496 0.318474 0.182388
H62   H     H_    0.563393 0.206827 0.265099 0.172547
H63   H     H_    0.482364 0.337039 0.283936 0.141570
H64   H     H_    0.565668 0.389253 0.336439 0.128218
O34   O     O_3   0.952423 0.425871 0.201116 -0.681565
H65   H     H_    0.944908 0.471452 0.179914 0.310588
O35   O     O_3   0.892571 0.392069 0.348231 -0.681788
H66   H     H_    0.864747 0.427115 0.372107 0.311890
C106  C     C_3   0.047274 0.128203 0.204806 -0.253705
C107  C     C_3   0.950418 0.019342 0.215898 -0.301840
C108  C     C_3   0.995320 0.964152 0.244772 -0.452410
H67   H     H_    0.055716 0.944285 0.226343 0.173575
H68   H     H_    0.038540 0.019476 0.276854 0.146290
H69   H     H_    0.924164 0.886345 0.252763 0.141416
H70   H     H_    0.887806 0.035361 0.234378 0.150303
H71   H     H_    0.905874 0.961062 0.184735 0.166605
H72   H     H_    0.112202 0.114240 0.187426 0.164547
H73   H     H_    0.093871 0.182042 0.236820 0.143850
C109  C     C_3   0.984914 0.062544 0.104736 -0.228763
C110  C     C_3   0.860405 0.980564 0.089251 -0.286902
C111  C     C_3   0.847729 0.873921 0.062602 -0.435822
H74   H     H_    0.895430 0.891872 0.031952 0.169207
H75   H     H_    0.879731 0.833333 0.083745 0.162074
H76   H     H_    0.757125 0.816229 0.052083 0.148945
H77   H     H_    0.809948 0.960180 0.119114 0.142219
H78   H     H_    0.823965 0.017145 0.068007 0.202031
H79   H     H_    0.039612 0.076663 0.076521 0.183241
H80   H     H_    0.014878 0.020824 0.125686 0.160484
O36   O     O_3   0.539000 0.666123 0.823350 -0.640370
H81   H     H_    0.543583 0.677188 0.791339 0.313521
O37   O     O_3   0.502976 0.645442 0.910602 -0.627953
H82   H     H_    0.493100 0.671016 0.941798 0.314175
C112  C     C_3   0.511696 0.613645 0.659982 -0.253668
C113  C     C_3   0.587414 0.602453 0.623839 -0.305843
C114  C     C_3   0.653316 0.548003 0.639372 -0.453288
H83   H     H_    0.701738 0.592801 0.672136 0.143577
H84   H     H_    0.594816 0.460364 0.642603 0.157931
H85   H     H_    0.713581 0.549893 0.614069 0.147143
H86   H     H_    0.534742 0.550790 0.592497 0.166763
H87   H     H_    0.648843 0.685884 0.616248 0.161042
H88   H     H_    0.566508 0.669809 0.690192 0.136782
H89   H     H_    0.457894 0.530857 0.670032 0.147344
C115  C     C_3   0.099227 0.986214 0.760189 -0.241453
C116  C     C_3   0.037135 0.905501 0.717153 -0.289309
C117  C     C_3   0.919981 0.816655 0.726226 -0.461421
H90   H     H_    0.926225 0.770303 0.752601 0.158602
H91   H     H_    0.866980 0.854745 0.737425 0.183052
H92   H     H_    0.878712 0.757888 0.694761 0.133972
H93   H     H_    0.027818 0.950823 0.690955 0.206910
H94   H     H_    0.086646 0.864916 0.703933 0.154796
H95   H     H_    0.113565 0.941289 0.785338 0.144501
H96   H     H_    0.047474 0.022902 0.774870 0.169466

loop_
_geom_bond_atom_site_label_1
_geom_bond_atom_site_label_2
_ccdc_geom_bond_type
C7    C13   A    
C21   C26   S    
C40   C41   S    
C104  H61   S    
C16   C25   T    
C100  H56   S    
C102  H52   S    
C73   C74   A    
C14   C18   S    
C114  H83   S    
C61   C68   A    
C16   C84   S    
C57   C66   S    
O30   H40   S    
Cr2   O20   S    
C110  C111  S    
C33   C36   S    
O27   H23   S    
C53   C59   A    
C7    C8    A    
Cr6   O18   S    
Cr1   O12   S    
C44   H9    S    
C116  C117  S    
Cr1   O1    S    
C15   C19   S    
C14   O27   S    
C54   H14   S    
C117  H90   S    
C17   C23   S    
C41   C46   S    
C33   H5    S    
C17   C26   T    
C32   C36   S    
C14   C21   S    
C36   C37   S    
C78   H22   S    
Cr3   O3    S    
C18   C19   S    
C100  H55   S    
C107  H70   S    
C108  H68   S    
C23   O1    A    
C5    C6    A    
C80   C81   S    
C116  H94   S    
C43   C52   T    
Cr4   O7    S    
C77   C83   A    
C74   H18   S    
C113  H87   S    
Cr5   O15   S    
C111  H76   S    
C97   H48   S    
C20   C91   S    
Cr6   O10   S    
C58   H11   S    
C105  H58   S    
C93   H27   S    
C102  H51   S    
C87   O15   A    
C103  H64   S    
C18   O29   S    
O28   H24   S    
C111  H75   S    
C113  C114  S    
C106  H72   S    
C77   C109  S    
C55   C103  S    
C96   H33   S    
C109  H79   S    
C104  C105  S    
C36   O30   S    
C98   H47   S    
C29   C38   T    
C30   C39   T    
C47   C48   S    
O37   H82   S    
C12   O22   A    
C70   C71   A    
C32   C38   S    
C75   C80   A    
C49   C97   S    
C98   H46   S    
C44   C47   S    
C42   C51   T    
Cr1   O24   S    
C56   O24   A    
C115  H96   S    
C48   C50   S    
C101  H54   S    
C103  C104  S    
Cr1   O5    S    
C112  C113  S    
C105  H59   S    
O33   H57   S    
C67   C78   A    
Cr2   O26   S    
C2    C11   S    
C76   C83   A    
C103  H63   S    
C44   C46   S    
C98   C99   S    
Cr6   O17   S    
Cr1   O25   S    
C77   C79   A    
C78   C89   A    
C84   O8    A    
C12   C67   S    
C7    O37   S    
C34   O25   A    
C117  H91   S    
Cr5   O19   S    
C71   H21   S    
C63   C64   A    
C27   C31   S    
C6    H1    S    
C89   C112  S    
C28   C32   S    
C19   C22   S    
Cr3   O4    S    
C109  C110  S    
O34   H65   S    
C1    O12   A    
Cr2   O5    S    
Cr6   O19   S    
C4    H20   S    
C107  C108  S    
C8    C9    A    
C27   C35   S    
C58   C59   A    
C106  C107  S    
C46   C51   S    
Cr5   O16   S    
C81   C82   T    
C97   H49   S    
C79   C80   A    
C60   C61   A    
C31   H7    S    
C87   O14   A    
C2    C89   A    
C35   C39   S    
C75   C76   A    
C101  C102  S    
O35   H66   S    
C5    C9    A    
C62   C63   A    
C33   C35   S    
C110  H78   S    
C115  H95   S    
C90   O18   A    
C106  H73   S    
C70   H19   S    
O29   H32   S    
C46   C49   S    
C88   O16   A    
C48   C52   S    
C93   H25   S    
C34   O26   A    
C96   H35   S    
C31   C33   S    
C111  H74   S    
C12   O21   A    
C112  H88   S    
C69   C74   A    
C114  H84   S    
C22   O28   S    
C61   H10   S    
C43   C45   S    
C34   C69   S    
C29   C86   S    
C79   C106  S    
C60   O33   S    
C95   H37   S    
C94   H39   S    
C24   H2    S    
C45   O2    A    
C69   C70   A    
C15   C24   S    
C15   C115  S    
C101  H53   S    
C97   C98   S    
C92   H28   S    
C55   C57   A    
C86   O6    A    
C3    H12   S    
C105  H60   S    
C22   C24   S    
C108  H69   S    
C42   C88   S    
C90   O13   A    
C47   C100  S    
C3    C4    A    
C5    H6    S    
C41   C50   S    
Cr3   O23   S    
C109  H80   S    
C28   H3    S    
C95   C96   S    
C91   H31   S    
C53   C56   S    
C35   C37   S    
C84   O7    A    
C40   C48   S    
C83   C90   S    
C54   C55   A    
C75   O34   S    
C117  H92   S    
C104  H62   S    
C96   H34   S    
C116  H93   S    
C73   O35   S    
C31   C32   S    
C23   O23   A    
Cr3   O5    S    
C88   O17   A    
C20   C22   S    
C72   C73   A    
C4    C67   A    
C115  C116  S    
C86   O11   A    
C53   C54   A    
C99   H43   S    
C47   C49   S    
Cr4   O13   S    
C92   C93   S    
C41   H8    S    
C62   C68   A    
C60   C64   A    
C45   O3    A    
C64   C65   S    
C99   H45   S    
C76   H17   S    
C2    C3    A    
Cr2   O2    S    
C94   H38   S    
C71   C72   A    
C65   C66   T    
O32   H42   S    
C107  H71   S    
C110  H77   S    
C8    O36   S    
C6    C13   A    
C68   C87   S    
Cr5   O8    S    
C57   C58   A    
C40   O31   S    
C94   C95   S    
C28   C37   S    
C72   C82   S    
C113  H86   S    
C1    C30   S    
C59   H13   S    
C112  H89   S    
C9    C10   S    
C114  H85   S    
C18   C20   S    
C93   H26   S    
C108  H67   S    
C63   H15   S    
C102  H50   S    
C19   C25   S    
Cr4   O14   S    
C85   O9    A    
C10   C11   T    
O31   H41   S    
C95   H36   S    
Cr5   O9    S    
C40   C44   S    
C62   H16   S    
C20   C21   S    
C100  C101  S    
C49   C50   S    
C21   C24   S    
C13   C85   S    
C27   C28   S    
Cr3   O22   S    
Cr4   O19   S    
C14   C15   S    
C50   O32   S    
C85   O10   A    
C92   H29   S    
C91   C92   S    
Cr2   O21   S    
C91   H30   S    
C37   H4    S    
C27   C94   S    
C1    O20   A    
O36   H81   S    
C56   O4    A    
Cr6   O11   S    
C99   H44   S    
Cr4   O6    S    
