data_mof_unit_32248.cif
_audit_creation_date              2012-10-26T18:40:42-0400
_audit_creation_method            fapswitch 2.2
_symmetry_space_group_name_H-M    P1
_symmetry_Int_Tables_number       1
_space_group_crystal_system       triclinic
_cell_length_a                    15.26395
_cell_length_b                    13.874077
_cell_length_c                    11.697779
_cell_angle_alpha                 89.999588
_cell_angle_beta                  89.99096
_cell_angle_gamma                 90.000479
_cell_volume                      2477.2762669

loop_
_atom_site_label
_atom_site_type_symbol
_atom_type_description
_atom_site_fract_x
_atom_site_fract_y
_atom_site_fract_z
_atom_type_partial_charge
C1    C     C_R   0.329767 0.500001 0.500019 0.579681
C2    C     C_R   0.499988 0.500000 0.716096 0.541722
C3    C     C_R   0.465371 0.107761 0.593176 0.208343
C4    C     C_R   0.465285 0.892236 0.406893 0.208339
C5    C     C_R   0.534634 0.107763 0.406826 0.208349
C6    C     C_R   0.534718 0.892234 0.593109 0.208336
C7    C     C_1   0.500009 0.500001 0.162299 -0.025362
C8    C     C_1   0.499990 0.499999 0.837701 -0.025355
C9    C     C_1   0.500004 0.500000 0.059855 -0.046142
C10   C     C_1   0.499996 0.500000 0.940145 -0.046139
C11   C     C_R   0.467435 0.209477 0.591414 0.025507
C12   C     C_R   0.670233 0.500002 0.499979 0.579681
C13   C     C_R   0.467355 0.790520 0.408648 0.025525
C14   C     C_R   0.532566 0.209479 0.408587 0.025507
C15   C     C_R   0.532645 0.790518 0.591353 0.025524
C16   C     C_R   0.095157 0.580239 0.458526 0.237965
C17   C     C_R   0.904873 0.419815 0.458508 0.237991
C18   C     C_R   0.904845 0.580244 0.541447 0.238051
C19   C     C_R   0.095125 0.419815 0.541479 0.238001
C20   C     C_R   0.185877 0.584957 0.474637 0.191199
C21   C     C_R   0.814142 0.415075 0.474581 0.190924
C22   C     C_R   0.814126 0.584960 0.525344 0.191316
C23   C     C_R   0.233041 0.500008 0.500022 -0.090078
C24   C     C_R   0.185856 0.415073 0.525412 0.190973
C25   C     C_3   0.341923 0.060929 0.686988 -0.017104
C26   C     C_3   0.308058 0.006982 0.791159 -0.359697
C27   C     C_3   0.341747 0.939004 0.313287 -0.017093
C28   C     C_3   0.307783 0.992935 0.209174 -0.359736
C29   C     C_3   0.658086 0.060945 0.313016 -0.017108
C30   C     C_3   0.691956 0.007010 0.208840 -0.359695
C31   C     C_3   0.658260 0.939004 0.686703 -0.017088
C32   C     C_3   0.692232 0.992902 0.790837 -0.359735
C33   C     C_3   0.042961 0.641257 0.291854 0.004181
C34   C     C_R   0.766960 0.500010 0.499969 -0.090086
C35   C     C_3   0.023086 0.736000 0.231781 -0.366015
C36   C     C_3   0.956634 0.358681 0.291671 0.004064
C37   C     C_3   0.976976 0.263985 0.231754 -0.365976
C38   C     C_3   0.957254 0.641154 0.708071 0.004172
C39   C     C_3   0.976993 0.735885 0.768247 -0.366035
C40   C     C_3   0.043286 0.358745 0.708312 0.004045
C41   C     C_3   0.022988 0.264063 0.768288 -0.365971
C42   C     C_3   0.215179 0.724471 0.566218 0.028159
C43   C     C_3   0.243832 0.828299 0.551048 -0.378756
C44   C     C_3   0.784899 0.275419 0.565912 0.028201
C45   C     C_R   0.048367 0.500023 0.499977 -0.036108
C46   C     C_3   0.756191 0.171628 0.550582 -0.378813
C47   C     C_3   0.784822 0.724479 0.433772 0.028163
C48   C     C_3   0.756161 0.828304 0.448944 -0.378755
C49   C     C_3   0.215095 0.275407 0.434103 0.028204
C50   C     C_3   0.243799 0.171617 0.449447 -0.378818
C51   C     C_R   0.951633 0.500025 0.499997 -0.036092
C52   C     C_R   0.500003 0.054690 0.500001 0.057279
C53   C     C_R   0.500002 0.945307 0.500001 0.057271
C54   C     C_R   0.500012 0.500000 0.283904 0.541715
Cu1   Cu    Cu3+1 0.500000 0.596430 0.500000 0.961969
Cu2   Cu    Cu3+1 0.500000 0.403570 0.500000 0.962019
H1    H     H_    0.441740 0.248912 0.663689 0.157829
H2    H     H_    0.317273 0.976253 0.391312 0.108463
H3    H     H_    0.315496 0.864154 0.310126 0.139068
H4    H     H_    0.330210 0.956689 0.129720 0.163335
H5    H     H_    0.235041 0.994050 0.210302 0.080086
H6    H     H_    0.332472 0.068257 0.209834 0.167716
H7    H     H_    0.682595 0.023670 0.390997 0.108469
H8    H     H_    0.684368 0.135782 0.309827 0.138941
H9    H     H_    0.669502 0.043285 0.129427 0.163375
H10   H     H_    0.764698 0.005845 0.209864 0.080028
H11   H     H_    0.667226 0.931704 0.209519 0.167754
H12   H     H_    0.441601 0.751080 0.336422 0.157840
H13   H     H_    0.682724 0.976281 0.608690 0.108472
H14   H     H_    0.684515 0.864156 0.689826 0.139076
H15   H     H_    0.669834 0.956613 0.870278 0.163305
H16   H     H_    0.764973 0.994043 0.789681 0.080101
H17   H     H_    0.667522 0.068216 0.790233 0.167739
H18   H     H_    0.987411 0.590861 0.277157 0.097156
H19   H     H_    0.103556 0.610831 0.252318 0.121463
H20   H     H_    0.078198 0.787202 0.244408 0.163581
H21   H     H_    0.014297 0.723166 0.138777 0.079453
H22   H     H_    0.962214 0.768402 0.266557 0.139700
H23   H     H_    0.558261 0.248916 0.336312 0.157827
H24   H     H_    0.011780 0.409518 0.276492 0.097030
H25   H     H_    0.895696 0.388504 0.252420 0.122054
H26   H     H_    0.922314 0.212304 0.244968 0.163604
H27   H     H_    0.985271 0.276685 0.138643 0.079538
H28   H     H_    0.038245 0.232235 0.266159 0.139360
H29   H     H_    0.012947 0.590906 0.722542 0.097194
H30   H     H_    0.896795 0.610502 0.747719 0.121218
H31   H     H_    0.921720 0.786923 0.755893 0.163572
H32   H     H_    0.985998 0.722962 0.861199 0.079428
H33   H     H_    0.037710 0.768531 0.733325 0.139793
H34   H     H_    0.558399 0.751076 0.663577 0.157850
H35   H     H_    0.988091 0.409535 0.723398 0.097026
H36   H     H_    0.104178 0.388653 0.747597 0.121948
H37   H     H_    0.077708 0.212436 0.755186 0.163599
H38   H     H_    0.014615 0.276810 0.861378 0.079528
H39   H     H_    0.961774 0.232221 0.733835 0.139394
H40   H     H_    0.254765 0.691463 0.635952 0.124546
H41   H     H_    0.145120 0.726106 0.592913 0.162758
H42   H     H_    0.208101 0.861386 0.478301 0.151963
H43   H     H_    0.228473 0.869532 0.629758 0.083273
H44   H     H_    0.315357 0.831560 0.535743 0.149354
H45   H     H_    0.317416 0.023657 0.609005 0.108468
H46   H     H_    0.745383 0.308347 0.635782 0.124535
H47   H     H_    0.854979 0.273704 0.592473 0.163150
H48   H     H_    0.791847 0.138631 0.477702 0.151872
H49   H     H_    0.771603 0.130274 0.629179 0.083312
H50   H     H_    0.684652 0.168427 0.535405 0.149403
H51   H     H_    0.745240 0.691470 0.364034 0.124529
H52   H     H_    0.854882 0.726123 0.407082 0.162787
H53   H     H_    0.771518 0.869541 0.370235 0.083275
H54   H     H_    0.684636 0.831556 0.464248 0.149356
H55   H     H_    0.791889 0.861393 0.521691 0.151975
H56   H     H_    0.315636 0.135762 0.690185 0.138941
H57   H     H_    0.254612 0.308327 0.364226 0.124522
H58   H     H_    0.145015 0.273691 0.407544 0.163159
H59   H     H_    0.208148 0.138630 0.522339 0.151889
H60   H     H_    0.228377 0.130252 0.370862 0.083303
H61   H     H_    0.315340 0.168414 0.464612 0.149392
H62   H     H_    0.330512 0.043251 0.870576 0.163377
H63   H     H_    0.235316 0.005810 0.790138 0.080031
H64   H     H_    0.332793 0.931678 0.790470 0.167756
N1    N     N_R   0.500000 0.258690 0.500000 -0.286033
N2    N     N_R   0.500000 0.741310 0.500000 -0.286054
O1    O     O_R   0.371460 0.581430 0.500010 -0.460477
O2    O     O_3   0.434019 0.939037 0.310898 -0.510459
O3    O     O_3   0.565812 0.060966 0.310768 -0.510441
O4    O     O_3   0.565988 0.939031 0.689103 -0.510458
O5    O     O_3   0.052934 0.658426 0.410119 -0.493701
O6    O     O_3   0.947151 0.341683 0.410042 -0.493939
O7    O     O_3   0.947061 0.658435 0.589859 -0.493642
O8    O     O_3   0.052848 0.341688 0.589963 -0.493914
O9    O     O_3   0.227384 0.672995 0.462880 -0.517607
O10   O     O_3   0.772636 0.327048 0.462700 -0.517796
O11   O     O_3   0.772618 0.672997 0.537107 -0.517553
O12   O     O_R   0.628540 0.418570 0.499990 -0.460396
O13   O     O_3   0.227361 0.327048 0.537306 -0.517772
O14   O     O_R   0.628540 0.581430 0.499990 -0.460476
O15   O     O_R   0.371460 0.418570 0.500010 -0.460397
O16   O     O_R   0.500010 0.581440 0.337200 -0.509718
O17   O     O_R   0.499990 0.418560 0.662800 -0.509730
O18   O     O_R   0.499990 0.581440 0.662800 -0.509718
O19   O     O_R   0.500010 0.418560 0.337200 -0.509733
O20   O     O_3   0.434197 0.060962 0.689235 -0.510444

loop_
_geom_bond_atom_site_label_1
_geom_bond_atom_site_label_2
_ccdc_geom_bond_type
C48   H54   S    
Cu1   Cu2   S    
C29   H7    S    
Cu2   O15   S    
C15   N2    A    
C29   O3    S    
C4    C53   A    
C50   H61   S    
C49   H57   S    
C25   O20   S    
C43   H42   S    
C39   H31   S    
C17   C51   A    
C32   H16   S    
C36   O6    S    
Cu1   O16   S    
C43   H44   S    
C38   H30   S    
C42   H40   S    
C2    O17   A    
C36   C37   S    
C43   H43   S    
C38   C39   S    
C45   C51   S    
Cu1   O14   S    
C46   H49   S    
C33   O5    S    
C4    O2    S    
C50   H59   S    
C4    C13   A    
C41   H39   S    
C25   H56   S    
C6    C15   A    
C33   H19   S    
C31   H14   S    
C41   H37   S    
C47   C48   S    
C23   C24   A    
C37   H28   S    
C42   O9    S    
C9    C10   S    
C30   H11   S    
C28   H5    S    
C19   O8    S    
C48   H53   S    
C49   O13   S    
Cu1   N2    S    
C14   N1    A    
C12   O12   A    
C47   O11   S    
C11   N1    A    
C3    O20   S    
C39   H32   S    
C44   H47   S    
C44   C46   S    
C18   C51   A    
C32   H15   S    
C28   H4    S    
C22   C34   A    
Cu1   O1    S    
C35   H20   S    
C38   H29   S    
C38   O7    S    
C26   H63   S    
C6    O4    S    
C36   H24   S    
C42   H41   S    
C32   H17   S    
Cu2   O17   S    
C44   H46   S    
C21   C34   A    
C22   O11   S    
C25   C26   S    
C46   H48   S    
C35   H21   S    
C17   C21   A    
Cu1   O18   S    
C1    O1    A    
C21   O10   S    
C29   C30   S    
C47   H52   S    
C41   H38   S    
C20   C23   A    
C36   H25   S    
C16   C20   A    
C48   H55   S    
C5    C52   A    
C14   H23   S    
C40   H36   S    
C5    C14   A    
C30   H10   S    
Cu2   O19   S    
C24   O13   S    
C40   C41   S    
C1    C23   S    
C47   H51   S    
C37   H26   S    
C42   C43   S    
C20   O9    S    
C12   C34   S    
C27   O2    S    
C1    O15   A    
C52   C53   S    
C7    C9    T    
C40   O8    S    
C18   C22   A    
C31   C32   S    
C2    C8    S    
C26   H62   S    
C26   H64   S    
C27   H2    S    
C16   C45   A    
Cu2   O12   S    
C3    C52   A    
C19   C45   A    
C17   O6    S    
C44   O10   S    
C35   H22   S    
C7    C54   S    
C2    O18   A    
Cu2   N1    S    
C19   C24   A    
C27   H3    S    
C15   H34   S    
C13   N2    A    
C25   H45   S    
C54   O16   A    
C46   H50   S    
C33   C35   S    
C49   H58   S    
C50   H60   S    
C40   H35   S    
C16   O5    S    
C29   H8    S    
C30   H9    S    
C3    C11   A    
C33   H18   S    
C31   H13   S    
C54   O19   A    
C8    C10   T    
C49   C50   S    
C12   O14   A    
C5    O3    S    
C27   C28   S    
C37   H27   S    
C18   O7    S    
C6    C53   A    
C31   O4    S    
C11   H1    S    
C39   H33   S    
C13   H12   S    
C28   H6    S    
