data_mof_unit_22406.cif
_audit_creation_date              2012-12-10T21:06:55-0500
_audit_creation_method            fapswitch 2.2
_symmetry_space_group_name_H-M    P1
_symmetry_Int_Tables_number       1
_space_group_crystal_system       triclinic
_cell_length_a                    10.794684
_cell_length_b                    15.908275
_cell_length_c                    15.042998
_cell_angle_alpha                 86.085376
_cell_angle_beta                  91.657759
_cell_angle_gamma                 90.36663
_cell_volume                      2576.12479599

loop_
_atom_site_label
_atom_site_type_symbol
_atom_type_description
_atom_site_fract_x
_atom_site_fract_y
_atom_site_fract_z
_atom_type_partial_charge
C1    C     C_R   0.501543 0.338031 0.502900 0.900093
C2    C     C_R   0.501397 0.661408 0.497009 0.886397
C3    C     C_R   0.873044 0.500151 0.503557 -0.111613
C4    C     C_R   0.127045 0.496328 0.496472 -0.115361
C5    C     C_R   0.943445 0.488680 0.583936 0.068361
C6    C     C_R   0.057048 0.513755 0.416996 0.059513
C7    C     C_R   0.578571 0.942946 0.571163 0.450038
C8    C     C_R   0.544755 0.054197 0.418760 0.455864
C9    C     C_R   0.552461 0.912241 0.487729 -0.083012
C10   C     C_R   0.552339 0.085479 0.504025 -0.070311
C11   C     C_R   0.537455 0.966682 0.410363 -0.094098
C12   C     C_R   0.572236 0.030408 0.580858 -0.086347
C13   C     C_1   0.533389 0.823788 0.485801 0.044713
C14   C     C_1   0.533207 0.174236 0.510209 0.036576
C15   C     C_1   0.516808 0.248872 0.509236 -0.234117
C16   C     C_1   0.517056 0.749546 0.489849 -0.198701
C17   C     C_R   0.496351 0.426785 0.957751 -0.282903
C18   C     C_R   0.489234 0.577128 0.042556 -0.190833
C19   C     C_R   0.495269 0.503188 0.904927 0.034740
C20   C     C_R   0.493670 0.500506 0.095074 0.006247
C21   C     C_R   0.489433 0.579492 0.948193 0.208965
C22   C     C_R   0.495644 0.424354 0.051793 0.126399
C23   C     C_R   0.259283 0.499269 0.498632 0.874550
C24   C     C_R   0.740775 0.501016 0.501426 0.885652
C25   C     C_1   0.497910 0.501532 0.807054 0.027948
C26   C     C_1   0.497371 0.500790 0.192839 0.053470
C27   C     C_R   0.144218 0.666655 0.225025 -0.392203
C28   C     C_R   0.875257 0.465031 0.830508 -0.366059
C29   C     C_R   0.110775 0.634811 0.310245 0.457338
C30   C     C_R   0.881016 0.443793 0.741589 0.464509
C31   C     C_R   0.109040 0.547321 0.331431 0.050672
C32   C     C_R   0.899593 0.507290 0.673189 0.049090
C33   C     C_R   0.144490 0.492652 0.267807 -0.296796
C34   C     C_R   0.902606 0.591389 0.694610 -0.309893
C35   C     C_R   0.178598 0.524720 0.183136 -0.225569
C36   C     C_R   0.894156 0.612207 0.782835 -0.237718
C37   C     C_R   0.177567 0.611498 0.159483 0.516312
C38   C     C_R   0.883977 0.549776 0.852133 0.524997
C39   C     C_R   0.930296 0.511068 0.421235 -0.203866
C40   C     C_R   0.069656 0.480852 0.578191 -0.221531
H1    H     H_    0.496298 0.368128 0.925751 0.160738
H2    H     H_    0.485799 0.635616 0.075377 0.148482
H3    H     H_    0.138994 0.734050 0.211503 0.158164
H4    H     H_    0.862717 0.415081 0.881680 0.147175
H5    H     H_    0.142039 0.425107 0.282840 0.174184
H6    H     H_    0.916271 0.640448 0.642518 0.174839
H7    H     H_    0.202184 0.481445 0.133875 0.160596
H8    H     H_    0.898105 0.677476 0.798203 0.178783
H9    H     H_    0.876516 0.523577 0.359722 0.170223
H10   H     H_    0.124061 0.470814 0.639779 0.176305
N1    N     N_1   0.499960 0.500020 0.270550 -0.089931
N2    N     N_1   0.500040 0.499980 0.729450 -0.114911
O1    O     O_R   0.500000 0.378020 0.573650 -0.631966
O2    O     O_R   0.500000 0.621980 0.426350 -0.618928
O3    O     O_R   0.500060 0.378020 0.426320 -0.603452
O4    O     O_R   0.499940 0.621980 0.573680 -0.598008
O5    O     O_R   0.316730 0.500010 0.573660 -0.616706
O6    O     O_R   0.683270 0.499990 0.426340 -0.619123
O7    O     O_R   0.316790 0.500010 0.426330 -0.614109
O8    O     O_R   0.683210 0.499990 0.573670 -0.643810
Zn1   Zn    Zn3+2 0.499960 0.500000 0.598370 0.946456
Zn2   Zn    Zn3+2 0.500040 0.500000 0.401630 0.966854
O9    O     O_3   0.207230 0.635612 0.071421 -0.659826
C41   C     C_3   0.190226 0.721881 0.044719 0.064245
H11   H     H_    0.239130 0.734351 0.981342 0.160263
H12   H     H_    0.236152 0.764159 0.091421 0.133610
C42   C     C_3   0.053028 0.742663 0.024697 -0.353706
H13   H     H_    0.018802 0.705949 0.968726 0.254222
H14   H     H_    0.996071 0.725179 0.083419 0.224422
C43   C     C_3   0.035554 0.836234 0.998454 -0.976791
H15   H     H_    0.067734 0.874501 0.053798 0.267439
H16   H     H_    0.935824 0.849289 0.983916 0.265136
H17   H     H_    0.088357 0.854836 0.937868 0.265167
O10   O     O_3   0.869982 0.576516 0.937368 -0.671593
C44   C     C_3   0.919975 0.521007 0.006493 0.075108
H18   H     H_    0.971774 0.560176 0.053234 0.191159
H19   H     H_    0.988479 0.475200 0.984485 0.131742
C45   C     C_3   0.814642 0.476984 0.057422 -0.344629
H20   H     H_    0.749498 0.525445 0.077618 0.239283
H21   H     H_    0.763324 0.434388 0.013841 0.218746
C46   C     C_3   0.862391 0.426371 0.140926 -0.984748
H22   H     H_    0.929647 0.378049 0.123368 0.268260
H23   H     H_    0.783309 0.394481 0.174836 0.269711
H24   H     H_    0.907426 0.468875 0.187758 0.275406
O11   O     O_3   0.065772 0.688771 0.369675 -0.645563
C47   C     C_3   0.166570 0.724477 0.415764 0.082801
H25   H     H_    0.215884 0.770870 0.370544 0.146369
H26   H     H_    0.233132 0.675267 0.442963 0.130897
C48   C     C_3   0.116550 0.769259 0.493724 -0.339817
H27   H     H_    0.051845 0.819932 0.468064 0.230005
H28   H     H_    0.064487 0.722907 0.536986 0.227786
C49   C     C_3   0.220514 0.807530 0.548946 -0.943824
H29   H     H_    0.283342 0.757357 0.578224 0.275381
H30   H     H_    0.180899 0.840471 0.604141 0.268734
H31   H     H_    0.273863 0.854076 0.506964 0.264352
O12   O     O_3   0.862416 0.361241 0.721723 -0.653932
C50   C     C_3   0.733085 0.346484 0.712816 0.121712
H32   H     H_    0.717370 0.308562 0.654527 0.150193
H33   H     H_    0.677306 0.404117 0.698474 0.185776
C51   C     C_3   0.682453 0.301221 0.797219 -0.408508
H34   H     H_    0.741013 0.246303 0.817730 0.249248
H35   H     H_    0.686284 0.343737 0.852521 0.205022
C52   C     C_3   0.547700 0.273921 0.782970 -0.933934
H36   H     H_    0.485983 0.329484 0.776436 0.270172
H37   H     H_    0.518553 0.231655 0.840456 0.253329
H38   H     H_    0.535471 0.240808 0.721172 0.269101
C53   C     C_3   0.584579 0.063476 0.672734 -0.364223
C54   C     C_3   0.713155 0.103702 0.687728 -0.334179
C55   C     C_3   0.763713 0.084904 0.782979 -0.902724
H39   H     H_    0.694970 0.102461 0.831926 0.264801
H40   H     H_    0.785204 0.017095 0.795596 0.246182
H41   H     H_    0.850838 0.120927 0.793061 0.260123
H42   H     H_    0.782126 0.082790 0.640616 0.208921
H43   H     H_    0.706133 0.172138 0.673289 0.227954
H44   H     H_    0.509852 0.109477 0.680941 0.183182
H45   H     H_    0.567420 0.012381 0.725034 0.233736
C56   C     C_3   0.506520 0.932732 0.320242 -0.348363
C57   C     C_3   0.367524 0.941050 0.297602 -0.292138
C58   C     C_3   0.332461 0.897915 0.212834 -0.954385
H46   H     H_    0.383829 0.926847 0.155483 0.267272
H47   H     H_    0.354131 0.829617 0.221564 0.257796
H48   H     H_    0.231516 0.905057 0.198192 0.252285
H49   H     H_    0.313369 0.911789 0.353352 0.209928
H50   H     H_    0.342110 0.008737 0.288162 0.249889
H51   H     H_    0.560360 0.966747 0.267222 0.194058
H52   H     H_    0.533944 0.865635 0.319369 0.199649
O13   O     O_3   0.595381 0.885194 0.644241 -0.641868
C59   C     C_3   0.718951 0.888116 0.678321 0.067779
H53   H     H_    0.715516 0.885412 0.752185 0.160225
H54   H     H_    0.770127 0.945995 0.656347 0.155802
C60   C     C_3   0.794858 0.813722 0.652161 -0.355909
H55   H     H_    0.754634 0.754099 0.681623 0.231353
H56   H     H_    0.793241 0.811747 0.578433 0.225410
C61   C     C_3   0.928986 0.823754 0.685896 -1.006960
H57   H     H_    0.970763 0.881796 0.653920 0.270453
H58   H     H_    0.985739 0.769639 0.669790 0.269951
H59   H     H_    0.932629 0.827951 0.759359 0.265682
O14   O     O_3   0.531257 0.109839 0.344165 -0.649787
C62   C     C_3   0.646917 0.122278 0.302692 0.048679
H60   H     H_    0.628325 0.127665 0.229494 0.164752
H61   H     H_    0.712793 0.068695 0.316098 0.117956
C63   C     C_3   0.708405 0.204108 0.329801 -0.329057
H62   H     H_    0.641959 0.257104 0.318555 0.238746
H63   H     H_    0.735643 0.197653 0.401667 0.216193
C64   C     C_3   0.824134 0.224455 0.276426 -0.986939
H64   H     H_    0.892722 0.172783 0.287612 0.267529
H65   H     H_    0.867068 0.283545 0.298203 0.275618
H66   H     H_    0.799648 0.233148 0.204160 0.264308
C65   C     C_3   0.496983 0.339713 0.104351 -0.424306
C66   C     C_3   0.367009 0.316090 0.136546 -0.366704
C67   C     C_3   0.367634 0.232445 0.192362 -0.818065
H67   H     H_    0.405896 0.181597 0.154296 0.257323
H68   H     H_    0.424075 0.238530 0.254406 0.296625
H69   H     H_    0.271496 0.215187 0.210916 0.242526
H70   H     H_    0.332116 0.365285 0.178163 0.227007
H71   H     H_    0.302550 0.311319 0.078083 0.223345
H72   H     H_    0.529885 0.289909 0.062367 0.193487
H73   H     H_    0.563527 0.341303 0.161994 0.203890
C68   C     C_3   0.477268 0.663690 0.895258 -0.430377
C69   C     C_3   0.601030 0.695957 0.858324 -0.327711
C70   C     C_3   0.684101 0.732503 0.930241 -0.810289
H74   H     H_    0.638330 0.787151 0.957470 0.234166
H75   H     H_    0.704306 0.684255 0.985466 0.291279
H76   H     H_    0.772809 0.754430 0.900980 0.244207
H77   H     H_    0.650078 0.644686 0.827641 0.240594
H78   H     H_    0.581976 0.746512 0.805092 0.228497
H79   H     H_    0.409156 0.657632 0.839192 0.182803
H80   H     H_    0.438993 0.711819 0.936843 0.190726

loop_
_geom_bond_atom_site_label_1
_geom_bond_atom_site_label_2
_ccdc_geom_bond_type
O6    Zn2   S    
O4    Zn1   S    
C46   H24   S    
C27   C29   A    
C18   C21   A    
C33   H5    S    
C60   C61   S    
C35   H7    S    
C59   H53   S    
C70   H76   S    
C61   H59   S    
C46   H22   S    
O11   C47   S    
C68   H80   S    
C23   O7    A    
C70   H75   S    
C35   C37   A    
N2    Zn1   S    
C18   H2    S    
C64   H64   S    
C62   C63   S    
C45   H21   S    
C23   O5    A    
O3    Zn2   S    
C50   H32   S    
C9    C13   S    
C54   C55   S    
C18   C20   A    
C8    O14   S    
C67   H69   S    
C54   H43   S    
C1    O1    A    
C57   C58   S    
C49   H29   S    
C30   O12   S    
C64   H65   S    
O1    Zn1   S    
C4    C40   A    
C67   H67   S    
C31   C33   A    
C43   H15   S    
C1    C15   S    
C69   H78   S    
C48   H28   S    
C2    C16   S    
C65   H73   S    
C29   O11   S    
C5    C32   S    
C67   H68   S    
C6    C31   S    
C22   C65   S    
C3    C39   A    
C66   H71   S    
C21   C68   S    
C63   C64   S    
C3    C24   S    
N1    Zn2   S    
C51   H35   S    
C37   O9    S    
C70   H74   S    
C58   H47   S    
C7    C12   A    
O10   C44   S    
C47   H26   S    
C42   H13   S    
C41   C42   S    
C4    C6    A    
C10   C14   S    
C55   H41   S    
C4    C23   S    
C47   H25   S    
C17   C19   A    
C61   H58   S    
O2    Zn2   S    
C3    C5    A    
C28   H4    S    
C51   C52   S    
O8    Zn1   S    
C42   H14   S    
C32   C34   A    
C54   H42   S    
C44   H18   S    
C9    C11   A    
C68   C69   S    
C28   C38   A    
C24   O8    A    
C6    C39   A    
O12   C50   S    
C43   H17   S    
C49   H30   S    
C52   H37   S    
C57   H50   S    
C69   H77   S    
C48   C49   S    
C44   H19   S    
C53   H44   S    
C10   C12   A    
C34   H6    S    
C24   O6    A    
C39   H9    S    
C20   C22   A    
C66   H70   S    
C2    O2    A    
C63   H63   S    
C5    C40   A    
C53   C54   S    
C60   H55   S    
C11   C56   S    
C59   C60   S    
C50   C51   S    
C64   H66   S    
C56   H51   S    
C38   O10   S    
C58   H48   S    
C7    C9    A    
O7    Zn2   S    
C50   H33   S    
C19   C21   A    
C45   H20   S    
C60   H56   S    
C47   C48   S    
C59   H54   S    
C46   H23   S    
C12   C53   S    
C62   H60   S    
O5    Zn1   S    
C61   H57   S    
C26   N1    T    
C17   C22   A    
C66   C67   S    
C42   C43   S    
C69   C70   S    
C55   H40   S    
C1    O3    A    
C25   N2    T    
C29   C31   A    
C2    O4    A    
C65   C66   S    
C41   H11   S    
C36   C38   A    
C30   C32   A    
C62   H61   S    
C45   C46   S    
C20   C26   S    
C27   C37   A    
C8    C11   A    
C40   H10   S    
C28   C30   A    
C51   H34   S    
C33   C35   A    
C68   H79   S    
C36   H8    S    
C52   H38   S    
C34   C36   A    
C57   H49   S    
C49   H31   S    
C19   C25   S    
C44   C45   S    
C17   H1    S    
C53   H45   S    
O14   C62   S    
O9    C41   S    
C27   H3    S    
C8    C10   A    
C58   H46   S    
C13   C16   T    
C55   H39   S    
C52   H36   S    
C63   H62   S    
C14   C15   T    
C56   H52   S    
C43   H16   S    
C7    O13   S    
C48   H27   S    
C56   C57   S    
C65   H72   S    
O13   C59   S    
C41   H12   S    
