data_mof_unit_62524.cif
_audit_creation_date              2012-12-11T14:24:15-0500
_audit_creation_method            fapswitch 2.2
_symmetry_space_group_name_H-M    P1
_symmetry_Int_Tables_number       1
_space_group_crystal_system       triclinic
_cell_length_a                    6.95098
_cell_length_b                    17.46486
_cell_length_c                    18.899401
_cell_angle_alpha                 105.194384
_cell_angle_beta                  89.838865
_cell_angle_gamma                 90.536217
_cell_volume                      2214.04497042

loop_
_atom_site_label
_atom_site_type_symbol
_atom_type_description
_atom_site_fract_x
_atom_site_fract_y
_atom_site_fract_z
_atom_type_partial_charge
O1    O     O_R   0.494360 0.416740 0.414860 -0.539730
O2    O     O_R   0.818980 0.432970 0.557290 -0.527900
O3    O     O_R   0.994290 0.583260 0.585140 -0.541179
C1    C     C_R   0.650055 0.415966 0.580631 0.710756
O4    O     O_R   0.823740 0.407570 0.413690 -0.522505
O5    O     O_R   0.999090 0.557670 0.440510 -0.525688
C2    C     C_R   0.654834 0.386922 0.385476 0.764153
O6    O     O_R   0.489560 0.442330 0.559490 -0.525396
O7    O     O_3   0.662450 0.549280 0.508970 -0.360008
V1    V     V_3+5 0.935350 0.490860 0.498340 1.442265
O8    O     O_R   0.329100 0.567030 0.442710 -0.525579
C3    C     C_R   0.160914 0.584042 0.419371 0.717148
O9    O     O_R   0.324330 0.592430 0.586310 -0.523227
C4    C     C_R   0.155811 0.613408 0.614491 0.766897
V2    V     V_3+5 0.435960 0.509140 0.501660 1.442917
O10   O     O_3   0.158990 0.450720 0.491030 -0.359278
C5    C     C_2   0.271004 0.790713 0.783056 -0.182611
C6    C     C_2   0.109501 0.825069 0.815206 -0.337784
H1    H     H_    0.409291 0.810296 0.808333 0.142418
H2    H     H_    0.972585 0.810463 0.787450 0.143861
C7    C     C_2   0.272591 0.732899 0.708993 0.200577
C8    C     C_2   0.145136 0.671089 0.687937 0.021134
C9    C     C_1   0.110807 0.863910 0.132635 -0.215787
C10   C     C_1   0.118371 0.821331 0.176191 -0.000251
C11   C     C_1   0.127845 0.771101 0.228068 -0.000856
C12   C     C_1   0.135937 0.728805 0.271858 -0.000368
C13   C     C_1   0.145405 0.678582 0.323740 0.001403
C14   C     C_1   0.152956 0.636015 0.367305 -0.210216
C15   C     C_1   0.641506 0.364057 0.632689 -0.212626
C16   C     C_1   0.637103 0.321484 0.676272 -0.000127
C17   C     C_1   0.633322 0.271249 0.728165 -0.000390
C18   C     C_1   0.630435 0.228926 0.771977 -0.000270
C19   C     C_1   0.626647 0.178678 0.823860 0.000428
C20   C     C_1   0.622232 0.136079 0.867422 -0.209653
C21   C     C_2   0.771279 0.213706 0.216524 0.187458
C22   C     C_2   0.613664 0.172075 0.186625 -0.321364
H3    H     H_    0.481947 0.178271 0.218585 0.097269
C23   C     C_2   0.764646 0.266259 0.293044 0.158166
C24   C     C_2   0.644135 0.329538 0.312143 -0.016657
O11   O     O_R   0.774180 0.057760 0.940580 -0.522632
O12   O     O_R   0.439830 0.092440 0.086330 -0.546213
O13   O     O_R   0.264640 0.942310 0.059470 -0.525283
C25   C     C_R   0.608646 0.113449 0.114328 0.787327
O14   O     O_R   0.444740 0.067040 0.942730 -0.527186
O15   O     O_R   0.269590 0.916730 0.914840 -0.536074
C26   C     C_R   0.613677 0.084117 0.919439 0.716308
O16   O     O_R   0.769230 0.083340 0.085210 -0.509813
O17   O     O_3   0.601340 0.950770 0.991070 -0.369026
V3    V     V_3+5 0.328370 0.009130 0.001660 1.420527
O18   O     O_R   0.939550 0.907490 0.913620 -0.544990
C27   C     C_R   0.107678 0.886615 0.885634 0.753385
O19   O     O_R   0.934640 0.932890 0.057220 -0.526547
C28   C     C_R   0.102828 0.915902 0.080582 0.717477
V4    V     V_3+5 0.827780 0.990750 0.998250 1.427995
O20   O     O_3   0.104690 0.049230 0.008930 -0.352289
N1    N     N_3   0.420550 0.743204 0.659059 -0.667867
H4    H     H_    0.407730 0.800219 0.651720 0.224167
H5    H     H_    0.553736 0.740126 0.683686 0.220213
C29   C     C_3   0.997015 0.652288 0.740106 -0.825082
H6    H     H_    0.958357 0.588179 0.723981 0.202854
H7    H     H_    0.053774 0.665028 0.796886 0.227080
H8    H     H_    0.863350 0.685995 0.738585 0.207911
N2    N     N_3   0.947259 0.208258 0.175565 -0.628295
H9    H     H_    0.988578 0.265700 0.174670 0.224956
H10   H     H_    0.054263 0.185769 0.202998 0.219152
N3    N     N_3   0.894603 0.250563 0.346769 -0.656053
H11   H     H_    0.975257 0.199974 0.323665 0.217807
H12   H     H_    0.811150 0.236395 0.387779 0.206890
C30   C     C_3   0.505430 0.348787 0.257613 -0.819401
H13   H     H_    0.446095 0.409397 0.278351 0.208228
H14   H     H_    0.579853 0.346901 0.205117 0.218998
H15   H     H_    0.382167 0.306598 0.247731 0.218078

loop_
_geom_bond_atom_site_label_1
_geom_bond_atom_site_label_2
_ccdc_geom_bond_type
O14   V3    S    
O5    V1    S    
C7    N1    S    
N3    H12   S    
O8    C3    A    
N2    H10   S    
C15   C16   T    
O1    V2    S    
C30   H15   S    
O7    V1    S    
O2    C1    A    
C1    C15   S    
O15   V3    S    
C16   C17   S    
C9    C10   T    
C11   C12   T    
V3    O20   S    
C18   C19   S    
C4    C8    S    
C21   N2    S    
C5    C6    D    
O7    V2    S    
N3    H11   S    
C29   H6    S    
C8    C29   S    
O3    V1    S    
V1    O10   S    
O9    C4    A    
C10   C11   S    
O17   V4    S    
O12   C25   A    
C12   C13   S    
O18   V4    S    
O3    C4    A    
C25   O16   A    
C3    C14   S    
O16   V4    S    
C20   C26   S    
O5    C3    A    
O12   V3    S    
O17   V3    S    
C5    H1    S    
N1    H5    S    
C6    C27   S    
C9    C28   S    
O6    V2    S    
C6    H2    S    
C30   H13   S    
O9    V2    S    
O13   C28   A    
C24   C30   S    
C23   C24   D    
C29   H7    S    
N1    H4    S    
O11   C26   A    
O13   V3    S    
V2    O10   S    
O2    V1    S    
C23   N3    S    
O4    V1    S    
C21   C23   S    
C19   C20   T    
O19   C28   A    
O4    C2    A    
O19   V4    S    
C1    O6    A    
C30   H14   S    
O15   C27   A    
V4    O20   S    
C22   H3    S    
C22   C25   S    
C2    C24   S    
C29   H8    S    
O18   C27   A    
C7    C8    D    
O1    C2    A    
O8    V2    S    
C17   C18   T    
C5    C7    S    
C21   C22   D    
O11   V4    S    
O14   C26   A    
N2    H9    S    
C13   C14   T    
