data_mof_unit_7109.cif
_audit_creation_date              2012-12-11T14:07:49-0500
_audit_creation_method            fapswitch 2.2
_symmetry_space_group_name_H-M    P1
_symmetry_Int_Tables_number       1
_space_group_crystal_system       triclinic
_cell_length_a                    19.740746
_cell_length_b                    16.994656
_cell_length_c                    15.378532
_cell_angle_alpha                 90.021998
_cell_angle_beta                  53.175876
_cell_angle_gamma                 90.227036
_cell_volume                      4129.86690402

loop_
_atom_site_label
_atom_site_type_symbol
_atom_type_description
_atom_site_fract_x
_atom_site_fract_y
_atom_site_fract_z
_atom_type_partial_charge
C1    C     C_R   0.375290 0.197705 0.995211 -0.137326
C2    C     C_R   0.710233 0.853035 0.981980 0.151408
C3    C     C_R   0.150296 0.684215 0.073978 0.152686
C4    C     C_R   0.210232 0.353035 0.981980 0.151408
C5    C     C_R   0.611996 0.816080 0.695650 0.034414
C6    C     C_R   0.693665 0.136623 0.678667 0.038796
C7    C     C_R   0.111996 0.316080 0.695650 0.034414
C8    C     C_R   0.193665 0.636623 0.678667 0.038797
C9    C     C_3   0.194602 0.128532 0.522374 -0.504197
C10   C     C_3   0.248334 0.780933 0.459000 -0.521913
C11   C     C_3   0.694601 0.628532 0.522374 -0.504197
C12   C     C_R   0.339503 0.825342 0.050987 -0.113933
C13   C     C_3   0.748334 0.280933 0.458999 -0.521912
C14   C     C_3   0.140684 0.177615 0.626881 -0.414758
C15   C     C_3   0.195263 0.735407 0.565129 -0.397639
C16   C     C_3   0.640684 0.677615 0.626881 -0.414757
C17   C     C_3   0.695263 0.235407 0.565129 -0.397640
C18   C     C_3   0.308647 0.234744 0.439154 0.572455
C19   C     C_3   0.366331 0.785480 0.479768 0.587233
C20   C     C_3   0.808647 0.734744 0.439154 0.572456
C21   C     C_3   0.866331 0.285480 0.479768 0.587231
C22   C     C_3   0.691187 0.737494 0.415489 -0.385682
C23   C     C_R   0.875290 0.697705 0.995211 -0.137326
C24   C     C_3   0.860700 0.175773 0.372600 -0.379321
C25   C     C_3   0.191187 0.237494 0.415489 -0.385681
C26   C     C_3   0.360700 0.675773 0.372600 -0.379319
C27   C     C_3   0.251235 0.183817 0.422445 0.252995
C28   C     C_3   0.343314 0.764622 0.401270 0.243925
C29   C     C_3   0.751235 0.683817 0.422445 0.252995
C30   C     C_3   0.843314 0.264622 0.401270 0.243926
C31   C     C_3   0.658738 0.766467 0.598548 0.342447
C32   C     C_3   0.752025 0.180930 0.577407 0.329536
C33   C     C_3   0.158738 0.266467 0.598548 0.342446
C34   C     C_R   0.839503 0.325342 0.050987 -0.113933
C35   C     C_3   0.252025 0.680930 0.577407 0.329536
C36   C     C_3   0.753451 0.783770 0.542345 -0.511606
C37   C     C_3   0.816075 0.231486 0.580809 -0.535609
C38   C     C_3   0.253451 0.283770 0.542346 -0.511607
C39   C     C_3   0.316075 0.731486 0.580809 -0.535611
C40   C     C_R   0.397492 0.800677 0.209519 -0.158846
C41   C     C_R   0.349524 0.171011 0.218860 -0.026724
C42   C     C_R   0.897492 0.300677 0.209519 -0.158846
C43   C     C_R   0.849524 0.671011 0.218860 -0.026725
C44   C     C_3   0.636742 0.786414 0.519536 -0.422671
C45   C     C_R   0.669139 0.917354 0.051003 -0.138942
C46   C     C_3   0.804170 0.126132 0.476565 -0.406806
C47   C     C_3   0.136742 0.286414 0.519536 -0.422670
C48   C     C_3   0.304170 0.626132 0.476565 -0.406807
C49   C     C_2   0.190435 0.740856 0.100663 -0.227961
C50   C     C_2   0.283818 0.314608 0.961346 -0.199527
C51   C     C_2   0.690434 0.240856 0.100663 -0.227961
C52   C     C_2   0.783818 0.814608 0.961346 -0.199527
C53   C     C_2   0.710468 0.313041 0.055875 -0.207324
C54   C     C_2   0.811240 0.747135 0.905516 -0.212086
C55   C     C_2   0.210468 0.813041 0.055875 -0.207325
C56   C     C_R   0.633237 0.105408 0.105491 -0.172318
C57   C     C_2   0.311240 0.247135 0.905516 -0.212086
C58   C     C_R   0.328906 0.913327 0.953356 -0.161240
C59   C     C_R   0.365940 0.111261 0.896271 -0.165845
C60   C     C_R   0.828906 0.413327 0.953356 -0.161241
C61   C     C_R   0.865940 0.611261 0.896271 -0.165845
C62   C     C_R   0.358456 0.078768 0.315134 -0.171428
C63   C     C_R   0.406071 0.892983 0.304576 -0.130905
C64   C     C_R   0.858456 0.578768 0.315134 -0.171428
C65   C     C_R   0.906071 0.392983 0.304576 -0.130905
C66   C     C_R   0.347802 0.187622 0.932691 0.163605
C67   C     C_R   0.169139 0.417354 0.051003 -0.138941
C68   C     C_R   0.286658 0.852169 0.027292 0.154512
C69   C     C_R   0.847802 0.687622 0.932691 0.163605
C70   C     C_R   0.786658 0.352169 0.027292 0.154512
C71   C     C_R   0.388458 0.814946 0.304305 0.067137
C72   C     C_R   0.308210 0.138688 0.322065 0.002756
C73   C     C_R   0.888458 0.314946 0.304305 0.067137
C74   C     C_R   0.808209 0.638688 0.322065 0.002756
C75   C     C_R   0.623142 0.200251 0.011899 -0.124340
C76   C     C_R   0.660028 0.821800 0.954930 -0.114359
C77   C     C_R   0.123141 0.700251 0.011899 -0.124340
C78   C     C_R   0.133238 0.605408 0.105491 -0.172318
C79   C     C_R   0.160028 0.321800 0.954930 -0.114358
C80   C     C_R   0.603255 0.801396 0.790102 -0.148357
C81   C     C_R   0.651290 0.170454 0.781208 -0.139899
C82   C     C_R   0.103255 0.301395 0.790102 -0.148357
C83   C     C_R   0.151290 0.670454 0.781208 -0.139899
C84   C     C_R   0.642874 0.076608 0.685562 -0.146867
C85   C     C_R   0.593276 0.893995 0.695897 -0.151246
C86   C     C_R   0.142874 0.576608 0.685562 -0.146868
C87   C     C_R   0.093276 0.393995 0.695897 -0.151246
C88   C     C_3   0.442976 0.290576 0.321261 -0.267965
C89   C     C_R   0.650296 0.184215 0.073978 0.152686
C90   C     C_3   0.484777 0.829952 0.464241 -0.308908
C91   C     C_3   0.942976 0.790576 0.321261 -0.267967
C92   C     C_3   0.984776 0.329953 0.464242 -0.308909
H1    H     H_    0.384209 0.252859 0.022092 0.085372
H2    H     H_    0.646648 0.200542 0.566668 0.168941
H3    H     H_    0.072333 0.164721 0.668986 0.171660
H4    H     H_    0.146649 0.700542 0.566667 0.168941
H5    H     H_    0.156716 0.159878 0.682089 0.150061
H6    H     H_    0.160955 0.777740 0.633979 0.161644
H7    H     H_    0.656717 0.659878 0.682089 0.150061
H8    H     H_    0.660956 0.277741 0.633979 0.161644
H9    H     H_    0.346135 0.193170 0.451500 -0.019790
H10   H     H_    0.344860 0.847029 0.508905 -0.030620
H11   H     H_    0.846135 0.693170 0.451500 -0.019790
H12   H     H_    0.329841 0.776511 0.101895 0.086260
H13   H     H_    0.844859 0.347029 0.508905 -0.030619
H14   H     H_    0.770201 0.769877 0.598129 0.122169
H15   H     H_    0.783798 0.269508 0.653899 0.117328
H16   H     H_    0.270200 0.269877 0.598129 0.122169
H17   H     H_    0.283797 0.769508 0.653899 0.117328
H18   H     H_    0.727079 0.778828 0.345709 0.174370
H19   H     H_    0.928508 0.162417 0.332647 0.194028
H20   H     H_    0.227079 0.278828 0.345709 0.174370
H21   H     H_    0.428507 0.662417 0.332646 0.194027
H22   H     H_    0.649914 0.701190 0.404268 0.169673
H23   H     H_    0.884209 0.752859 0.022092 0.085372
H24   H     H_    0.846533 0.158660 0.315293 0.143442
H25   H     H_    0.149914 0.201190 0.404268 0.169673
H26   H     H_    0.346531 0.658660 0.315294 0.143441
H27   H     H_    0.568540 0.774301 0.560054 0.160133
H28   H     H_    0.762113 0.089624 0.467314 0.154259
H29   H     H_    0.068539 0.274301 0.560054 0.160133
H30   H     H_    0.262114 0.589623 0.467314 0.154258
H31   H     H_    0.649135 0.849429 0.495430 0.152717
H32   H     H_    0.843761 0.085468 0.485381 0.164518
H33   H     H_    0.149135 0.349429 0.495430 0.152717
H34   H     H_    0.829841 0.276511 0.101895 0.086260
H35   H     H_    0.343761 0.585469 0.485381 0.164519
H36   H     H_    0.395411 0.744301 0.178797 0.086467
H37   H     H_    0.331804 0.222212 0.195700 0.092337
H38   H     H_    0.895411 0.244301 0.178797 0.086467
H39   H     H_    0.831804 0.722212 0.195700 0.092337
H40   H     H_    0.766711 0.847658 0.522508 0.192291
H41   H     H_    0.859457 0.192307 0.584291 0.191703
H42   H     H_    0.266711 0.347658 0.522508 0.192291
H43   H     H_    0.359457 0.692307 0.584292 0.191704
H44   H     H_    0.216980 0.717577 0.139796 0.126754
H45   H     H_    0.152766 0.092404 0.511990 0.190998
H46   H     H_    0.303446 0.333805 0.010400 0.124394
H47   H     H_    0.716980 0.217577 0.139796 0.126754
H48   H     H_    0.803446 0.833805 0.010400 0.124394
H49   H     H_    0.681991 0.337376 0.019772 0.122972
H50   H     H_    0.793876 0.729048 0.853669 0.122331
H51   H     H_    0.181991 0.837376 0.019772 0.122972
H52   H     H_    0.293876 0.229048 0.853669 0.122331
H53   H     H_    0.307511 0.947553 0.914854 0.096575
H54   H     H_    0.362329 0.085468 0.834822 0.087621
H55   H     H_    0.807511 0.447553 0.914854 0.096575
H56   H     H_    0.229896 0.763151 0.406026 0.189995
H57   H     H_    0.862329 0.585468 0.834822 0.087621
H58   H     H_    0.349721 0.044394 0.380065 0.090008
H59   H     H_    0.411632 0.923564 0.361503 0.081783
H60   H     H_    0.849721 0.544394 0.380065 0.090008
H61   H     H_    0.911632 0.423564 0.361503 0.081783
H62   H     H_    0.616274 0.256778 0.986056 0.081370
H63   H     H_    0.670436 0.770421 0.907244 0.085375
H64   H     H_    0.116274 0.756778 0.986056 0.081370
H65   H     H_    0.170436 0.270421 0.907243 0.085374
H66   H     H_    0.607100 0.745310 0.819843 0.084337
H67   H     H_    0.652766 0.592404 0.511991 0.190998
H68   H     H_    0.669285 0.221682 0.804509 0.095475
H69   H     H_    0.107100 0.245310 0.819843 0.084337
H70   H     H_    0.169285 0.721682 0.804509 0.095475
H71   H     H_    0.652689 0.041430 0.620672 0.091678
H72   H     H_    0.585962 0.923756 0.640014 0.082447
H73   H     H_    0.152689 0.541430 0.620672 0.091678
H74   H     H_    0.085962 0.423756 0.640014 0.082447
H75   H     H_    0.690149 0.951293 0.090254 0.094395
H76   H     H_    0.637266 0.078245 0.165828 0.089370
H77   H     H_    0.190149 0.451293 0.090254 0.094395
H78   H     H_    0.729896 0.263150 0.406025 0.189995
H79   H     H_    0.137267 0.578245 0.165828 0.089370
H80   H     H_    0.233153 0.087268 0.531973 0.152283
H81   H     H_    0.234536 0.844910 0.476219 0.166218
H82   H     H_    0.733153 0.587268 0.531973 0.152283
H83   H     H_    0.734536 0.344910 0.476218 0.166218
H84   H     H_    0.475711 0.232943 0.290989 0.150765
H85   H     H_    0.441123 0.310775 0.391495 0.134209
H86   H     H_    0.480320 0.334123 0.254712 0.176916
H87   H     H_    0.452970 0.820696 0.552433 0.138697
H88   H     H_    0.476709 0.891768 0.448507 0.127662
H89   H     H_    0.572333 0.664721 0.668986 0.171660
H90   H     H_    0.553553 0.820393 0.419946 0.183557
H91   H     H_    0.975711 0.732943 0.290989 0.150765
H92   H     H_    0.941123 0.810775 0.391495 0.134209
H93   H     H_    0.980320 0.834123 0.254712 0.176916
H94   H     H_    0.952969 0.320697 0.552434 0.138697
H95   H     H_    0.976708 0.391769 0.448509 0.127663
H96   H     H_    0.053552 0.320395 0.419947 0.183558
N1    N     N_R   0.408680 0.130160 0.995800 -0.046402
N2    N     N_R   0.403730 0.078230 0.935950 -0.038430
N3    N     N_R   0.903730 0.421770 0.935950 -0.040280
N4    N     N_R   0.903730 0.578230 0.935950 -0.038430
N5    N     N_R   0.426630 0.075970 0.212960 -0.039244
N6    N     N_R   0.426630 0.924030 0.212960 -0.035917
N7    N     N_R   0.926630 0.575970 0.212960 -0.039244
N8    N     N_R   0.926630 0.424030 0.212960 -0.035917
N9    N     N_R   0.591320 0.134600 0.004200 -0.044089
N10   N     N_R   0.591320 0.865400 0.004200 -0.045280
N11   N     N_R   0.091320 0.634600 0.004200 -0.044089
N12   N     N_R   0.408680 0.869840 0.995800 -0.044811
N13   N     N_R   0.091320 0.365400 0.004200 -0.045280
N14   N     N_R   0.578320 0.867660 0.846880 -0.034950
N15   N     N_R   0.578320 0.132340 0.846880 -0.039169
N16   N     N_R   0.078320 0.367660 0.846880 -0.034950
N17   N     N_R   0.078320 0.632340 0.846880 -0.039168
N18   N     N_R   0.573370 0.074390 0.787040 -0.037372
N19   N     N_R   0.573370 0.925610 0.787040 -0.032125
N20   N     N_R   0.073370 0.574390 0.787040 -0.037372
N21   N     N_R   0.073370 0.425610 0.787040 -0.032125
N22   N     N_R   0.596270 0.927870 0.064040 -0.038423
N23   N     N_R   0.908680 0.630160 0.995800 -0.046402
N24   N     N_R   0.596270 0.072130 0.064040 -0.037815
N25   N     N_R   0.096270 0.427870 0.064040 -0.038423
N26   N     N_R   0.096270 0.572130 0.064040 -0.037815
N27   N     N_R   0.908680 0.369840 0.995800 -0.044811
N28   N     N_R   0.421680 0.867580 0.153120 -0.036961
N29   N     N_R   0.421680 0.132420 0.153120 -0.047134
N30   N     N_R   0.921680 0.367580 0.153120 -0.036961
N31   N     N_R   0.921680 0.632420 0.153120 -0.047133
N32   N     N_R   0.403730 0.921770 0.935950 -0.040280
Ni1   Ni    Ni4+2 0.500000 0.131190 0.000000 0.208068
Ni2   Ni    Ni4+2 0.500000 0.868810 0.000000 0.210157
Ni3   Ni    Ni4+2 1.000000 0.631190 0.000000 0.208068
Ni4   Ni    Ni4+2 0.000000 0.368810 0.000000 0.210157
Ni5   Ni    Ni4+2 0.488650 0.000000 0.862740 0.203549
Ni6   Ni    Ni4+2 0.988650 0.500000 0.862740 0.203549
Ni7   Ni    Ni4+2 0.511350 0.000000 0.137260 0.210995
Ni8   Ni    Ni4+2 0.011350 0.500000 0.137260 0.210995
O1    O     O_3   0.360867 0.285811 0.348748 -0.625692
O2    O     O_3   0.454705 0.776207 0.424565 -0.613176
O3    O     O_3   0.860867 0.785811 0.348748 -0.625692
O4    O     O_3   0.954704 0.276208 0.424565 -0.613176

loop_
_geom_bond_atom_site_label_1
_geom_bond_atom_site_label_2
_ccdc_geom_bond_type
C6    C32   S    
N8    Ni8   S    
C85   H72   S    
C40   C71   A    
C91   H91   S    
N2    Ni5   S    
C7    C33   S    
N22   Ni7   S    
N14   Ni2   S    
C57   C66   S    
N27   Ni4   S    
C78   N26   A    
C14   C33   S    
N7    N31   A    
C55   C68   S    
C3    C49   S    
C92   H95   S    
C11   H67   S    
C88   H85   S    
C81   N15   A    
C20   H11   S    
C39   H43   S    
C67   H77   S    
C16   C31   S    
N5    N29   A    
C12   C68   A    
C85   N19   A    
C1    N1    A    
N7    Ni8   S    
C64   H60   S    
C19   C39   S    
C22   C29   S    
C37   H15   S    
N9    Ni1   S    
C34   N27   A    
C36   H40   S    
C59   C66   A    
C48   H30   S    
C19   H10   S    
N1    Ni1   S    
C47   H29   S    
C87   H74   S    
C81   H68   S    
C92   O4    S    
C61   C69   A    
N11   N26   A    
C64   N7    A    
C65   C73   A    
N15   Ni1   S    
C21   C37   S    
C59   N2    A    
C23   C69   A    
C65   H61   S    
C25   H20   S    
N20   Ni6   S    
C86   H73   S    
N24   Ni7   S    
C58   N32   A    
N19   Ni5   S    
C80   N14   A    
C90   H90   S    
C79   N13   A    
N16   N21   A    
C61   N4    A    
C40   N28   A    
C60   H55   S    
N26   Ni8   S    
C34   C70   A    
C8    C86   A    
C26   C48   S    
C65   N8    A    
N3    N27   A    
C43   C74   A    
N4    Ni6   S    
C88   O1    S    
C91   H93   S    
C6    C81   A    
C91   H92   S    
N16   Ni4   S    
C87   N21   A    
C46   H32   S    
C63   H59   S    
C24   H19   S    
C9    H45   S    
C35   C48   S    
C15   C35   S    
C17   H8    S    
C52   C54   D    
C47   H33   S    
C39   H17   S    
C24   C30   S    
C20   C29   S    
C75   N9    A    
C2    C45   A    
N29   Ni1   S    
C51   H47   S    
N15   N18   A    
C90   H88   S    
C58   H53   S    
C6    C84   A    
C31   C44   S    
C36   H14   S    
C13   C30   S    
C62   N5    A    
C45   N22   A    
C55   H51   S    
N5    Ni7   S    
C4    C79   A    
C92   H94   S    
C86   N20   A    
C15   H4    S    
C30   C73   S    
C16   H89   S    
C29   C74   S    
C44   H27   S    
C22   H18   S    
C49   C55   D    
C21   O4    S    
N31   Ni3   S    
N17   Ni3   S    
C91   O3    S    
C77   H64   S    
C51   C53   D    
C18   H9    S    
C20   C36   S    
N6    Ni7   S    
C35   C39   S    
C9    C14   S    
N4    N23   A    
C77   N11   A    
C11   C16   S    
C80   H66   S    
C60   C70   A    
C34   H34   S    
N23   Ni3   S    
N12   Ni2   S    
C56   H76   S    
N18   Ni5   S    
C92   H96   S    
C1    C66   A    
C12   N12   A    
C63   N6    A    
C46   H28   S    
C42   H38   S    
C12   H12   S    
C32   C37   S    
C5    C80   A    
N30   Ni4   S    
C19   C28   S    
C45   H75   S    
N13   N25   A    
C84   H71   S    
C2    C52   S    
C41   C72   A    
C58   C68   A    
C56   C89   A    
C54   H50   S    
C83   H70   S    
C63   C71   A    
C24   H24   S    
N3    Ni6   S    
N14   N19   A    
N12   N32   A    
C37   H41   S    
C67   N25   A    
C28   C71   S    
N11   Ni3   S    
N21   Ni6   S    
C15   H6    S    
C3    C77   A    
C14   H3    S    
C2    C76   A    
C9    C27   S    
C14   H5    S    
N17   N20   A    
C10   C28   S    
C13   H83   S    
C25   C47   S    
C90   H87   S    
C13   H78   S    
C11   H82   S    
C22   C44   S    
C62   H58   S    
C57   H52   S    
N10   Ni2   S    
C50   C57   D    
C32   C46   S    
C49   H44   S    
C43   N31   A    
C18   C27   S    
C26   H26   S    
C8    C83   A    
C53   C70   S    
C42   N30   A    
C18   O1    S    
C25   H25   S    
C79   H65   S    
C4    C67   A    
N8    N30   A    
C50   H46   S    
C16   H7    S    
C56   N24   A    
C82   H69   S    
C25   C27   S    
C21   C30   S    
C44   H31   S    
C76   H63   S    
C26   C28   S    
C33   C38   S    
C88   H84   S    
C13   C17   S    
C10   C15   S    
C24   C46   S    
C43   H39   S    
C18   C38   S    
C26   H21   S    
C5    C85   A    
C83   N17   A    
N25   Ni8   S    
N9    N24   A    
C51   C89   S    
C48   H35   S    
C41   H37   S    
C75   H62   S    
C54   C69   S    
C23   N23   A    
C10   H81   S    
C60   N3    A    
C33   C47   S    
C78   H79   S    
C42   C73   A    
N32   Ni5   S    
C53   H49   S    
C11   C29   S    
C38   H42   S    
C38   H16   S    
N1    N2    A    
N10   N22   A    
C19   O2    S    
N28   Ni2   S    
C62   C72   A    
C75   C89   A    
C23   H23   S    
C52   H48   S    
C59   H54   S    
C84   N18   A    
C22   H22   S    
C7    C82   A    
C7    C87   A    
C82   N16   A    
C1    H1    S    
C4    C50   S    
C20   O3    S    
C17   C32   S    
C64   C74   A    
C31   C36   S    
C90   O2    S    
C9    H80   S    
C76   N10   A    
C17   H2    S    
N13   Ni4   S    
C3    C78   A    
C61   H57   S    
C88   H86   S    
C8    C35   S    
C21   H13   S    
C27   C72   S    
N6    N28   A    
C10   H56   S    
C41   N29   A    
C5    C31   S    
C40   H36   S    
