data_mof_unit_46720.cif
_audit_creation_date              2013-03-05T16:31:37-0500
_audit_creation_method            fapswitch 2.2
_symmetry_space_group_name_H-M    P1
_symmetry_Int_Tables_number       1
_space_group_crystal_system       triclinic
_cell_length_a                    9.624916
_cell_length_b                    10.913465
_cell_length_c                    15.589375
_cell_angle_alpha                 88.629394
_cell_angle_beta                  72.887952
_cell_angle_gamma                 92.621429
_cell_volume                      1562.19872732

loop_
_atom_site_label
_atom_site_type_symbol
_atom_site_description
_atom_site_fract_x
_atom_site_fract_y
_atom_site_fract_z
_atom_type_partial_charge
O1    O     O_R   0.118810 0.319640 0.500000 -0.579907
O2    O     O_R   0.881230 0.319680 0.499990 -0.595168
C1    C     C_R   0.996717 0.262771 0.500186 0.820135
O3    O     O_R   0.055580 0.499970 0.629840 -0.600369
O4    O     O_R   0.818000 0.500010 0.629830 -0.565174
C2    C     C_R   0.917687 0.504174 0.671433 0.793132
Cu1   Cu    Cu3+1 0.140670 0.499980 0.500000 1.003017
Cu2   Cu    Cu3+1 0.859330 0.500020 0.500000 1.015966
O5    O     O_R   0.118770 0.680320 0.500010 -0.546404
O6    O     O_R   0.881190 0.680360 0.500000 -0.537213
O7    O     O_R   0.182000 0.499990 0.370170 -0.567088
O8    O     O_R   0.944420 0.500030 0.370160 -0.569324
C3    C     C_R   0.002337 0.737674 0.501648 0.831282
C4    C     C_R   0.083018 0.498544 0.327965 0.832176
C5    C     C_R   0.874668 0.527619 0.767360 -0.054625
C6    C     C_R   0.129766 0.495262 0.229306 -0.036247
C7    C     C_R   0.905195 0.658036 0.884455 -0.141073
C8    C     C_R   0.956764 0.615736 0.798153 -0.268522
C9    C     C_R   0.742575 0.477015 0.825353 0.239930
C10   C     C_R   0.675718 0.540639 0.904190 -0.026846
C11   C     C_R   0.764202 0.621445 0.938933 -0.018204
C12   C     C_R   0.524053 0.527717 0.948674 0.054004
C13   C     C_R   0.470076 0.563665 0.038373 0.019596
C14   C     C_R   0.562964 0.635447 0.074775 -0.221609
C15   C     C_R   0.707164 0.667757 0.025305 0.343290
C16   C     C_R   0.423525 0.489993 0.903254 -0.215038
C17   C     C_R   0.276826 0.466991 0.949122 -0.203746
C18   C     C_R   0.227135 0.480190 0.041803 0.151081
C19   C     C_R   0.323430 0.528988 0.087499 0.119530
C20   C     C_R   0.083000 0.443412 0.089646 -0.121124
C21   C     C_R   0.035283 0.449530 0.182924 -0.052225
C22   C     C_R   0.272022 0.535030 0.181375 -0.205623
H1    H     H_    0.343038 0.564943 0.219008 0.144781
H2    H     H_    0.926032 0.415009 0.219062 0.192727
H3    H     H_    0.203269 0.434842 0.912492 0.147749
H4    H     H_    0.972718 0.726273 0.904869 0.204052
H5    H     H_    0.059683 0.654457 0.754448 0.197670
H6    H     H_    0.523616 0.673319 0.140191 0.167313
H7    H     H_    0.458225 0.479900 0.831426 0.190053
H8    H     H_    0.008552 0.406482 0.055191 0.151871
C23   C     C_R   0.119151 0.072818 0.455472 -0.033410
C24   C     C_R   0.991700 0.129895 0.495792 -0.117406
C25   C     C_R   0.862981 0.055215 0.532544 0.205400
C26   C     C_R   0.871952 0.927484 0.539567 -0.153156
H9    H     H_    0.774145 0.872078 0.573069 0.208308
C27   C     C_R   0.004997 0.871566 0.504599 -0.105867
C28   C     C_R   0.127375 0.947216 0.458369 -0.015577
C29   C     C_3   0.285923 0.963289 0.457194 0.391845
C30   C     C_3   0.272561 0.103428 0.452485 0.077283
H10   H     H_    0.281817 0.153879 0.511722 0.132627
C31   C     C_R   0.610752 0.532849 0.424304 0.101414
N1    N     N_R   0.648210 0.500930 0.499430 -0.226463
C32   C     C_R   0.536284 0.445164 0.569968 0.340294
C33   C     C_R   0.387423 0.453406 0.571052 -0.029647
H11   H     H_    0.299072 0.418577 0.627749 0.146239
N2    N     N_R   0.352300 0.500890 0.499430 -0.186518
C34   C     C_R   0.464406 0.528359 0.423409 0.221858
C35   C     C_3   0.485185 0.643938 0.368778 -0.548395
C36   C     C_3   0.642620 0.652018 0.370567 0.529726
H12   H     H_    0.472310 0.630745 0.301680 0.187793
H13   H     H_    0.414940 0.711117 0.408583 0.268001
N3    N     N_R   0.794355 0.745316 0.065021 0.146566
O9    O     O_R   0.736395 0.835561 0.113689 -0.322541
O10   O     O_R   0.923004 0.714003 0.065470 -0.312307
N4    N     N_2   0.725255 0.107012 0.563849 -0.463750
H14   H     H_    0.657491 0.064131 0.621743 0.266685
C37   C     C_3   0.653324 0.120047 0.494925 -0.429164
H15   H     H_    0.616276 0.028614 0.477980 0.272763
H16   H     H_    0.727434 0.167009 0.433268 0.244097
H17   H     H_    0.557255 0.175768 0.519325 0.213281
N5    N     N_R   0.310631 0.918376 0.541226 0.121353
O11   O     O_R   0.305285 0.801420 0.560104 -0.309030
O12   O     O_R   0.340870 0.993724 0.597505 -0.422490
N6    N     N_2   0.391069 0.918510 0.377829 -0.430123
H18   H     H_    0.496288 0.954122 0.365896 0.315307
C38   C     C_3   0.348434 0.893351 0.297778 -0.590332
H19   H     H_    0.442571 0.860080 0.245175 0.246021
H20   H     H_    0.312447 0.977361 0.271141 0.275170
H21   H     H_    0.259530 0.820276 0.312925 0.215963
N7    N     N_R   0.356979 0.166330 0.367580 0.143597
O13   O     O_R   0.292209 0.213645 0.313105 -0.344938
O14   O     O_R   0.495067 0.193156 0.353533 -0.380235
N8    N     N_2   0.568736 0.374290 0.639522 -0.395614
H22   H     H_    0.665143 0.332236 0.618337 0.323615
C39   C     C_3   0.455558 0.292502 0.698608 -0.737677
H23   H     H_    0.502236 0.235051 0.741684 0.257464
H24   H     H_    0.406509 0.229758 0.659138 0.244647
H25   H     H_    0.369802 0.345793 0.743266 0.223373
N9    N     N_R   0.749009 0.640566 0.281930 0.140460
O15   O     O_R   0.877014 0.697295 0.261937 -0.267800
O16   O     O_R   0.723146 0.561159 0.226750 -0.393744
N10   N     N_R   0.673071 0.758074 0.419733 0.119283
O17   O     O_R   0.602767 0.765530 0.504456 -0.359425
O18   O     O_R   0.743231 0.856131 0.376072 -0.335469
N11   N     N_2   0.686641 0.357350 0.810748 -0.429384
H26   H     H_    0.597971 0.323193 0.861900 0.266459
C40   C     C_3   0.790742 0.262577 0.785610 -0.676560
H27   H     H_    0.858564 0.258935 0.832268 0.234068
H28   H     H_    0.861036 0.277341 0.715454 0.216429
H29   H     H_    0.731717 0.171741 0.789157 0.225810

loop_
_geom_bond_atom_site_label_1
_geom_bond_atom_site_label_2
_geom_bond_distance
_ccdc_geom_bond_type
C5    C8    1.398358 A    
C1    C24   1.452661 S    
C23   C24   1.386644 A    
N11   H26   1.029271 S    
C38   H21   1.110695 S    
C40   H27   1.112284 S    
Cu1   Cu2   2.707893 S    
C32   C33   1.434870 A    
C26   H9    1.080786 S    
C6    C21   1.400579 A    
C5    C9    1.405074 A    
C16   C17   1.390248 A    
N6    C38   1.452109 S    
O4    C2    1.306494 A    
C13   C19   1.422356 A    
C18   C19   1.418339 A    
C8    H5    1.083885 S    
C38   H20   1.108364 S    
C19   C22   1.404417 A    
C3    C27   1.462338 S    
O7    C4    1.307201 A    
C16   H7    1.080143 S    
C35   H12   1.100950 S    
N2    C34   1.363639 A    
C36   N9    1.469973 S    
O5    C3    1.302462 A    
N3    O10   1.301449 A    
C2    C5    1.461809 S    
C27   C28   1.404084 A    
C28   C29   1.522731 S    
N4    C37   1.446898 S    
C14   H6    1.077704 S    
C13   C14   1.410958 A    
C31   C34   1.411356 A    
C7    H4    1.080286 S    
N9    O16   1.301883 A    
Cu2   N1    2.035123 S    
C25   N4    1.419850 S    
C15   N3    1.438725 S    
C35   H13   1.095407 S    
Cu1   N2    2.033893 S    
O3    Cu1   1.947371 S    
C23   C30   1.485824 S    
C40   H28   1.107261 S    
C26   C27   1.409250 A    
C39   H24   1.109908 S    
C33   N2    1.356449 A    
N6    H18   1.030020 S    
C37   H15   1.108215 S    
C29   N6    1.459825 S    
C14   C15   1.399192 A    
O3    C2    1.297911 A    
N5    O12   1.301359 A    
C17   H3    1.084067 S    
C35   C36   1.522310 S    
C39   H23   1.108635 S    
C7    C11   1.406513 A    
C31   N1    1.365077 A    
O1    C1    1.302816 A    
Cu1   O7    1.944448 S    
C25   C26   1.404247 A    
N3    O9    1.301441 A    
N8    H22   1.023033 S    
Cu2   O8    1.947371 S    
N10   O18   1.301177 A    
C7    C8    1.388254 A    
C23   C28   1.377070 A    
C21   H2    1.081684 S    
C20   H8    1.083903 S    
C38   H19   1.110117 S    
N7    O14   1.300071 A    
C29   C30   1.542460 S    
N8    C39   1.453638 S    
C10   C12   1.418609 A    
N4    H14   1.031717 S    
C4    C6    1.471771 S    
C31   C36   1.499158 S    
C24   C25   1.412445 A    
C29   N5    1.475197 S    
C40   H29   1.111726 S    
C9    N11   1.438487 S    
N1    C32   1.396789 A    
C39   H25   1.108737 S    
Cu1   O5    1.988951 S    
C11   C15   1.411663 A    
C33   H11   1.077447 S    
O1    Cu1   1.969757 S    
O2    Cu2   1.988950 S    
O8    C4    1.303303 A    
N7    O13   1.302502 A    
O6    C3    1.305072 A    
O4    Cu2   1.944445 S    
N11   C40   1.452719 S    
C6    C22   1.396231 A    
C30   N7    1.468336 S    
C32   N8    1.432764 S    
C37   H17   1.106788 S    
C22   H1    1.068967 S    
C9    C10   1.422320 A    
C18   C20   1.402775 A    
O2    C1    1.298598 A    
N5    O11   1.298288 A    
C34   C35   1.477050 S    
C20   C21   1.394401 A    
N10   O17   1.301221 A    
C36   N10   1.468551 S    
C10   C11   1.421962 A    
Cu2   O6    1.969757 S    
C30   H10   1.110021 S    
C12   C16   1.409881 A    
C17   C18   1.395223 A    
C12   C13   1.412999 A    
C37   H16   1.111263 S    
N9    O15   1.301302 A    
