data_mof_unit_19311.cif
_audit_creation_date              2012-12-11T16:45:50-0500
_audit_creation_method            fapswitch 2.2
_symmetry_space_group_name_H-M    P1
_symmetry_Int_Tables_number       1
_space_group_crystal_system       triclinic
_cell_length_a                    19.947905
_cell_length_b                    17.17976
_cell_length_c                    15.299314
_cell_angle_alpha                 89.999978
_cell_angle_beta                  52.454647
_cell_angle_gamma                 90.000027
_cell_volume                      4157.08587805

loop_
_atom_site_label
_atom_site_type_symbol
_atom_type_description
_atom_site_fract_x
_atom_site_fract_y
_atom_site_fract_z
_atom_type_partial_charge
C1    C     C_R   0.842049 0.674889 0.043481 -0.115973
C2    C     C_R   0.154179 0.312954 0.065745 0.140913
C3    C     C_R   0.345821 0.812954 0.934254 0.140912
C4    C     C_R   0.654179 0.812954 0.065745 0.140912
C5    C     C_R   0.887647 0.685883 0.304842 -0.010786
C6    C     C_R   0.112353 0.685883 0.695158 -0.010786
C7    C     C_R   0.387647 0.185883 0.304842 -0.010786
C8    C     C_R   0.612354 0.185883 0.695158 -0.010787
C9    C     C_R   0.856900 0.725422 0.480985 0.230959
C10   C     C_R   0.143100 0.725422 0.519014 0.230957
C11   C     C_R   0.356900 0.225422 0.480985 0.230965
C12   C     C_R   0.157951 0.674889 0.956519 -0.115973
C13   C     C_R   0.643100 0.225423 0.519015 0.230967
C14   C     C_R   0.868603 0.746282 0.384365 0.006766
C15   C     C_R   0.131398 0.746282 0.615635 0.006767
C16   C     C_R   0.368602 0.246282 0.384365 0.006765
C17   C     C_R   0.631399 0.246282 0.615635 0.006765
C18   C     C_R   0.342485 0.320365 0.377315 -0.179068
C19   C     C_R   0.657516 0.320364 0.622684 -0.179068
C20   C     C_R   0.842486 0.820365 0.377315 -0.179068
C21   C     C_R   0.157515 0.820365 0.622684 -0.179067
C22   C     C_R   0.293025 0.366078 0.471057 -0.190934
C23   C     C_R   0.342049 0.174889 0.043481 -0.115973
C24   C     C_R   0.706976 0.366079 0.528942 -0.190934
C25   C     C_R   0.793025 0.866078 0.471057 -0.190933
C26   C     C_R   0.206975 0.866079 0.528942 -0.190934
C27   C     C_R   0.268677 0.337649 0.572785 0.035227
C28   C     C_R   0.731322 0.337650 0.427215 0.035226
C29   C     C_R   0.768677 0.837649 0.572785 0.035228
C30   C     C_R   0.231321 0.837650 0.427215 0.035228
C31   C     C_R   0.806252 0.770733 0.575550 0.148389
C32   C     C_R   0.193747 0.770734 0.424450 0.148388
C33   C     C_R   0.306252 0.270734 0.575550 0.148387
C34   C     C_R   0.657951 0.174889 0.956519 -0.115973
C35   C     C_R   0.693746 0.270735 0.424450 0.148388
C36   C     C_3   0.869658 0.771333 0.596810 -0.532364
C37   C     C_3   0.130341 0.771332 0.403190 -0.532365
C38   C     C_3   0.369659 0.271333 0.596810 -0.532362
C39   C     C_3   0.630339 0.271334 0.403192 -0.532364
C40   C     C_R   0.849707 0.329943 0.221615 -0.125270
C41   C     C_R   0.150292 0.329943 0.778385 -0.125270
C42   C     C_R   0.349707 0.829943 0.221615 -0.125271
C43   C     C_R   0.650292 0.829943 0.778385 -0.125271
C44   C     C_3   0.925459 0.724354 0.493474 -0.481056
C45   C     C_R   0.808348 0.364523 0.324726 0.054330
C46   C     C_3   0.074542 0.724352 0.506526 -0.481055
C47   C     C_3   0.425459 0.224354 0.493473 -0.481059
C48   C     C_3   0.574540 0.224354 0.506528 -0.481060
C49   C     C_2   0.779102 0.187856 0.965179 -0.191663
C50   C     C_2   0.220898 0.187856 0.034821 -0.191663
C51   C     C_2   0.279102 0.687856 0.965179 -0.191662
C52   C     C_2   0.720898 0.687856 0.034821 -0.191663
C53   C     C_2   0.304589 0.756173 0.911626 -0.189781
C54   C     C_2   0.695411 0.756173 0.088374 -0.189780
C55   C     C_2   0.804589 0.256172 0.911626 -0.189782
C56   C     C_R   0.191651 0.364522 0.675273 0.054331
C57   C     C_2   0.195410 0.256173 0.088374 -0.189782
C58   C     C_R   0.864661 0.389379 0.898058 -0.141466
C59   C     C_R   0.135339 0.389379 0.101942 -0.141465
C60   C     C_R   0.364661 0.889379 0.898058 -0.141461
C61   C     C_R   0.635339 0.889379 0.101942 -0.141462
C62   C     C_R   0.907278 0.608105 0.304073 -0.047315
C63   C     C_R   0.092722 0.608105 0.695927 -0.047309
C64   C     C_R   0.407278 0.108105 0.304073 -0.047315
C65   C     C_R   0.592722 0.108104 0.695927 -0.047313
C66   C     C_R   0.875071 0.299787 0.994132 -0.131851
C67   C     C_R   0.308348 0.864523 0.324726 0.054327
C68   C     C_R   0.124929 0.299787 0.005868 -0.131851
C69   C     C_R   0.375071 0.799787 0.994132 -0.131851
C70   C     C_R   0.624929 0.799787 0.005868 -0.131851
C71   C     C_R   0.896975 0.697877 0.208612 -0.127707
C72   C     C_R   0.103026 0.697877 0.791388 -0.127708
C73   C     C_R   0.396975 0.197877 0.208612 -0.127707
C74   C     C_R   0.603026 0.197877 0.791388 -0.127708
C75   C     C_R   0.858824 0.423443 0.315727 -0.125140
C76   C     C_R   0.141175 0.423442 0.684273 -0.125145
C77   C     C_R   0.358824 0.923443 0.315727 -0.125136
C78   C     C_R   0.691651 0.864522 0.675273 0.054327
C79   C     C_R   0.641175 0.923442 0.684273 -0.125135
C80   C     C_R   0.832215 0.582388 0.947585 -0.091651
C81   C     C_R   0.167785 0.582388 0.052415 -0.091650
C82   C     C_R   0.332215 0.082388 0.947585 -0.091657
C83   C     C_R   0.667785 0.082388 0.052415 -0.091654
C84   C     C_R   0.792179 0.646985 0.015766 0.118578
C85   C     C_R   0.207821 0.646985 0.984234 0.118577
C86   C     C_R   0.292179 0.146985 0.015765 0.118579
C87   C     C_R   0.707821 0.146985 0.984234 0.118578
C88   C     C_2   0.930970 0.572150 0.369112 0.916578
C89   C     C_R   0.845821 0.312954 0.934254 0.140914
C90   C     C_2   0.069031 0.572150 0.630887 0.916573
C91   C     C_2   0.430969 0.072149 0.369113 0.916573
C92   C     C_2   0.569032 0.072149 0.630886 0.916573
H1    H     H_    0.833297 0.726231 0.089945 0.093002
H2    H     H_    0.104882 0.830368 0.409164 0.206099
H3    H     H_    0.395115 0.330369 0.590836 0.206099
H4    H     H_    0.604882 0.330370 0.409167 0.206099
H5    H     H_    0.847316 0.738543 0.672815 0.203934
H6    H     H_    0.152684 0.738543 0.327184 0.203934
H7    H     H_    0.347316 0.238544 0.672814 0.203932
H8    H     H_    0.652681 0.238545 0.327187 0.203933
H9    H     H_    0.982521 0.756228 0.425468 0.208474
H10   H     H_    0.017478 0.756224 0.574532 0.208475
H11   H     H_    0.482522 0.256228 0.425467 0.208474
H12   H     H_    0.166703 0.726231 0.910054 0.093002
H13   H     H_    0.517477 0.256227 0.574535 0.208473
H14   H     H_    0.937742 0.665465 0.510213 0.225498
H15   H     H_    0.062261 0.665462 0.489784 0.225499
H16   H     H_    0.437742 0.165465 0.510213 0.225496
H17   H     H_    0.562258 0.165465 0.489788 0.225496
H18   H     H_    0.800542 0.167372 0.011334 0.125298
H19   H     H_    0.199457 0.167372 0.988666 0.125298
H20   H     H_    0.300543 0.667372 0.011334 0.125298
H21   H     H_    0.699457 0.667372 0.988666 0.125298
H22   H     H_    0.284613 0.775944 0.863512 0.127317
H23   H     H_    0.333297 0.226231 0.089945 0.093001
H24   H     H_    0.715387 0.775944 0.136488 0.127317
H25   H     H_    0.784613 0.275944 0.863512 0.127318
H26   H     H_    0.215387 0.275944 0.136488 0.127318
H27   H     H_    0.827732 0.281476 0.200373 0.104046
H28   H     H_    0.172267 0.281475 0.799628 0.104045
H29   H     H_    0.327732 0.781476 0.200372 0.104046
H30   H     H_    0.672267 0.781475 0.799628 0.104046
H31   H     H_    0.859584 0.415987 0.838233 0.122797
H32   H     H_    0.140416 0.415987 0.161767 0.122797
H33   H     H_    0.359584 0.915987 0.838233 0.122798
H34   H     H_    0.666703 0.226231 0.910054 0.093002
H35   H     H_    0.640416 0.915987 0.161767 0.122798
H36   H     H_    0.882419 0.244631 0.021299 0.088920
H37   H     H_    0.117581 0.244632 0.978700 0.088920
H38   H     H_    0.382419 0.744631 0.021299 0.088920
H39   H     H_    0.617581 0.744632 0.978700 0.088920
H40   H     H_    0.899632 0.753215 0.173195 0.091611
H41   H     H_    0.100369 0.753215 0.826805 0.091611
H42   H     H_    0.399632 0.253215 0.173195 0.091611
H43   H     H_    0.600369 0.253215 0.826805 0.091611
H44   H     H_    0.845091 0.461475 0.379880 0.127919
H45   H     H_    0.267965 0.419587 0.464491 0.150111
H46   H     H_    0.154909 0.461473 0.620119 0.127922
H47   H     H_    0.345091 0.961474 0.379881 0.127917
H48   H     H_    0.654909 0.961473 0.620119 0.127917
H49   H     H_    0.812366 0.549125 0.907005 0.111447
H50   H     H_    0.187634 0.549125 0.092995 0.111447
H51   H     H_    0.312366 0.049125 0.907005 0.111447
H52   H     H_    0.687634 0.049125 0.092995 0.111447
H53   H     H_    0.352669 0.340528 0.303200 0.127131
H54   H     H_    0.647334 0.340527 0.696798 0.127132
H55   H     H_    0.852669 0.840528 0.303200 0.127131
H56   H     H_    0.732035 0.419587 0.535508 0.150110
H57   H     H_    0.147332 0.840528 0.696799 0.127131
H58   H     H_    0.892035 0.529423 0.516098 0.325268
H59   H     H_    0.107970 0.529420 0.483901 0.325267
H60   H     H_    0.392032 0.029424 0.516101 0.325268
H61   H     H_    0.607970 0.029424 0.483898 0.325267
H62   H     H_    0.767965 0.919587 0.464491 0.150109
H63   H     H_    0.232034 0.919588 0.535509 0.150109
H64   H     H_    0.895115 0.830369 0.590837 0.206099
N1    N     N_R   0.908660 0.628630 0.995840 -0.051698
N2    N     N_R   0.096530 0.421430 0.063580 -0.039587
N3    N     N_R   0.403470 0.921430 0.936420 -0.039587
N4    N     N_R   0.596530 0.921430 0.063580 -0.039587
N5    N     N_R   0.927500 0.575670 0.211370 -0.067589
N6    N     N_R   0.072500 0.575670 0.788630 -0.067589
N7    N     N_R   0.427500 0.075670 0.211370 -0.067588
N8    N     N_R   0.572500 0.075670 0.788630 -0.067588
N9    N     N_R   0.908660 0.365680 0.995820 -0.049154
N10   N     N_R   0.091340 0.365680 0.004180 -0.049154
N11   N     N_R   0.408660 0.865680 0.995820 -0.049154
N12   N     N_R   0.091340 0.628630 0.004160 -0.051698
N13   N     N_R   0.591340 0.865680 0.004180 -0.049154
N14   N     N_R   0.922310 0.631420 0.151980 -0.050248
N15   N     N_R   0.077690 0.631420 0.848020 -0.050248
N16   N     N_R   0.422310 0.131420 0.151980 -0.050248
N17   N     N_R   0.577690 0.131420 0.848020 -0.050248
N18   N     N_R   0.927500 0.426330 0.211360 -0.041075
N19   N     N_R   0.072500 0.426330 0.788640 -0.041075
N20   N     N_R   0.427500 0.926330 0.211360 -0.041074
N21   N     N_R   0.572500 0.926330 0.788640 -0.041074
N22   N     N_R   0.903470 0.570760 0.936440 -0.034071
N23   N     N_R   0.408660 0.128630 0.995840 -0.051698
N24   N     N_R   0.096530 0.570760 0.063560 -0.034071
N25   N     N_R   0.403470 0.070760 0.936440 -0.034071
N26   N     N_R   0.596530 0.070760 0.063560 -0.034071
N27   N     N_R   0.591340 0.128630 0.004160 -0.051698
N28   N     N_R   0.922310 0.368460 0.151950 -0.045622
N29   N     N_R   0.077690 0.368460 0.848050 -0.045621
N30   N     N_R   0.422310 0.868460 0.151950 -0.045622
N31   N     N_R   0.577690 0.868460 0.848050 -0.045622
N32   N     N_R   0.903470 0.421430 0.936420 -0.039588
Ni1   Ni    Ni4+2 0.000000 0.630300 0.000000 0.199834
Ni2   Ni    Ni4+2 0.500000 0.130300 0.000000 0.199833
Ni3   Ni    Ni4+2 0.000000 0.369700 0.000000 0.209103
Ni4   Ni    Ni4+2 0.500000 0.869700 0.000000 0.209103
Ni5   Ni    Ni4+2 0.988090 0.497570 0.863760 0.263923
Ni6   Ni    Ni4+2 0.011910 0.497570 0.136240 0.263924
Ni7   Ni    Ni4+2 0.488090 0.997570 0.863760 0.263926
Ni8   Ni    Ni4+2 0.511910 0.997570 0.136240 0.263926
O1    O     O_2   0.003808 0.550977 0.323315 -0.664675
O2    O     O_R   0.868821 0.557484 0.481408 -0.833257
O3    O     O_2   0.996193 0.550979 0.676682 -0.664674
O4    O     O_R   0.131182 0.557483 0.518591 -0.833259
O5    O     O_2   0.503805 0.050973 0.323316 -0.664674
O6    O     O_R   0.368819 0.057486 0.481410 -0.833256
O7    O     O_2   0.496196 0.050972 0.676682 -0.664674
O8    O     O_R   0.631182 0.057487 0.518589 -0.833256

loop_
_geom_bond_atom_site_label_1
_geom_bond_atom_site_label_2
_ccdc_geom_bond_type
C88   O1    D    
C63   N6    A    
C83   C87   A    
C21   C26   A    
C51   H20   S    
C56   C76   A    
C65   C92   S    
C49   C87   S    
C11   C47   S    
C67   C77   A    
C60   N3    A    
C80   C84   A    
C18   H53   S    
C51   C85   S    
C4    C70   A    
C39   H8    S    
N8    Ni7   S    
C7    C73   A    
C52   H21   S    
C27   C33   A    
C43   C78   A    
C6    C72   A    
N11   Ni4   S    
C46   H10   S    
C22   H45   S    
N2    N10   A    
C58   H31   S    
N2    Ni6   S    
C12   C85   A    
C60   H33   S    
C3    C69   A    
C70   N13   A    
C12   H12   S    
C2    C68   A    
C10   C15   A    
C83   H52   S    
C59   N2    A    
C62   N5    A    
C90   O4    S    
C20   C25   A    
N17   Ni2   S    
N15   Ni1   S    
N10   Ni3   S    
C88   O2    S    
C52   C84   S    
N26   N27   A    
C70   H39   S    
C17   C19   A    
C71   H40   S    
C77   H47   S    
C29   C78   S    
C64   C91   S    
C28   C35   A    
C66   H36   S    
C69   H38   S    
C23   C86   A    
C54   H24   S    
C38   H3    S    
C10   C46   S    
N4    N13   A    
C79   N21   A    
C36   H5    S    
C45   C75   A    
C21   H57   S    
C23   N23   A    
C30   C67   S    
C92   O8    S    
C34   N27   A    
N4    Ni8   S    
H61   O8    S    
C3    C60   A    
C42   N30   A    
C48   H17   S    
C6    C15   S    
C8    C65   A    
C18   C22   A    
C46   H15   S    
C75   N18   A    
C82   N25   A    
H60   O6    S    
C26   H63   S    
C64   N7    A    
N25   Ni7   S    
N19   Ni5   S    
C37   H6    S    
C52   C54   D    
N29   Ni3   S    
C66   C89   A    
N1    Ni1   S    
C25   C29   A    
C40   C45   A    
C7    C64   A    
N22   Ni5   S    
C28   C45   S    
C2    C57   S    
C19   H54   S    
C47   H11   S    
N6    N15   A    
C58   N32   A    
N9    N32   A    
C72   N15   A    
C14   C20   A    
C11   C33   A    
C74   N17   A    
C24   H56   S    
C61   N4    A    
N18   N28   A    
C9    C31   A    
C78   C79   A    
C82   H51   S    
C90   O3    D    
N16   Ni2   S    
C82   C86   A    
C62   C88   S    
C4    C61   A    
N12   Ni1   S    
C83   N26   A    
C1    C84   A    
C80   N22   A    
C6    C63   A    
N3    Ni7   S    
C9    C14   A    
C69   N11   A    
C41   C56   A    
N28   Ni3   S    
N19   N29   A    
C11   C16   A    
C48   H13   S    
N14   Ni1   S    
C43   N31   A    
C34   H34   S    
C49   C55   D    
C74   H43   S    
C8    C74   A    
N31   Ni4   S    
C20   H55   S    
C41   N29   A    
N8    N17   A    
C61   H35   S    
C16   C18   A    
C32   C37   S    
N20   Ni8   S    
C73   N16   A    
N20   N30   A    
N7    N16   A    
C43   H30   S    
N6    Ni5   S    
C5    C14   S    
C91   O5    D    
C92   O7    D    
N5    N14   A    
C1    H1    S    
C7    C16   S    
C2    C59   A    
N32   Ni5   S    
C26   C30   A    
C77   N20   A    
C76   H46   S    
C37   H2    S    
C42   C67   A    
C36   C44   S    
N26   Ni8   S    
N27   Ni2   S    
N24   Ni6   S    
C53   H22   S    
C36   H64   S    
C55   H25   S    
C59   H32   S    
C47   H16   S    
C5    C62   A    
C81   H50   S    
C9    C44   S    
N21   Ni7   S    
C66   N9    A    
C4    C54   S    
C25   H62   S    
C75   H44   S    
C50   C57   D    
H59   O4    S    
C76   N19   A    
C24   C28   A    
C81   N24   A    
C38   H7    S    
C39   C48   S    
C12   N12   A    
C13   C48   S    
C44   H9    S    
C13   C35   A    
C44   H14   S    
C27   C56   S    
C8    C17   S    
N21   N31   A    
C38   C47   S    
C65   N8    A    
C22   C27   A    
N1    N22   A    
C1    N1    A    
C19   C24   A    
C5    C71   A    
N12   N24   A    
C30   C32   A    
C3    C53   S    
C72   H41   S    
N23   Ni2   S    
N7    Ni8   S    
C35   C39   S    
C63   C90   S    
C50   H19   S    
N9    Ni3   S    
N3    N11   A    
N5    Ni6   S    
C79   H48   S    
C34   C87   A    
C41   H28   S    
N30   Ni4   S    
C68   H37   S    
C55   C89   S    
C58   C89   A    
C71   N14   A    
C39   H4    S    
C91   O6    S    
C50   C86   S    
C23   H23   S    
C13   C17   A    
N18   Ni6   S    
C10   C32   A    
C15   C21   A    
C40   H27   S    
C73   H42   S    
C29   C31   A    
C80   H49   S    
C31   C36   S    
C49   H18   S    
C33   C38   S    
N23   N25   A    
N13   Ni4   S    
C51   C53   D    
C37   C46   S    
H58   O2    S    
C81   C85   A    
C42   H29   S    
C57   H26   S    
C40   N28   A    
C68   N10   A    
