data_mof_unit_64965.cif
_audit_creation_date              2013-03-05T16:20:25-0500
_audit_creation_method            fapswitch 2.2
_symmetry_space_group_name_H-M    P1
_symmetry_Int_Tables_number       1
_space_group_crystal_system       triclinic
_cell_length_a                    23.582408
_cell_length_b                    29.730103
_cell_length_c                    8.518942
_cell_angle_alpha                 90.001327
_cell_angle_beta                  93.122194
_cell_angle_gamma                 90.001492
_cell_volume                      5963.82785069

loop_
_atom_site_label
_atom_site_type_symbol
_atom_site_description
_atom_site_fract_x
_atom_site_fract_y
_atom_site_fract_z
_atom_type_partial_charge
P1    P     P_3+3 0.879620 0.451210 0.061380 0.509216
P2    P     P_3+3 0.879620 0.548790 0.561380 0.509210
P3    P     P_3+3 0.379620 0.951210 0.061380 0.509119
P4    P     P_3+3 0.379620 0.048790 0.561380 0.509119
O1    O     O_2   0.885280 0.436300 0.888260 -0.364865
O2    O     O_2   0.885280 0.563700 0.388260 -0.364866
O3    O     O_2   0.385280 0.936300 0.888260 -0.364974
O4    O     O_2   0.385280 0.063700 0.388260 -0.364960
O5    O     O_3   0.933180 0.477650 0.134870 -0.323706
O6    O     O_3   0.933180 0.522350 0.634870 -0.323712
O7    O     O_3   0.433180 0.977650 0.134870 -0.323727
O8    O     O_3   0.433180 0.022350 0.634870 -0.323739
O9    O     O_3   0.980100 0.397030 0.639600 -0.302371
O10   O     O_3   0.980100 0.602970 0.139600 -0.302180
O11   O     O_3   0.480100 0.897030 0.639600 -0.301608
O12   O     O_3   0.480100 0.102970 0.139600 -0.301646
O13   O     O_2   0.883566 0.362614 0.708319 -0.419378
O14   O     O_2   0.883570 0.637383 0.208284 -0.419410
O15   O     O_2   0.383612 0.862580 0.708310 -0.419611
O16   O     O_2   0.383609 0.137411 0.208266 -0.419617
O17   O     O_3   0.821568 0.488033 0.052618 -0.568674
O18   O     O_3   0.821563 0.511969 0.552620 -0.568673
O19   O     O_3   0.321569 0.988034 0.052626 -0.568638
O20   O     O_3   0.321565 0.011967 0.552625 -0.568636
O21   O     O_3   0.964092 0.303008 0.680417 -0.517789
O22   O     O_3   0.964110 0.696985 0.180516 -0.517659
O23   O     O_3   0.464205 0.803024 0.680561 -0.517161
O24   O     O_3   0.464201 0.196976 0.180601 -0.517219
H1    H     H_    0.046682 0.322485 0.644145 0.114645
H2    H     H_    0.046652 0.677562 0.143122 0.114288
H3    H     H_    0.546452 0.822335 0.639065 0.113397
H4    H     H_    0.546497 0.177664 0.139481 0.113391
C1    C     C_3   0.039581 0.250332 0.651956 -1.003191
C2    C     C_3   0.039548 0.749715 0.152068 -1.002249
C3    C     C_3   0.539597 0.750243 0.652107 -1.001641
C4    C     C_3   0.539578 0.249775 0.152158 -1.001177
H5    H     H_    0.050978 0.248991 0.779832 0.294924
H6    H     H_    0.051304 0.750846 0.279843 0.294760
H7    H     H_    0.552320 0.749785 0.779318 0.294679
H8    H     H_    0.552231 0.250295 0.279471 0.294593
H9    H     H_    0.007997 0.223612 0.621170 0.260359
H10   H     H_    0.007841 0.776467 0.122500 0.260337
H11   H     H_    0.507738 0.723364 0.626116 0.260580
H12   H     H_    0.507703 0.276644 0.125864 0.260456
P5    P     P_3+3 0.120160 0.450850 0.628590 0.483993
P6    P     P_3+3 0.120160 0.549150 0.128590 0.484041
P7    P     P_3+3 0.620160 0.950850 0.628590 0.484175
P8    P     P_3+3 0.620160 0.049150 0.128590 0.484175
P9    P     P_3+3 0.068506 0.354415 0.086124 0.431640
P10   P     P_3+3 0.068529 0.645568 0.586130 0.431679
P11   P     P_3+3 0.568560 0.854455 0.086111 0.431890
P12   P     P_3+3 0.568567 0.145541 0.586120 0.431833
O25   O     O_2   0.114450 0.435960 0.801790 -0.358064
O26   O     O_2   0.114450 0.564040 0.301790 -0.357979
O27   O     O_2   0.614450 0.935960 0.801790 -0.357808
O28   O     O_2   0.614450 0.064040 0.301790 -0.357811
O29   O     O_3   0.019500 0.396970 0.050670 -0.329943
O30   O     O_3   0.019500 0.603030 0.550670 -0.329879
O31   O     O_3   0.519500 0.896970 0.050670 -0.330088
O32   O     O_3   0.519500 0.103030 0.550670 -0.330044
O33   O     O_2   0.116242 0.366836 0.978027 -0.419002
O34   O     O_2   0.116277 0.633116 0.478117 -0.418941
O35   O     O_2   0.616316 0.866936 0.978159 -0.418674
O36   O     O_2   0.616328 0.133048 0.478202 -0.418710
O37   O     O_3   0.180054 0.485800 0.636021 -0.567736
O38   O     O_3   0.180052 0.514200 0.136016 -0.567748
O39   O     O_3   0.680062 0.985792 0.636024 -0.567809
O40   O     O_3   0.680060 0.014209 0.136010 -0.567805
O41   O     O_3   0.039483 0.304070 0.012837 -0.527129
O42   O     O_3   0.039552 0.695916 0.512749 -0.527187
O43   O     O_3   0.539635 0.804092 0.012705 -0.527288
O44   O     O_3   0.539657 0.195902 0.512676 -0.527326
C5    C     C_3   0.986012 0.298807 0.076346 0.496423
C6    C     C_3   0.986075 0.701214 0.576203 0.496760
C7    C     C_3   0.486005 0.798895 0.075327 0.498355
C8    C     C_3   0.486046 0.201130 0.575390 0.498191
H13   H     H_    0.955143 0.323210 0.021394 0.124346
H14   H     H_    0.955180 0.676843 0.521163 0.124396
H15   H     H_    0.455216 0.823163 0.019236 0.125173
H16   H     H_    0.455229 0.176861 0.519404 0.125091
H17   H     H_    0.988645 0.303626 0.205903 0.004321
H18   H     H_    0.988674 0.696373 0.705746 0.004062
H19   H     H_    0.488292 0.803971 0.204756 0.003234
H20   H     H_    0.488362 0.196078 0.704833 0.003305
C9    C     C_3   0.963960 0.251441 0.044264 -0.997348
C10   C     C_3   0.964101 0.748605 0.544200 -0.997272
C11   C     C_3   0.464135 0.751441 0.043976 -0.997350
C12   C     C_3   0.464197 0.248586 0.543984 -0.997303
H21   H     H_    0.958163 0.245383 0.915978 0.294919
H22   H     H_    0.958275 0.754665 0.415908 0.294885
H23   H     H_    0.458905 0.745061 0.915792 0.294970
H24   H     H_    0.458865 0.254923 0.415772 0.294921
H25   H     H_    0.994396 0.226406 0.096645 0.256173
H26   H     H_    0.994609 0.773608 0.596514 0.256168
H27   H     H_    0.494396 0.726557 0.098072 0.255896
H28   H     H_    0.494528 0.273475 0.597801 0.255923
C13   C     C_3   0.165673 0.472016 0.193826 0.432951
C14   C     C_3   0.165677 0.527984 0.693839 0.432916
C15   C     C_3   0.665691 0.972024 0.193840 0.432754
C16   C     C_3   0.665692 0.027977 0.693844 0.432727
H29   H     H_    0.153031 0.475639 0.316417 0.085992
H30   H     H_    0.153028 0.524360 0.816422 0.085992
H31   H     H_    0.653057 0.975650 0.316438 0.085973
H32   H     H_    0.653040 0.024353 0.816424 0.085987
H33   H     H_    0.131165 0.456387 0.118306 0.129374
H34   H     H_    0.131176 0.543614 0.618306 0.129407
H35   H     H_    0.631182 0.956392 0.118334 0.129421
H36   H     H_    0.631196 0.043610 0.618303 0.129446
C17   C     C_3   0.217358 0.441406 0.192754 -0.982826
C18   C     C_3   0.217366 0.558592 0.692802 -0.982766
C19   C     C_3   0.717380 0.941419 0.192757 -0.982534
C20   C     C_3   0.717387 0.058579 0.692825 -0.982545
H37   H     H_    0.252616 0.455703 0.268838 0.266890
H38   H     H_    0.252610 0.544301 0.768938 0.266869
H39   H     H_    0.752640 0.955721 0.268824 0.266845
H40   H     H_    0.752617 0.044293 0.769023 0.266834
H41   H     H_    0.206743 0.407552 0.237447 0.217162
H42   H     H_    0.206749 0.592450 0.737452 0.217161
H43   H     H_    0.706771 0.907565 0.237465 0.217118
H44   H     H_    0.706767 0.092443 0.737410 0.217135
H45   H     H_    0.231354 0.437888 0.070940 0.270297
H46   H     H_    0.231382 0.562099 0.571008 0.270319
H47   H     H_    0.731370 0.937900 0.070937 0.270321
H48   H     H_    0.731424 0.062070 0.571049 0.270341
Ba1   Ba    Ba6+2 0.999920 0.468170 0.845000 1.618494
Ba2   Ba    Ba6+2 0.999920 0.531830 0.345000 1.618529
Ba3   Ba    Ba6+2 0.499920 0.968170 0.845000 1.618670
Ba4   Ba    Ba6+2 0.499920 0.031830 0.345000 1.618660
C21   C     C_3   0.839131 0.530249 0.000345 0.473065
C22   C     C_3   0.839121 0.469751 0.500350 0.473057
C23   C     C_3   0.339133 0.030250 0.000347 0.473067
C24   C     C_3   0.339126 0.969750 0.500356 0.473066
H49   H     H_    0.856188 0.527202 0.882268 0.093300
H50   H     H_    0.856175 0.472795 0.382270 0.093303
H51   H     H_    0.356188 0.027201 0.882268 0.093299
H52   H     H_    0.356181 0.972794 0.382277 0.093296
H53   H     H_    0.871814 0.545081 0.083746 0.148167
H54   H     H_    0.871803 0.454921 0.583748 0.148153
H55   H     H_    0.371818 0.045081 0.083743 0.148148
H56   H     H_    0.371809 0.954920 0.583755 0.148124
C25   C     C_3   0.788274 0.561757 0.990358 -1.030225
C26   C     C_3   0.788261 0.438244 0.490376 -1.030247
C27   C     C_3   0.288280 0.061760 0.990363 -1.030200
C28   C     C_3   0.288269 0.938240 0.490377 -1.030236
H57   H     H_    0.755890 0.549208 0.901434 0.271289
H58   H     H_    0.755876 0.450792 0.401454 0.271292
H59   H     H_    0.255891 0.049210 0.901452 0.271296
H60   H     H_    0.255883 0.950786 0.401459 0.271301
H61   H     H_    0.801760 0.595930 0.956115 0.222725
H62   H     H_    0.801743 0.404071 0.456136 0.222727
H63   H     H_    0.301768 0.095930 0.956102 0.222720
H64   H     H_    0.301755 0.904068 0.456131 0.222729
H65   H     H_    0.769235 0.563895 0.106554 0.272453
H66   H     H_    0.769224 0.436110 0.606576 0.272451
H67   H     H_    0.269245 0.063903 0.106565 0.272454
H68   H     H_    0.269233 0.936102 0.606577 0.272451
H69   H     H_    0.152680 0.683219 0.298493 0.184145
H70   H     H_    0.152756 0.316820 0.798394 0.184083
H71   H     H_    0.652559 0.183284 0.298601 0.184404
H72   H     H_    0.652589 0.816727 0.798557 0.184443
O45   O     O_3   0.066770 0.522240 0.054830 -0.357401
O46   O     O_3   0.066770 0.477760 0.554830 -0.357385
O47   O     O_3   0.566770 0.022240 0.054830 -0.357411
O48   O     O_3   0.566770 0.977760 0.554830 -0.357421
P13   P     P_3+3 0.933255 0.647726 0.103530 0.462519
P14   P     P_3+3 0.933243 0.352278 0.603530 0.462490
P15   P     P_3+3 0.433296 0.147747 0.103514 0.462469
P16   P     P_3+3 0.433290 0.852253 0.603517 0.462477
C29   C     C_3   0.015216 0.296206 0.606514 0.481318
C30   C     C_3   0.015133 0.703884 0.106179 0.480754
C31   C     C_3   0.514843 0.795841 0.604687 0.478270
C32   C     C_3   0.514878 0.204142 0.104857 0.478556
H73   H     H_    0.008069 0.296713 0.476536 0.016526
H74   H     H_    0.007811 0.703533 0.976210 0.016515
H75   H     H_    0.506867 0.795620 0.474937 0.017161
H76   H     H_    0.506962 0.204310 0.975045 0.016989
H77   H     H_    0.078482 0.243885 0.587802 0.226269
H78   H     H_    0.078253 0.756308 0.087139 0.226092
H79   H     H_    0.577754 0.743278 0.585314 0.225913
H80   H     H_    0.577781 0.256714 0.085474 0.225855
H81   H     H_    0.203182 0.669110 0.556560 0.158517
H82   H     H_    0.203266 0.330964 0.056413 0.158493
H83   H     H_    0.703035 0.169230 0.556770 0.158556
H84   H     H_    0.703067 0.830799 0.056710 0.158549
H85   H     H_    0.922324 0.247074 0.097324 0.225477
H86   H     H_    0.922489 0.753020 0.597396 0.225424
H87   H     H_    0.422258 0.747184 0.095764 0.225405
H88   H     H_    0.422368 0.252884 0.596041 0.225399
C33   C     C_R   0.167208 0.637161 0.061256 -0.310811
C34   C     C_R   0.167245 0.362863 0.561167 -0.310884
C35   C     C_R   0.667153 0.137197 0.061378 -0.310547
C36   C     C_R   0.667168 0.862812 0.561344 -0.310542
H89   H     H_    0.198905 0.630219 0.154424 0.155990
H90   H     H_    0.198951 0.369819 0.654301 0.156002
H91   H     H_    0.698832 0.130275 0.154611 0.155921
H92   H     H_    0.698849 0.869740 0.654568 0.155903
C37   C     C_R   0.129555 0.601940 0.014899 0.278598
C38   C     C_R   0.129562 0.398065 0.514866 0.278509
C39   C     C_R   0.629546 0.101950 0.014943 0.278945
C40   C     C_R   0.629550 0.898052 0.514931 0.278971
C41   C     C_R   0.119200 0.684853 0.866839 -0.383051
C42   C     C_R   0.119248 0.315152 0.366773 -0.382854
C43   C     C_R   0.619139 0.184858 0.866877 -0.383439
C44   C     C_R   0.619162 0.815143 0.366835 -0.383393
H93   H     H_    0.102741 0.716974 0.827111 0.144687
H94   H     H_    0.102820 0.283023 0.327019 0.144861
H95   H     H_    0.602626 0.216963 0.827180 0.144430
H96   H     H_    0.602661 0.783035 0.327117 0.144461
C45   C     C_R   0.096713 0.646225 0.792300 0.240060
C46   C     C_R   0.096725 0.353771 0.292267 0.240079
C47   C     C_R   0.596707 0.146216 0.792312 0.240120
C48   C     C_R   0.596715 0.853782 0.292291 0.240102
C49   C     C_R   0.873179 0.315465 0.331431 -0.399571
C50   C     C_R   0.873204 0.684546 0.831412 -0.399560
C51   C     C_R   0.373237 0.815449 0.331374 -0.399408
C52   C     C_R   0.373271 0.184560 0.831348 -0.399460
H97   H     H_    0.881416 0.282154 0.377855 0.164028
H98   H     H_    0.881449 0.717857 0.877829 0.163926
H99   H     H_    0.381501 0.782135 0.377734 0.163807
H100  H     H_    0.381554 0.217875 0.877689 0.163777
C53   C     C_R   0.906545 0.350716 0.393971 0.131103
C54   C     C_R   0.906565 0.649293 0.893957 0.130864
C55   C     C_R   0.406584 0.850705 0.393951 0.130231
C56   C     C_R   0.406604 0.149300 0.893938 0.130307
C57   C     C_R   0.826959 0.368631 0.151681 -0.382916
C58   C     C_R   0.826974 0.631378 0.651669 -0.382939
C59   C     C_R   0.326984 0.868617 0.151694 -0.382997
C60   C     C_R   0.327001 0.131394 0.651678 -0.383017
H101  H     H_    0.792138 0.379111 0.072176 0.172878
H102  H     H_    0.792151 0.620899 0.572165 0.172874
H103  H     H_    0.292156 0.879092 0.072203 0.172886
H104  H     H_    0.292170 0.120923 0.572185 0.172872
C61   C     C_R   0.872727 0.398658 0.179325 0.191362
C62   C     C_R   0.872736 0.601347 0.679320 0.191368
C63   C     C_R   0.372742 0.898655 0.179339 0.191152
C64   C     C_R   0.372750 0.101349 0.679335 0.191169
C65   C     C_R   0.161632 0.681114 0.991197 0.106236
C66   C     C_R   0.161686 0.318908 0.491113 0.106075
C67   C     C_R   0.661556 0.181147 0.991286 0.106667
C68   C     C_R   0.661580 0.818861 0.491246 0.106726
C69   C     C_R   0.099644 0.605726 0.871552 -0.370384
C70   C     C_R   0.099638 0.394270 0.371537 -0.370477
C71   C     C_R   0.599660 0.105719 0.871559 -0.370546
C72   C     C_R   0.599661 0.894278 0.371553 -0.370645
H105  H     H_    0.079699 0.576431 0.818999 0.174652
H106  H     H_    0.079681 0.423560 0.319001 0.174713
H107  H     H_    0.579734 0.076419 0.818995 0.174588
H108  H     H_    0.579729 0.923577 0.319002 0.174614
C73   C     C_R   0.829094 0.324030 0.214865 0.119694
C74   C     C_R   0.829117 0.675981 0.714845 0.119791
C75   C     C_R   0.329144 0.824011 0.214834 0.119801
C76   C     C_R   0.329176 0.176003 0.714804 0.119847
C77   C     C_R   0.912458 0.389027 0.303372 0.117076
C78   C     C_R   0.912471 0.610980 0.803361 0.117236
C79   C     C_R   0.412480 0.889025 0.303378 0.117642
C80   C     C_R   0.412490 0.110977 0.803373 0.117654
C81   C     C_R   0.198668 0.761061 0.787237 -0.179136
C82   C     C_R   0.198760 0.238993 0.287135 -0.179049
C83   C     C_R   0.698529 0.261153 0.787371 -0.179276
C84   C     C_R   0.698573 0.738867 0.287321 -0.179258
C85   C     C_R   0.714253 0.297291 0.695936 -0.129034
C86   C     C_R   0.714291 0.702728 0.195880 -0.129025
C87   C     C_R   0.214361 0.797205 0.695790 -0.129091
C88   C     C_R   0.214432 0.202844 0.195682 -0.129118
C89   C     C_R   0.761871 0.321783 0.741477 -0.105633
C90   C     C_R   0.761899 0.678229 0.241434 -0.105620
C91   C     C_R   0.261936 0.821742 0.741385 -0.105490
C92   C     C_R   0.261981 0.178282 0.241309 -0.105469
C93   C     C_R   0.790179 0.312452 0.884477 -0.141175
C94   C     C_R   0.790202 0.687554 0.384450 -0.141173
C95   C     C_R   0.290231 0.812442 0.884431 -0.141257
C96   C     C_R   0.290268 0.187566 0.384382 -0.141193
C97   C     C_R   0.765151 0.285473 0.998234 0.053142
C98   C     C_R   0.765179 0.714538 0.498203 0.053131
C99   C     C_R   0.265225 0.785443 0.998171 0.053060
C100  C     C_R   0.265276 0.214577 0.498113 0.053029
C101  C     C_R   0.220288 0.755369 0.944983 0.101811
C102  C     C_R   0.220360 0.244665 0.444905 0.101854
C103  C     C_R   0.720182 0.255425 0.945075 0.101637
C104  C     C_R   0.720217 0.744589 0.445036 0.101613
C105  C     C_R   0.785821 0.287520 0.158823 -0.058617
C106  C     C_R   0.785849 0.712494 0.658795 -0.058634
C107  C     C_R   0.285893 0.787489 0.158767 -0.058777
C108  C     C_R   0.285942 0.212534 0.658716 -0.058768
C109  C     C_R   0.762442 0.255869 0.263870 0.102264
C110  C     C_R   0.762474 0.744149 0.763835 0.102265
C111  C     C_R   0.262542 0.755815 0.263791 0.102378
C112  C     C_R   0.262607 0.244222 0.763722 0.102378
C113  C     C_R   0.218855 0.724847 0.210138 0.045465
C114  C     C_R   0.218926 0.275191 0.710055 0.045489
C115  C     C_R   0.718746 0.224905 0.210234 0.045484
C116  C     C_R   0.718778 0.775111 0.710194 0.045519
C117  C     C_R   0.199422 0.721525 0.048457 -0.071330
C118  C     C_R   0.199494 0.278509 0.548374 -0.071441
C119  C     C_R   0.699317 0.221577 0.048549 -0.071020
C120  C     C_R   0.699349 0.778436 0.548508 -0.070995
C121  C     C_R   0.780622 0.253985 0.424980 -0.177511
C122  C     C_R   0.780657 0.746042 0.924942 -0.177531
C123  C     C_R   0.280737 0.753911 0.424892 -0.177550
C124  C     C_R   0.280807 0.246140 0.924820 -0.177579
C125  C     C_R   0.265251 0.718801 0.520389 -0.141435
C126  C     C_R   0.265330 0.281261 0.020290 -0.141418
C127  C     C_R   0.765118 0.218894 0.520524 -0.141372
C128  C     C_R   0.765152 0.781135 0.020478 -0.141389
C129  C     C_R   0.219558 0.692395 0.473189 -0.090218
C130  C     C_R   0.219639 0.307666 0.973074 -0.090310
C131  C     C_R   0.719420 0.192492 0.473344 -0.090088
C132  C     C_R   0.719453 0.807533 0.973294 -0.090133
C133  C     C_R   0.193100 0.698880 0.324903 -0.134205
C134  C     C_R   0.193176 0.301165 0.824806 -0.134114
C135  C     C_R   0.692978 0.198952 0.325018 -0.134460
C136  C     C_R   0.693009 0.801065 0.824975 -0.134498
H109  H     H_    0.172579 0.737633 0.723237 0.144801
H110  H     H_    0.172706 0.262443 0.223135 0.144804
H111  H     H_    0.672380 0.237768 0.723378 0.144822
H112  H     H_    0.672437 0.762260 0.223330 0.144823
H113  H     H_    0.194322 0.802223 0.579646 0.140804
H114  H     H_    0.194404 0.197839 0.079517 0.140836
H115  H     H_    0.694197 0.302336 0.579825 0.140786
H116  H     H_    0.694241 0.697689 0.079759 0.140800
H117  H     H_    0.778551 0.346037 0.661582 0.156426
H118  H     H_    0.778575 0.653973 0.161537 0.156443
H119  H     H_    0.278599 0.846005 0.661493 0.156415
H120  H     H_    0.278631 0.154012 0.161417 0.156439
H121  H     H_    0.831324 0.327294 0.906681 0.182281
H122  H     H_    0.831342 0.672706 0.406662 0.182267
H123  H     H_    0.331356 0.827314 0.906662 0.182154
H124  H     H_    0.331381 0.172677 0.406631 0.182176
H125  H     H_    0.804313 0.279994 0.485040 0.149813
H126  H     H_    0.804349 0.720036 0.985011 0.149806
H127  H     H_    0.304420 0.779917 0.484992 0.149799
H128  H     H_    0.304483 0.220136 0.984946 0.149812
H129  H     H_    0.783607 0.216012 0.639278 0.144684
H130  H     H_    0.783642 0.784023 0.139230 0.144655
H131  H     H_    0.283749 0.715906 0.639130 0.144623
H132  H     H_    0.283830 0.284165 0.139026 0.144601
Cl1   Cl    Cl    0.971237 0.423165 0.347785 -0.601226
Cl2   Cl    Cl    0.971247 0.576841 0.847771 -0.601240
Cl3   Cl    Cl    0.471259 0.923166 0.347778 -0.601216
Cl4   Cl    Cl    0.471262 0.076832 0.847780 -0.601210

loop_
_geom_bond_atom_site_label_1
_geom_bond_atom_site_label_2
_geom_bond_distance
_ccdc_geom_bond_type
C24   C28   1.520531 S    
C15   H31   1.106824 S    
C11   H23   1.108582 S    
C94   H122  1.073286 S    
C94   C98   1.411791 A    
C2    H10   1.111150 S    
C33   C65   1.439634 A    
C18   H42   1.109501 S    
C38   C70   1.381199 A    
C87   C91   1.376309 A    
C130  C134  1.391513 A    
C69   H105  1.075724 S    
O38   C13   1.395937 S    
C20   H48   1.110841 S    
C16   H32   1.106817 S    
C128  H130  1.082986 S    
C26   H58   1.110521 S    
C50   C54   1.398459 A    
P3    C63   1.869555 S    
C44   H96   1.078298 S    
P10   C45   1.843828 S    
P1    C61   1.869443 S    
C98   C106  1.428386 A    
O42   C6    1.407708 S    
C111  C113  1.437573 A    
P4    O8    1.587177 S    
O6    Ba1   2.823029 S    
C25   H57   1.110520 S    
C13   H33   1.111287 S    
C27   H63   1.108379 S    
H4    C32   1.112992 S    
P9    O41   1.746979 S    
O18   C22   1.401851 S    
C3    H79   1.110000 S    
H70   C134  1.073547 S    
C22   H50   1.107195 S    
P11   O43   1.746897 S    
P14   C53   1.860949 S    
C5    H17   1.111322 S    
C54   C78   1.387153 A    
C122  H126  1.068013 S    
C4    C32   1.522033 S    
P8    C39   1.863811 S    
C39   C71   1.381134 A    
O32   Ba4   2.770463 S    
C46   C70   1.380358 A    
C10   H22   1.108813 S    
C20   H44   1.109496 S    
C14   H30   1.106815 S    
C1    H77   1.109778 S    
C113  C117  1.431120 A    
H82   C130  1.078301 S    
C115  C119  1.431142 A    
C52   C56   1.398416 A    
C116  C136  1.409079 A    
O26   Ba2   2.907837 S    
C125  C129  1.375449 A    
C44   C48   1.402331 A    
C112  C124  1.416601 A    
C125  H131  1.082987 S    
C111  C123  1.416578 A    
O39   C16   1.395916 S    
C21   H49   1.107195 S    
P7    O48   1.591865 S    
C4    H12   1.111307 S    
C127  H129  1.082986 S    
C22   H54   1.110663 S    
C23   C27   1.520530 S    
C57   C61   1.410531 A    
C56   C80   1.387172 A    
C59   C75   1.430955 A    
C30   H74   1.111298 S    
C33   C37   1.415118 A    
C81   C87   1.389241 A    
C82   C88   1.389220 A    
C83   C85   1.389259 A    
O10   Ba2   2.768499 S    
C82   H110  1.060364 S    
O21   P14   1.747046 S    
C126  C130  1.375468 A    
C14   H34   1.111280 S    
P10   O42   1.746951 S    
C97   C105  1.428366 A    
C66   C118  1.558253 S    
C17   H45   1.110889 S    
O9    P14   1.745993 S    
C43   H95   1.078292 S    
C103  C119  1.441888 A    
O28   Ba4   2.907837 S    
P15   C56   1.861043 S    
P3    O7    1.587131 S    
C21   H53   1.110663 S    
O22   C30   1.404960 S    
C5    H13   1.112824 S    
H1    C29   1.112568 S    
C7    H15   1.112795 S    
C59   H103  1.081458 S    
C81   C101  1.421211 A    
Ba3   O48   3.016887 S    
C83   C103  1.421248 A    
Ba1   O46   3.016887 S    
O13   P14   1.541981 D    
O29   Ba1   2.770543 S    
C36   C68   1.439702 A    
O31   Ba3   2.770543 S    
C102  C118  1.441775 A    
Ba4   O48   2.820982 S    
P9    O29   1.729021 S    
C19   H43   1.109519 S    
H84   C132  1.078249 S    
P12   O32   1.728948 S    
C9    H25   1.110595 S    
O4    Ba4   2.907068 S    
C92   C96   1.384975 A    
C11   H27   1.110489 S    
P9    C46   1.843873 S    
C8    H16   1.112841 S    
C49   C73   1.421025 A    
C3    H11   1.110799 S    
C40   C72   1.381131 A    
C43   C67   1.421469 A    
C88   C92   1.376294 A    
C36   C40   1.415193 A    
P5    O25   1.553323 D    
C80   Cl4   1.742848 S    
P4    C64   1.869572 S    
C43   C47   1.402314 A    
C49   C53   1.398438 A    
C41   C45   1.402340 A    
C91   H119  1.080333 S    
C9    H85   1.110673 S    
C53   C77   1.387146 A    
C16   H36   1.111276 S    
C16   C20   1.521545 S    
C115  C135  1.409090 A    
C116  C120  1.431145 A    
C50   H98   1.080072 S    
C45   C69   1.380329 A    
C11   H87   1.110591 S    
C100  C108  1.428438 A    
C58   H102  1.081457 S    
C112  C114  1.437569 A    
C28   H68   1.110807 S    
P2    O18   1.751343 S    
C10   H86   1.110855 S    
C13   C17   1.521551 S    
C27   H67   1.110808 S    
C24   H52   1.107196 S    
C15   C19   1.521549 S    
O19   C23   1.401861 S    
C75   C107  1.547355 S    
C26   H66   1.110809 S    
O17   C21   1.401854 S    
O25   Ba1   2.907880 S    
C7    C11   1.520715 S    
O27   Ba3   2.907880 S    
O30   Ba2   2.770463 S    
P5    O37   1.751818 S    
P16   C55   1.861050 S    
C20   H40   1.110527 S    
O16   P15   1.541957 D    
C114  C118  1.431110 A    
H83   C131  1.078240 S    
C52   H100  1.080067 S    
C42   C66   1.421467 A    
P7    Ba3   3.503396 S    
C109  C115  1.437610 A    
C58   C62   1.410550 A    
C110  C116  1.437621 A    
C34   C66   1.439608 A    
C63   C79   1.403178 A    
C28   H64   1.108382 S    
C113  C133  1.409051 A    
C25   H65   1.110809 S    
H3    C31   1.112644 S    
C129  C133  1.391546 A    
C104  C120  1.441877 A    
O12   Ba4   2.768499 S    
C22   C26   1.520533 S    
C35   H91   1.080119 S    
C23   H55   1.110665 S    
C33   H89   1.080124 S    
C128  C132  1.375430 A    
O1    Ba1   2.907028 S    
C29   H73   1.111015 S    
O11   Ba3   2.768419 S    
O3    Ba3   2.907028 S    
C32   H76   1.111447 S    
C83   H111  1.060255 S    
C51   C75   1.420995 A    
C12   H28   1.110665 S    
O22   P13   1.747056 S    
C14   C18   1.521548 S    
C3    C31   1.521887 S    
C4    H80   1.110239 S    
C44   C68   1.421490 A    
C1    C29   1.521825 S    
C8    H20   1.111299 S    
C17   H41   1.109510 S    
C92   H120  1.080329 S    
C37   C69   1.381180 A    
C70   H106  1.075718 S    
C73   C105  1.547381 S    
P1    O1    1.552663 D    
C36   H92   1.080119 S    
C79   Cl3   1.742843 S    
O37   C14   1.395924 S    
P6    O38   1.751818 S    
P3    O3    1.552663 D    
P4    O20   1.751347 S    
C21   C25   1.520533 S    
O12   P15   1.745871 S    
C89   C93   1.384939 A    
H2    C30   1.112865 S    
C91   C95   1.384958 A    
P11   C48   1.843718 S    
P2    C62   1.869487 S    
P6    O45   1.591817 S    
C82   C102  1.421179 A    
C57   C73   1.430939 A    
O41   C5    1.407681 S    
Ba2   O45   3.016883 S    
C28   H60   1.110519 S    
O23   P16   1.747084 S    
C105  C109  1.429678 A    
C6    H18   1.111293 S    
O14   P13   1.541979 D    
C124  C126  1.384636 A    
P13   C54   1.861017 S    
C123  H127  1.068022 S    
P9    O33   1.537698 D    
P4    Ba4   3.502875 S    
C107  C111  1.429714 A    
P10   O30   1.728976 S    
C47   C71   1.380260 A    
C108  C112  1.429740 A    
P1    O5    1.587131 S    
O2    Ba2   2.907068 S    
P12   O36   1.537709 D    
P8    O47   1.591817 S    
C9    H21   1.108687 S    
P6    C37   1.863804 S    
C19   H47   1.110895 S    
C55   C79   1.387196 A    
C1    H5    1.108450 S    
C72   H108  1.075734 S    
C51   C55   1.398415 A    
C3    H7    1.108693 S    
P5    O46   1.591865 S    
C85   C89   1.376308 A    
C51   H99   1.080073 S    
P8    Ba4   3.503384 S    
O20   C24   1.401862 S    
C96   C100  1.411795 A    
C84   H112  1.060264 S    
C121  C127  1.384557 A    
P11   O35   1.537710 D    
C64   C80   1.403172 A    
C114  C134  1.409018 A    
C71   H107  1.075737 S    
C78   Cl2   1.742824 S    
Ba1   Ba2   4.660977 S    
C98   C104  1.440635 A    
C2    H78   1.110166 S    
O15   P16   1.541971 D    
Ba3   Ba4   4.660977 S    
C60   H104  1.081459 S    
C59   C63   1.410548 A    
C34   C38   1.415085 A    
C58   C74   1.430950 A    
Ba3   O47   2.820887 S    
C109  C121  1.416534 A    
Ba1   O45   2.820887 S    
P1    Ba1   3.502868 S    
C24   H56   1.110665 S    
C15   H35   1.111283 S    
C93   C97   1.411789 A    
C1    H9    1.110530 S    
C26   H62   1.108376 S    
C18   H46   1.110861 S    
C126  H132  1.082987 S    
C7    H19   1.111265 S    
C93   H121  1.073290 S    
C96   H124  1.073235 S    
C131  C135  1.391596 A    
C89   H117  1.080331 S    
C121  H125  1.068015 S    
C6    H14   1.112834 S    
O9    Ba1   2.768419 S    
C88   H114  1.083335 S    
C60   C76   1.430974 A    
P1    O17   1.751342 S    
P3    O19   1.751348 S    
P4    O4    1.552679 D    
C25   H61   1.108377 S    
O8    Ba3   2.823029 S    
C27   H59   1.110520 S    
C97   C103  1.440617 A    
H69   C133  1.073591 S    
P12   O44   1.746894 S    
C99   C101  1.440607 A    
C35   C39   1.415196 A    
C95   C99   1.411796 A    
C23   H51   1.107197 S    
C76   C108  1.547388 S    
C84   C104  1.421232 A    
P3    Ba3   3.502868 S    
C67   C119  1.558298 S    
C68   C120  1.558333 S    
C85   H115  1.083340 S    
C86   H116  1.083340 S    
C124  H128  1.068016 S    
C87   H113  1.083338 S    
C10   H26   1.110776 S    
O24   P15   1.747087 S    
H71   C135  1.073662 S    
H72   C136  1.073652 S    
C12   H24   1.108752 S    
P5    Ba1   3.503396 S    
H81   C129  1.078280 S    
C50   C74   1.421045 A    
P12   C47   1.843701 S    
C8    C12   1.520736 S    
C2    C30   1.521939 S    
C61   C77   1.403126 A    
C74   C106  1.547423 S    
P6    O26   1.553304 D    
P2    O2    1.552679 D    
C42   C46   1.402352 A    
P7    O39   1.751816 S    
O24   C32   1.404979 S    
C90   H118  1.080326 S    
C35   C67   1.439699 A    
C4    H8    1.109198 S    
C84   C86   1.389250 A    
C90   C94   1.384949 A    
C49   H97   1.080074 S    
C127  C131  1.375423 A    
P5    C38   1.863805 S    
C31   H75   1.111096 S    
Ba4   O47   3.016883 S    
P8    O40   1.751818 S    
C81   H109  1.060337 S    
C62   C78   1.403135 A    
C52   C76   1.421001 A    
O44   C8    1.407689 S    
C122  C128  1.384569 A    
C6    C10   1.520738 S    
O10   P13   1.745983 S    
C123  C125  1.384609 A    
C65   C117  1.558247 S    
P2    Ba2   3.502875 S    
C100  C102  1.440613 A    
C106  C110  1.429693 A    
P10   O34   1.537707 D    
P7    C40   1.863816 S    
P11   O31   1.728982 S    
P2    O6    1.587177 S    
O23   C31   1.404820 S    
C99   C107  1.428403 A    
P7    O27   1.553323 D    
C5    C9    1.520742 S    
O21   C29   1.404814 S    
P8    O28   1.553304 D    
C18   H38   1.110547 S    
C41   H93   1.078337 S    
C2    H6    1.109036 S    
P6    Ba2   3.503384 S    
C77   Cl1   1.742809 S    
C86   C90   1.376300 A    
C41   C65   1.421458 A    
C17   H37   1.110575 S    
C95   H123  1.073253 S    
O5    Ba2   2.822935 S    
O7    Ba4   2.822935 S    
O40   C15   1.395922 S    
C48   C72   1.380265 A    
O11   P16   1.745891 S    
O43   C7    1.407662 S    
C60   C64   1.410573 A    
C34   H90   1.080123 S    
C132  C136  1.391584 A    
C12   H88   1.110724 S    
C101  C117  1.441818 A    
C57   H101  1.081456 S    
C42   H94   1.078350 S    
C110  C122  1.416540 A    
C19   H39   1.110581 S    
Ba2   O46   2.820982 S    
C13   H29   1.106820 S    
