data_mof_unit_37218.cif
_audit_creation_date              2012-12-11T14:29:27-0500
_audit_creation_method            fapswitch 2.2
_symmetry_space_group_name_H-M    P1
_symmetry_Int_Tables_number       1
_space_group_crystal_system       triclinic
_cell_length_a                    6.939449
_cell_length_b                    14.806464
_cell_length_c                    16.187999
_cell_angle_alpha                 90.373817
_cell_angle_beta                  89.511761
_cell_angle_gamma                 90.036925
_cell_volume                      1663.19980541

loop_
_atom_site_label
_atom_site_type_symbol
_atom_type_description
_atom_site_fract_x
_atom_site_fract_y
_atom_site_fract_z
_atom_type_partial_charge
O1    O     O_R   0.494400 0.416610 0.413880 -0.540198
O2    O     O_R   0.823920 0.406790 0.585520 -0.543367
O3    O     O_R   0.994250 0.583390 0.586120 -0.536802
C1    C     C_R   0.654071 0.385625 0.613999 0.743839
O4    O     O_R   0.824110 0.405730 0.414490 -0.548605
O5    O     O_R   0.994440 0.582310 0.413870 -0.535434
C2    C     C_R   0.656281 0.387771 0.383486 0.724713
O6    O     O_R   0.494210 0.417690 0.586130 -0.542728
O7    O     O_3   0.660810 0.557940 0.500000 -0.369027
V1    V     V_3+5 0.935650 0.489250 0.500000 1.404461
O8    O     O_R   0.324160 0.593210 0.414480 -0.551076
C3    C     C_R   0.156553 0.612545 0.384669 0.749798
O9    O     O_R   0.323970 0.594270 0.585510 -0.538214
C4    C     C_R   0.154490 0.614929 0.614819 0.696403
V2    V     V_3+5 0.435660 0.510750 0.500000 1.403560
O10   O     O_3   0.160630 0.442060 0.500000 -0.374530
H1    H     H_    0.367939 0.904350 0.507734 0.135329
C5    C     C_R   0.018753 0.569706 0.779522 -0.213694
C6    C     C_R   0.956201 0.543927 0.858519 0.185768
C7    C     C_R   0.952622 0.608826 0.921816 -0.111128
C8    C     C_R   0.008151 0.697424 0.906311 -0.195301
C9    C     C_R   0.067811 0.725153 0.826576 0.064422
C10   C     C_R   0.075414 0.659583 0.762059 0.056862
C11   C     C_R   0.123666 0.816032 0.811538 -0.181130
C12   C     C_R   0.192393 0.841066 0.730985 -0.025637
C13   C     C_R   0.198231 0.774420 0.666525 0.021448
C14   C     C_R   0.142066 0.684001 0.682171 -0.146287
C15   C     C_R   0.252838 0.930991 0.711135 0.446777
C16   C     C_R   0.320119 0.951403 0.631468 -0.179833
C17   C     C_R   0.319465 0.886907 0.569365 -0.202805
C18   C     C_R   0.258169 0.799836 0.586125 -0.136284
H2    H     H_    0.023255 0.517977 0.731998 0.105653
H3    H     H_    0.907176 0.592149 0.983909 0.122200
H4    H     H_    0.004942 0.743508 0.958379 0.105998
H5    H     H_    0.373247 0.018464 0.617670 0.126047
H6    H     H_    0.258758 0.752792 0.534771 0.117713
C19   C     C_2   0.992935 0.707885 0.280775 -0.135596
C20   C     C_2   0.155009 0.673414 0.312862 -0.343415
H7    H     H_    0.853523 0.686961 0.304915 0.145618
H8    H     H_    0.293267 0.689227 0.284390 0.135297
C21   C     C_2   0.994765 0.766210 0.206263 -0.188093
C22   C     C_2   0.116463 0.836407 0.192423 0.014777
H9    H     H_    0.887149 0.750204 0.160037 0.113499
C23   C     C_2   0.773561 0.224430 0.794153 -0.164723
C24   C     C_2   0.614857 0.176779 0.814280 -0.292402
H10   H     H_    0.901129 0.217862 0.831730 0.125816
H11   H     H_    0.483729 0.183699 0.779056 0.141412
C25   C     C_2   0.788779 0.286347 0.722261 -0.150625
C26   C     C_2   0.636180 0.320018 0.682034 -0.316058
H12   H     H_    0.932839 0.308232 0.704859 0.131164
H13   H     H_    0.490957 0.302612 0.701281 0.129346
C27   C     C_2   0.771777 0.208445 0.215244 -0.137393
C28   C     C_2   0.609578 0.173029 0.183685 -0.338319
H14   H     H_    0.911079 0.187574 0.190753 0.144788
H15   H     H_    0.471542 0.188966 0.212458 0.134475
C29   C     C_2   0.770250 0.267670 0.289781 -0.185565
C30   C     C_2   0.648092 0.337722 0.303912 0.007805
H16   H     H_    0.878186 0.252352 0.335850 0.116488
O11   O     O_R   0.770210 0.079270 0.910680 -0.548602
O12   O     O_R   0.440150 0.091160 0.082270 -0.553063
O13   O     O_R   0.269970 0.914530 0.082860 -0.542343
C31   C     C_R   0.607800 0.111021 0.112024 0.743314
O14   O     O_R   0.440480 0.090100 0.911240 -0.524400
O15   O     O_R   0.270310 0.913460 0.910610 -0.510117
C32   C     C_R   0.609548 0.112105 0.883414 0.777777
O16   O     O_R   0.769870 0.080340 0.082930 -0.539568
O17   O     O_3   0.603660 0.938980 0.996790 -0.370301
V3    V     V_3+5 0.328750 0.007610 0.996740 1.440749
O18   O     O_R   0.940600 0.902510 0.911180 -0.548954
C33   C     C_R   0.110170 0.883157 0.880719 0.789873
O19   O     O_R   0.940270 0.903570 0.082200 -0.551922
C34   C     C_R   0.108120 0.885737 0.113030 0.708818
V4    V     V_3+5 0.828770 0.986010 0.996670 1.412625
O20   O     O_3   0.103730 0.054750 0.996710 -0.378204
C35   C     C_3   0.253186 0.873678 0.257721 -0.340668
C36   C     C_3   0.214504 0.973593 0.276012 -0.775494
H17   H     H_    0.245413 0.015727 0.221019 0.225937
H18   H     H_    0.061913 0.983478 0.295359 0.226325
H19   H     H_    0.309163 0.996920 0.326870 0.211165
H20   H     H_    0.239143 0.839009 0.317736 0.200107
H21   H     H_    0.404313 0.865418 0.235738 0.175338
C37   C     C_3   0.511574 0.374312 0.238713 -0.339757
C38   C     C_3   0.552278 0.473750 0.220105 -0.777207
H22   H     H_    0.524122 0.516879 0.275216 0.225767
H23   H     H_    0.704529 0.482547 0.199892 0.225573
H24   H     H_    0.456746 0.496791 0.169745 0.213243
H25   H     H_    0.524317 0.338497 0.178801 0.202278
H26   H     H_    0.360457 0.367030 0.260941 0.175381
C39   C     C_3   0.894098 0.446699 0.871073 -0.359797
C40   C     C_3   0.840150 0.420764 0.959638 -0.770584
H27   H     H_    0.963957 0.432049 0.001515 0.224538
H28   H     H_    0.713363 0.460235 0.981528 0.225932
H29   H     H_    0.801544 0.347982 0.961456 0.220145
H30   H     H_    0.767343 0.433533 0.831355 0.195394
H31   H     H_    0.013065 0.401585 0.850092 0.173016
O21   O     O_3   0.264666 0.997844 0.770516 -0.559839
C41   C     C_3   0.118528 0.061929 0.757420 -0.256788
H32   H     H_    0.973196 0.029961 0.756410 0.137906
H33   H     H_    0.144704 0.101074 0.700041 0.120746
H34   H     H_    0.121630 0.110157 0.809803 0.168453

loop_
_geom_bond_atom_site_label_1
_geom_bond_atom_site_label_2
_ccdc_geom_bond_type
O14   C32   A    
V4    O20   S    
C6    C7    A    
C36   H19   S    
C1    O6    A    
C41   H32   S    
C11   C33   S    
C23   C24   D    
C12   C15   A    
C13   C14   A    
C16   C17   A    
O15   V3    S    
C15   C16   A    
C36   H18   S    
O5    C3    A    
C17   C18   A    
V3    O20   S    
C37   H25   S    
C30   C37   S    
C29   C30   D    
O12   C31   A    
C5    C6    A    
C21   C22   D    
C24   H11   S    
C39   H30   S    
O8    V2    S    
C23   H10   S    
C26   H13   S    
O18   V4    S    
O17   V4    S    
C10   C14   A    
C4    C14   S    
O7    V1    S    
O11   V4    S    
C25   H12   S    
C13   C18   A    
O9    C4    A    
C3    C20   S    
H1    C17   S    
C21   H9    S    
C41   H33   S    
C27   H14   S    
C28   H15   S    
C31   O16   A    
O17   V3    S    
C11   C12   A    
O4    C2    A    
C35   H21   S    
C8    H4    S    
C12   C13   A    
O16   V4    S    
C5    C10   A    
C39   H31   S    
O2    C1    A    
C35   C36   S    
C19   C20   D    
C6    C39   S    
C28   C31   S    
C40   H28   S    
C38   H22   S    
O21   C41   S    
C22   C34   S    
C22   C35   S    
C36   H17   S    
O3    C4    A    
O1    V2    S    
C7    H3    S    
O13   C34   A    
C25   C26   D    
C38   H23   S    
O6    V2    S    
O15   C33   A    
O9    V2    S    
C24   C32   S    
C9    C11   A    
C5    H2    S    
O2    V1    S    
C41   H34   S    
C27   C28   D    
C40   H29   S    
O19   V4    S    
C35   H20   S    
O14   V3    S    
O1    C2    A    
C9    C10   A    
O5    V1    S    
O8    C3    A    
C16   H5    S    
C1    C26   S    
C15   O21   S    
O7    V2    S    
O4    V1    S    
C19   H7    S    
O3    V1    S    
V1    O10   S    
O11   C32   A    
C20   H8    S    
O13   V3    S    
C40   H27   S    
C27   C29   S    
C37   H26   S    
C29   H16   S    
C19   C21   S    
O18   C33   A    
C23   C25   S    
O19   C34   A    
C38   H24   S    
C7    C8    A    
O12   V3    S    
C37   C38   S    
C18   H6    S    
C39   C40   S    
C8    C9    A    
C2    C30   S    
V2    O10   S    
