data_mof_unit_50940.cif
_audit_creation_date              2012-12-11T14:41:11-0500
_audit_creation_method            fapswitch 2.2
_symmetry_space_group_name_H-M    P1
_symmetry_Int_Tables_number       1
_space_group_crystal_system       triclinic
_cell_length_a                    6.939149
_cell_length_b                    17.546016
_cell_length_c                    19.136081
_cell_angle_alpha                 90.0116
_cell_angle_beta                  89.981959
_cell_angle_gamma                 90.031328
_cell_volume                      2329.90191992

loop_
_atom_site_label
_atom_site_type_symbol
_atom_type_description
_atom_site_fract_x
_atom_site_fract_y
_atom_site_fract_z
_atom_type_partial_charge
O1    O     O_R   0.377350 0.828520 0.186660 -0.546384
O2    O     O_R   0.622650 0.171480 0.813340 -0.539531
O3    O     O_R   0.122650 0.171480 0.686660 -0.544919
O4    O     O_R   0.877350 0.828520 0.313340 -0.534492
O5    O     O_R   0.877350 0.671480 0.313340 -0.535842
O6    O     O_R   0.122650 0.328520 0.686660 -0.539320
O7    O     O_R   0.622650 0.328520 0.813340 -0.545048
O8    O     O_R   0.377350 0.671480 0.186660 -0.543425
O9    O     O_R   0.707090 0.671930 0.178410 -0.526616
O10   O     O_R   0.292910 0.328070 0.821590 -0.521286
O11   O     O_R   0.792910 0.328070 0.678410 -0.534284
O12   O     O_R   0.207090 0.671930 0.321590 -0.535510
O13   O     O_R   0.207090 0.828070 0.321590 -0.545212
O14   O     O_R   0.792910 0.171930 0.678410 -0.521081
O15   O     O_R   0.292910 0.171930 0.821590 -0.534352
O16   O     O_R   0.707090 0.828070 0.178410 -0.535598
C1    C     C_R   0.540007 0.644029 0.162932 0.753006
C2    C     C_R   0.460042 0.355487 0.837746 0.739315
C3    C     C_R   0.960337 0.355119 0.662009 0.734209
C4    C     C_R   0.039846 0.644601 0.337601 0.738078
C5    C     C_R   0.040390 0.857320 0.335701 0.714217
C6    C     C_R   0.960018 0.144388 0.662347 0.738216
C7    C     C_R   0.460194 0.144816 0.837891 0.734005
C8    C     C_R   0.540026 0.855295 0.162235 0.712978
O17   O     O_3   0.543850 0.750000 0.294270 -0.370634
O18   O     O_3   0.456150 0.250000 0.705730 -0.370861
O19   O     O_3   0.956150 0.250000 0.794270 -0.371043
O20   O     O_3   0.043850 0.750000 0.205730 -0.370722
V1    V     V_3+5 0.818700 0.750000 0.241790 1.389960
V2    V     V_3+5 0.181300 0.250000 0.758210 1.397114
V3    V     V_3+5 0.681300 0.250000 0.741790 1.397329
V4    V     V_3+5 0.318700 0.750000 0.258210 1.367534
C9    C     C_R   0.960293 0.418691 0.610035 -0.198625
C10   C     C_R   0.041079 0.580863 0.389254 -0.194194
C11   C     C_R   0.541115 0.580245 0.111208 -0.159058
C12   C     C_R   0.458762 0.419232 0.889725 -0.152537
C13   C     C_R   0.459943 0.081207 0.889767 -0.198855
C14   C     C_R   0.541966 0.918830 0.110302 -0.187148
C15   C     C_R   0.041282 0.921833 0.387023 -0.183642
C16   C     C_R   0.959059 0.080708 0.610231 -0.149800
C17   C     C_R   0.192269 0.465853 0.437911 0.281956
C18   C     C_R   0.815298 0.535291 0.562198 0.290169
C19   C     C_R   0.301916 0.531728 0.941100 0.250943
C20   C     C_R   0.696605 0.467079 0.060564 0.266396
C21   C     C_R   0.694022 0.033544 0.061151 0.279940
C22   C     C_R   0.315639 0.964317 0.937435 0.290453
C23   C     C_R   0.803700 0.968033 0.558377 0.248473
C24   C     C_R   0.190859 0.036498 0.437733 0.291889
C25   C     C_R   0.179760 0.521627 0.384921 0.245324
C26   C     C_R   0.823771 0.478652 0.614410 0.242689
C27   C     C_R   0.312484 0.475602 0.888244 0.249865
C28   C     C_R   0.681791 0.521882 0.114757 0.252656
C29   C     C_R   0.682489 0.977555 0.113943 0.250957
C30   C     C_R   0.323608 0.021129 0.885352 0.243336
C31   C     C_R   0.812795 0.024249 0.611267 0.250626
C32   C     C_R   0.173554 0.983832 0.381970 0.261399
C33   C     C_R   0.920583 0.584190 0.447777 -0.284977
C34   C     C_R   0.083384 0.415736 0.552069 -0.291197
C35   C     C_R   0.589516 0.418970 0.945472 -0.298665
C36   C     C_R   0.413316 0.581493 0.054756 -0.308831
C37   C     C_R   0.420724 0.915611 0.051961 -0.287173
C38   C     C_R   0.583325 0.084108 0.947574 -0.290910
C39   C     C_R   0.090007 0.081344 0.554549 -0.298226
C40   C     C_R   0.917779 0.918491 0.444838 -0.275404
C41   C     C_R   0.935388 0.530390 0.502571 -0.007935
C42   C     C_R   0.071744 0.470323 0.497654 -0.009940
C43   C     C_R   0.573036 0.471357 0.001568 0.009192
C44   C     C_R   0.428893 0.528712 0.999104 0.008661
C45   C     C_R   0.435667 0.969306 0.997053 -0.009987
C46   C     C_R   0.572194 0.029371 0.001832 -0.009444
C47   C     C_R   0.072115 0.029940 0.497741 -0.006092
C48   C     C_R   0.930452 0.971695 0.500290 0.003213
H1    H     H_    0.182023 0.368212 0.548744 0.145821
H2    H     H_    0.819292 0.630851 0.450917 0.151166
H3    H     H_    0.305603 0.625938 0.054007 0.152913
H4    H     H_    0.698616 0.375013 0.945873 0.151854
H5    H     H_    0.681934 0.131686 0.950879 0.146244
H6    H     H_    0.318561 0.869178 0.049052 0.152032
H7    H     H_    0.814522 0.872406 0.446524 0.153113
H8    H     H_    0.199690 0.125121 0.554634 0.150261
N1    N     N_2   0.691705 0.482939 0.671247 -0.503970
H9    H     H_    0.747264 0.467697 0.719246 0.241794
C49   C     C_3   0.502835 0.451174 0.656780 -0.422085
H10   H     H_    0.453871 0.415762 0.701330 0.192205
H11   H     H_    0.502940 0.414751 0.609169 0.167870
H12   H     H_    0.398193 0.497952 0.649132 0.189495
N2    N     N_2   0.311671 0.518149 0.327857 -0.511298
H13   H     H_    0.258102 0.536835 0.280611 0.243168
C50   C     C_3   0.502453 0.546892 0.343879 -0.437832
H14   H     H_    0.581442 0.559097 0.294911 0.194343
H15   H     H_    0.584507 0.504224 0.374596 0.209766
H16   H     H_    0.494602 0.600970 0.373823 0.185613
N3    N     N_2   0.809598 0.519236 0.173102 -0.512247
H17   H     H_    0.951490 0.529986 0.160589 0.257403
C51   C     C_3   0.786206 0.455294 0.220235 -0.540965
H18   H     H_    0.851443 0.469755 0.271519 0.186673
H19   H     H_    0.861470 0.404126 0.199928 0.223411
H20   H     H_    0.631138 0.441932 0.228221 0.212130
N4    N     N_2   0.166004 0.472463 0.836136 -0.498051
H21   H     H_    0.027484 0.471100 0.855699 0.264024
C52   C     C_3   0.187807 0.524422 0.778058 -0.538642
H22   H     H_    0.134899 0.496298 0.729935 0.182737
H23   H     H_    0.340936 0.541190 0.770477 0.202327
H24   H     H_    0.099286 0.576259 0.786678 0.211548
N5    N     N_2   0.191461 0.016841 0.828571 -0.503512
H25   H     H_    0.247031 0.032112 0.780563 0.241852
C53   C     C_3   0.002738 0.048651 0.843106 -0.424009
H26   H     H_    0.954370 0.084447 0.798756 0.192153
H27   H     H_    0.002766 0.084709 0.890946 0.167719
H28   H     H_    0.897654 0.001909 0.850381 0.188958
N6    N     N_2   0.818935 0.979855 0.169572 -0.511371
H29   H     H_    0.768765 0.961302 0.217357 0.247052
C54   C     C_3   0.007011 0.950140 0.151063 -0.445891
H30   H     H_    0.093062 0.940054 0.198751 0.177407
H31   H     H_    0.085029 0.991278 0.117317 0.212337
H32   H     H_    0.994344 0.894801 0.123396 0.188366
N7    N     N_2   0.286842 0.996070 0.320483 -0.512117
H33   H     H_    0.322832 0.948897 0.291561 0.253734
C55   C     C_3   0.227932 0.060014 0.277504 -0.531662
H34   H     H_    0.311854 0.060168 0.228029 0.188223
H35   H     H_    0.255550 0.114905 0.304285 0.229695
H36   H     H_    0.071998 0.056146 0.264963 0.207785
N8    N     N_2   0.665012 0.027319 0.662904 -0.498056
H37   H     H_    0.526917 0.027955 0.642946 0.264831
C56   C     C_3   0.686761 0.976155 0.721564 -0.538825
H38   H     H_    0.634655 0.005034 0.769419 0.183060
H39   H     H_    0.839739 0.959248 0.729140 0.201816
H40   H     H_    0.597593 0.924313 0.713659 0.210641
N9    N     N_2   0.331960 0.406871 0.430529 -0.508142
H41   H     H_    0.413429 0.395705 0.474359 0.237752
C57   C     C_3   0.262957 0.339377 0.395121 -0.532046
H42   H     H_    0.383954 0.298741 0.387889 0.194242
H43   H     H_    0.204926 0.354462 0.342800 0.214984
H44   H     H_    0.148513 0.311182 0.426475 0.177521
N10   N     N_2   0.691307 0.599109 0.572674 -0.498566
H45   H     H_    0.757546 0.651615 0.569317 0.241524
C58   C     C_3   0.504108 0.595605 0.539323 -0.532636
H46   H     H_    0.496930 0.636923 0.495507 0.169997
H47   H     H_    0.391308 0.611269 0.577810 0.204190
H48   H     H_    0.472776 0.537634 0.519033 0.199403
N11   N     N_2   0.154744 0.588188 0.936481 -0.517365
H49   H     H_    0.067365 0.592005 0.979927 0.250144
C59   C     C_3   0.218048 0.661528 0.910343 -0.547404
H50   H     H_    0.090577 0.698169 0.900422 0.201116
H51   H     H_    0.298848 0.654806 0.860648 0.208288
H52   H     H_    0.312456 0.690557 0.948845 0.180473
N12   N     N_2   0.828575 0.405461 0.068515 -0.527123
H53   H     H_    0.772663 0.352332 0.057573 0.247061
C60   C     C_3   0.017762 0.418031 0.039275 -0.560448
H54   H     H_    0.112977 0.369325 0.052573 0.197969
H55   H     H_    0.082370 0.470606 0.061247 0.205154
H56   H     H_    0.008799 0.422850 0.981594 0.193746
N13   N     N_2   0.834919 0.092206 0.068121 -0.509246
H57   H     H_    0.915215 0.103460 0.024004 0.237777
C61   C     C_3   0.768438 0.159588 0.104291 -0.530888
H58   H     H_    0.890361 0.199927 0.111080 0.193223
H59   H     H_    0.712328 0.144253 0.156845 0.216244
H60   H     H_    0.653179 0.188216 0.073734 0.177804
N14   N     N_2   0.193520 0.899970 0.926563 -0.498442
H61   H     H_    0.260792 0.847737 0.930382 0.241561
C62   C     C_3   0.004841 0.902794 0.958864 -0.533783
H62   H     H_    0.893979 0.887225 0.919623 0.204861
H63   H     H_    0.971930 0.960500 0.979431 0.199363
H64   H     H_    0.996218 0.861026 0.002283 0.169054
N15   N     N_2   0.657213 0.911220 0.562756 -0.518124
H65   H     H_    0.571868 0.906639 0.518857 0.251921
C63   C     C_3   0.720629 0.838373 0.589908 -0.546539
H66   H     H_    0.593415 0.801367 0.599310 0.201228
H67   H     H_    0.798754 0.845859 0.640050 0.208606
H68   H     H_    0.817592 0.809329 0.552261 0.179638
N16   N     N_2   0.325470 0.097484 0.431013 -0.517056
H69   H     H_    0.275700 0.150519 0.445512 0.238349
C64   C     C_3   0.517605 0.080578 0.455370 -0.517554
H70   H     H_    0.615072 0.128859 0.442780 0.191311
H71   H     H_    0.573724 0.028614 0.429191 0.220628
H72   H     H_    0.516431 0.072150 0.512807 0.181926

loop_
_geom_bond_atom_site_label_1
_geom_bond_atom_site_label_2
_ccdc_geom_bond_type
C59   H52   S    
N2    H13   S    
N15   H65   S    
C61   H59   S    
C51   H18   S    
C32   N7    S    
C25   N2    S    
C38   H5    S    
N6    H29   S    
O14   V3    S    
N16   H69   S    
C57   H44   S    
C19   C27   A    
N7    C55   S    
N1    H9    S    
C51   H20   S    
C60   H54   S    
N10   H45   S    
C63   H67   S    
O5    C4    A    
C64   H70   S    
C15   C40   A    
N16   C64   S    
O11   C3    A    
C9    C34   A    
C16   C39   A    
O20   V1    S    
N12   C60   S    
C54   H30   S    
C55   H35   S    
C60   H55   S    
N14   H61   S    
C23   N15   S    
N8    C56   S    
C59   H50   S    
C20   N12   S    
C35   C43   A    
C38   C46   A    
C24   C32   A    
C52   H23   S    
C22   C45   A    
O13   V4    S    
C62   H63   S    
C12   C35   A    
C34   C42   A    
N12   H53   S    
C19   C44   A    
C18   C41   A    
C8    C14   S    
C53   H26   S    
N14   C62   S    
N13   C61   S    
O4    V1    S    
O9    V1    S    
C14   C37   A    
C4    C10   S    
C29   N6    S    
O17   V4    S    
O15   C7    A    
O11   V3    S    
O18   V3    S    
O16   C8    A    
N10   C58   S    
C11   C36   A    
O12   V4    S    
O19   V2    S    
O17   V1    S    
C53   H27   S    
O12   C4    A    
C17   C25   A    
N1    C49   S    
C62   H62   S    
C63   H68   S    
O5    V1    S    
C39   H8    S    
C64   H71   S    
C27   N4    S    
C58   H48   S    
C31   N8    S    
C61   H58   S    
O7    V3    S    
C20   C43   A    
O19   V3    S    
C43   C44   A    
O8    V4    S    
C52   H22   S    
N8    H37   S    
C3    C9    S    
C60   H56   S    
C50   H14   S    
C63   H66   S    
O16   V1    S    
C7    C13   S    
O1    V4    S    
O2    V3    S    
C33   H2    S    
O3    V2    S    
O6    C3    A    
C10   C33   A    
C24   N16   S    
N5    C53   S    
O10   V2    S    
C49   H10   S    
C5    C15   S    
O20   V4    S    
C37   H6    S    
O7    C2    A    
C6    C16   S    
C22   C30   A    
O13   C5    A    
C28   N3    S    
N6    C54   S    
N3    H17   S    
C50   H16   S    
C58   H47   S    
O14   C6    A    
C12   C27   A    
C18   C26   A    
C13   C30   A    
O9    C1    A    
C49   H11   S    
C39   C47   A    
O18   V2    S    
C52   H24   S    
N2    C50   S    
C56   H38   S    
C53   H28   S    
C19   N11   S    
C21   N13   S    
C24   C47   A    
C57   H42   S    
C15   C32   A    
C11   C28   A    
C62   H64   S    
O15   V2    S    
C23   C31   A    
N9    H41   S    
C58   H46   S    
C55   H36   S    
C37   C45   A    
C59   H51   S    
C10   C25   A    
C30   N5    S    
O6    V2    S    
C21   C46   A    
C33   C41   A    
C57   H43   S    
C16   C31   A    
C55   H34   S    
C51   H19   S    
C17   C42   A    
C40   H7    S    
N5    H25   S    
C36   H3    S    
O8    C1    A    
N4    H21   S    
C54   H32   S    
N11   C59   S    
C9    C26   A    
C47   C48   A    
C41   C42   A    
N7    H33   S    
C17   N9    S    
O4    C5    A    
C20   C28   A    
N3    C51   S    
C14   C29   A    
O10   C2    A    
C56   H40   S    
C61   H60   S    
C22   N14   S    
C64   H72   S    
C40   C48   A    
C26   N1    S    
C45   C46   A    
C23   C48   A    
C21   C29   A    
C49   H12   S    
C36   C44   A    
O1    C8    A    
N15   C63   S    
C50   H15   S    
O2    C7    A    
C56   H39   S    
C13   C38   A    
C18   N10   S    
O3    C6    A    
C1    C11   S    
C54   H31   S    
N13   H57   S    
N11   H49   S    
C2    C12   S    
C35   H4    S    
N4    C52   S    
C34   H1    S    
N9    C57   S    
