data_mof_unit_7582.cif
_audit_creation_date              2012-12-10T17:57:48-0500
_audit_creation_method            fapswitch 2.2
_symmetry_space_group_name_H-M    P1
_symmetry_Int_Tables_number       1
_space_group_crystal_system       triclinic
_cell_length_a                    10.923033
_cell_length_b                    9.526212
_cell_length_c                    15.077818
_cell_angle_alpha                 89.980866
_cell_angle_beta                  90.255946
_cell_angle_gamma                 90.139776
_cell_volume                      1568.90387819

loop_
_atom_site_label
_atom_site_type_symbol
_atom_type_description
_atom_site_fract_x
_atom_site_fract_y
_atom_site_fract_z
_atom_type_partial_charge
C1    C     C_R   0.262385 0.499965 0.499957 0.974677
C2    C     C_R   0.738323 0.500230 0.500081 0.930663
C3    C     C_R   0.469185 0.752850 0.046681 -0.288730
C4    C     C_R   0.528125 0.246631 0.953283 -0.289250
C5    C     C_R   0.062750 0.379039 0.475222 0.299999
C6    C     C_R   0.940161 0.628805 0.502229 0.283306
C7    C     C_R   0.939453 0.372785 0.497966 0.288651
C8    C     C_R   0.064032 0.622136 0.524771 0.295001
C9    C     C_R   0.873034 0.500742 0.500055 -0.382192
C10   C     C_R   0.128958 0.500306 0.499993 -0.383850
C11   C     C_R   0.462086 0.074118 0.427085 0.072916
C12   C     C_R   0.537926 0.925815 0.572905 0.064129
C13   C     C_R   0.537460 0.074233 0.573007 0.060598
C14   C     C_R   0.461302 0.925654 0.427285 0.029288
C15   C     C_R   0.499583 0.499987 0.328604 0.833317
C16   C     C_R   0.500335 0.499989 0.671396 0.834960
C17   C     C_R   0.513920 0.373652 0.814664 -0.180182
C18   C     C_R   0.484592 0.626060 0.185316 -0.177705
C19   C     C_R   0.500421 0.500067 0.768224 -0.062206
C20   C     C_R   0.498678 0.499759 0.231774 -0.060800
C21   C     C_R   0.486553 0.626648 0.814393 -0.191462
C22   C     C_R   0.512130 0.373072 0.185625 -0.198441
C23   C     C_R   0.484944 0.628052 0.906995 0.022989
C24   C     C_R   0.512906 0.371493 0.093000 0.023109
C25   C     C_R   0.499151 0.500158 0.953504 0.000091
C26   C     C_R   0.498519 0.499363 0.046485 0.000463
C27   C     C_R   0.513903 0.372914 0.907002 0.051434
C28   C     C_R   0.483878 0.626649 0.092979 0.052047
C29   C     C_R   0.468049 0.754413 0.953864 0.482271
C30   C     C_R   0.529418 0.245039 0.046138 0.481549
Cu1   Cu    Cu3+1 0.500000 0.640660 0.500000 1.044548
Cu2   Cu    Cu3+1 0.500000 0.359340 0.500000 1.055805
H1    H     H_    0.525083 0.275657 0.779067 0.151500
H2    H     H_    0.473733 0.724111 0.220904 0.148808
H3    H     H_    0.475808 0.723958 0.778003 0.183727
H4    H     H_    0.523430 0.275862 0.222054 0.188840
H5    H     H_    0.458583 0.850524 0.082506 0.201333
H6    H     H_    0.538248 0.148959 0.917383 0.200715
H7    H     H_    0.430819 0.129097 0.368611 0.128569
H8    H     H_    0.569473 0.870789 0.631328 0.126943
H9    H     H_    0.567453 0.129249 0.631790 0.124170
H10   H     H_    0.429039 0.870471 0.369094 0.122754
N1    N     N_R   0.500000 0.852070 0.500000 -0.165614
N2    N     N_R   0.500000 0.147930 0.500000 -0.163781
O1    O     O_R   0.319640 0.618740 0.499990 -0.532686
O2    O     O_R   0.680360 0.381260 0.500010 -0.518151
O3    O     O_R   0.680360 0.618740 0.500010 -0.527148
O4    O     O_R   0.319640 0.381260 0.499990 -0.529558
O5    O     O_R   0.499970 0.618800 0.370260 -0.604315
O6    O     O_R   0.500030 0.381200 0.629740 -0.599798
O7    O     O_R   0.500030 0.618800 0.629740 -0.600567
O8    O     O_R   0.499970 0.381200 0.370260 -0.599738
O9    O     O_3   0.458825 0.880615 0.908965 -0.602846
C31   C     C_3   0.335766 0.924803 0.910392 -0.311015
H11   H     H_    0.273449 0.843580 0.881926 0.173792
H12   H     H_    0.327078 0.020303 0.868728 0.197748
H13   H     H_    0.306860 0.953173 0.978706 0.189570
O10   O     O_3   0.538308 0.118894 0.091198 -0.602877
C32   C     C_3   0.660270 0.071280 0.087014 -0.301619
H14   H     H_    0.669288 0.977175 0.129898 0.196530
H15   H     H_    0.725762 0.151762 0.112415 0.176355
H16   H     H_    0.684809 0.039440 0.018419 0.187914
S1    S     S_3+6 0.123402 0.247896 0.403725 0.075768
O11   O     O_2   0.190513 0.139519 0.457363 -0.207270
O12   O     O_2   0.021393 0.177937 0.353003 -0.224480
O13   O     O_3   0.220320 0.322274 0.331010 -0.568416
H17   H     H_    0.246403 0.244705 0.291716 0.358635
S2    S     S_3+6 0.881112 0.792757 0.464969 0.116550
O14   O     O_2   0.810787 0.859772 0.539088 -0.241133
O15   O     O_2   0.983849 0.888193 0.437547 -0.139769
O16   O     O_3   0.788703 0.769087 0.376550 -0.537175
H18   H     H_    0.746183 0.859986 0.368537 0.370975
S3    S     S_3+6 0.881738 0.210829 0.539453 0.109016
O17   O     O_2   0.805366 0.140188 0.469262 -0.219792
O18   O     O_2   0.985624 0.116203 0.565681 -0.154974
O19   O     O_3   0.796108 0.241000 0.629941 -0.561178
H19   H     H_    0.791752 0.149551 0.661069 0.364090
S4    S     S_3+6 0.127573 0.753187 0.596080 0.083817
O20   O     O_2   0.196108 0.860276 0.542370 -0.204158
O21   O     O_2   0.027679 0.825115 0.646893 -0.220568
O22   O     O_3   0.224141 0.677879 0.669023 -0.563334
H20   H     H_    0.261368 0.757149 0.702095 0.356851

loop_
_geom_bond_atom_site_label_1
_geom_bond_atom_site_label_2
_ccdc_geom_bond_type
S1    O12   D    
Cu2   O4    S    
S3    O17   D    
C16   O7    A    
C6    C9    A    
C13   H9    S    
O22   H20   S    
C7    S3    S    
O9    C31   S    
C2    O2    A    
Cu1   N1    S    
C23   C29   A    
C3    C28   A    
C19   C21   A    
C16   O6    A    
C12   N1    A    
C16   C19   S    
C11   C14   A    
S4    O21   D    
C5    S1    S    
C3    C29   A    
Cu2   O8    S    
S2    O14   D    
C14   H10   S    
C6    S2    S    
O13   H17   S    
S1    O13   S    
C32   H14   S    
Cu1   O3    S    
C8    S4    S    
S3    O18   D    
C17   H1    S    
Cu1   O5    S    
C15   C20   S    
C31   H12   S    
C32   H15   S    
C17   C27   A    
C18   C28   A    
O19   H19   S    
Cu1   O7    S    
C5    C7    A    
S4    O20   D    
C6    C8    A    
C25   C26   A    
C12   H8    S    
Cu1   Cu2   S    
Cu2   N2    S    
C11   N2    A    
C15   O8    A    
C11   H7    S    
C18   H2    S    
Cu2   O6    S    
C8    C10   A    
C20   C22   A    
C21   C23   A    
S3    O19   S    
C22   C24   A    
C4    C27   A    
C7    C9    A    
C31   H11   S    
C32   H16   S    
Cu2   O2    S    
C1    C10   S    
C24   C26   A    
C1    O4    A    
C21   H3    S    
C2    O3    A    
C25   C27   A    
C22   H4    S    
C26   C28   A    
O10   C32   S    
O16   H18   S    
S4    O22   S    
C1    O1    A    
C29   O9    S    
S2    O16   S    
C30   O10   S    
C17   C19   A    
C18   C20   A    
C15   O5    A    
C24   C30   A    
S1    O11   D    
C5    C10   A    
C23   C25   A    
C12   C13   A    
C3    H5    S    
S2    O15   D    
Cu1   O1    S    
C4    H6    S    
C2    C9    S    
C13   N2    A    
C4    C30   A    
C14   N1    A    
C31   H13   S    
