data_mof_unit_50516.cif
_audit_creation_date              2012-12-11T14:56:13-0500
_audit_creation_method            fapswitch 2.2
_symmetry_space_group_name_H-M    P1
_symmetry_Int_Tables_number       1
_space_group_crystal_system       triclinic
_cell_length_a                    28.011653
_cell_length_b                    17.362969
_cell_length_c                    18.025851
_cell_angle_alpha                 90.097865
_cell_angle_beta                  138.196071
_cell_angle_gamma                 89.922742
_cell_volume                      5844.03065743

loop_
_atom_site_label
_atom_site_type_symbol
_atom_type_description
_atom_site_fract_x
_atom_site_fract_y
_atom_site_fract_z
_atom_type_partial_charge
C1    C     C_R   0.666056 0.924526 0.817269 -0.056087
C2    C     C_3   0.296563 0.704136 0.021839 0.454399
C3    C     C_3   0.660045 0.763010 0.963450 0.457849
C4    C     C_3   0.209013 0.785283 0.938721 0.452094
C5    C     C_3   0.836232 0.260608 0.035345 0.460304
C6    C     C_3   0.792218 0.789196 0.066571 0.446138
C7    C     C_3   0.160421 0.268598 0.968949 0.475209
C8    C     C_3   0.275548 0.760510 0.059359 -0.402378
C9    C     C_3   0.770015 0.284035 0.911690 -0.358192
C10   C     C_3   0.728838 0.763679 0.945035 -0.404200
C11   C     C_3   0.227979 0.292609 0.092127 -0.362936
C12   C     C_3   0.771469 0.264333 0.061366 -0.392974
C13   C     C_3   0.248694 0.348761 0.052737 0.454296
C14   C     C_3   0.271777 0.791260 0.908733 -0.367054
C15   C     C_3   0.224538 0.260001 0.942157 -0.392616
C16   C     C_3   0.724327 0.787577 0.087303 -0.364623
C17   C     C_3   0.318380 0.824075 0.068837 -0.225534
C18   C     C_3   0.724908 0.226314 0.904642 -0.249404
C19   C     C_3   0.681735 0.823433 0.931071 -0.225380
C20   C     C_3   0.270137 0.228687 0.100503 -0.230143
C21   C     C_3   0.817080 0.322698 0.070043 -0.222816
C22   C     C_3   0.229437 0.728145 0.900888 -0.242085
C23   C     C_3   0.181914 0.324412 0.932093 -0.237567
C24   C     C_3   0.707099 0.703653 0.977939 0.457491
C25   C     C_3   0.771047 0.728395 0.099759 -0.240951
C26   C     C_3   0.251549 0.848347 0.948253 0.460244
C27   C     C_3   0.790758 0.202647 0.026151 0.457214
C28   C     C_3   0.745316 0.848414 0.052458 0.466544
C29   C     C_3   0.203020 0.204565 0.979514 0.454868
C30   C     C_R   0.719276 0.763547 0.610251 0.020781
C31   C     C_R   0.281250 0.248066 0.363081 -0.001160
C32   C     C_R   0.282368 0.764763 0.395690 0.037809
C33   C     C_R   0.311867 0.100490 0.196521 -0.051097
C34   C     C_R   0.599076 0.138950 0.336337 0.002169
C35   C     C_R   0.180663 0.287363 0.499389 -0.014744
C36   C     C_R   0.901399 0.638916 0.664364 0.004387
C37   C     C_R   0.780941 0.263582 0.390044 0.021687
C38   C     C_R   0.098282 0.639576 0.335677 0.014635
C39   C     C_R   0.294787 0.344475 0.472887 -0.036581
C40   C     C_R   0.753940 0.629874 0.630990 -0.066993
C41   C     C_R   0.600939 0.255168 0.267226 -0.047366
C42   C     C_R   0.246673 0.631116 0.371384 -0.089289
C43   C     C_R   0.899507 0.755156 0.733756 -0.066076
C44   C     C_R   0.334673 0.925208 0.183126 -0.052767
C45   C     C_R   0.143601 0.216794 0.345518 -0.024238
C46   C     C_R   0.101813 0.756933 0.270550 -0.062176
C47   C     C_R   0.746539 0.129911 0.369630 -0.060803
C48   C     C_R   0.308601 0.319694 0.417187 -0.152595
C49   C     C_R   0.709072 0.684261 0.611697 -0.115341
C50   C     C_R   0.564237 0.205483 0.270632 -0.093889
C51   C     C_R   0.291949 0.685560 0.392131 -0.118083
C52   C     C_R   0.936231 0.705467 0.730214 -0.103462
C53   C     C_R   0.133642 0.236212 0.407788 -0.133697
C54   C     C_R   0.064006 0.706642 0.271080 -0.114758
C55   C     C_R   0.686360 0.099781 0.806898 -0.056166
C56   C     C_R   0.791238 0.184274 0.388641 -0.110801
C57   C     C_R   0.214618 0.227452 0.314976 0.520795
C58   C     C_R   0.782156 0.787975 0.646295 0.513397
C59   C     C_R   0.650287 0.105361 0.348178 0.535072
C60   C     C_R   0.219855 0.789255 0.360614 0.510535
C61   C     C_R   0.850309 0.605291 0.652651 0.531166
C62   C     C_R   0.240536 0.315971 0.529891 0.517965
C63   C     C_R   0.149614 0.606118 0.347806 0.532522
C64   C     C_R   0.718131 0.288024 0.354273 0.517492
C65   C     C_R   0.199452 0.249996 0.370444 -0.091326
C66   C     C_R   0.166104 0.424814 0.817270 -0.052605
C67   C     C_R   0.832346 0.733094 0.682611 -0.101977
C68   C     C_R   0.687290 0.154431 0.342151 -0.075164
C69   C     C_R   0.169028 0.734587 0.322115 -0.094320
C70   C     C_R   0.813238 0.654378 0.658686 -0.074314
C71   C     C_R   0.245389 0.303662 0.459011 -0.058297
C72   C     C_R   0.187406 0.655597 0.343799 -0.056719
C73   C     C_R   0.668092 0.233127 0.318269 -0.103835
C74   C     C_R   0.324819 0.105840 0.401293 0.726648
C75   C     C_R   0.675060 0.896399 0.597450 0.870648
C76   C     C_R   0.636224 0.069146 0.501985 0.724878
C77   C     C_R   0.812043 0.600492 0.196144 -0.052357
C78   C     C_R   0.325705 0.897621 0.406975 0.793960
C79   C     C_R   0.863881 0.569229 0.498165 0.725218
C80   C     C_R   0.171627 0.398341 0.582223 0.823857
C81   C     C_R   0.136149 0.569829 0.501736 0.707704
C82   C     C_R   0.824961 0.396386 0.402544 0.873520
C83   C     C_R   0.408713 0.805643 0.502187 0.667885
C84   C     C_R   0.555227 0.162618 0.417537 0.672021
C85   C     C_R   0.592058 0.805040 0.500391 0.670481
C86   C     C_R   0.407456 0.197251 0.489345 0.670155
C87   C     C_R   0.908043 0.305091 0.499685 0.668867
C88   C     C_R   0.835096 0.425479 0.183327 -0.062221
C89   C     C_R   0.054835 0.662729 0.417258 0.662300
C90   C     C_R   0.089861 0.306248 0.494356 0.609792
C91   C     C_R   0.944763 0.662731 0.582528 0.665598
C92   C     C_R   0.602160 0.190826 0.718530 -0.003233
C93   C     C_R   0.419110 0.834159 0.273423 -0.065713
C94   C     C_R   0.393447 0.193230 0.286059 0.052749
C95   C     C_R   0.581518 0.833958 0.726949 -0.067149
C96   C     C_R   0.106329 0.693031 0.714666 0.050387
C97   C     C_R   0.919207 0.334075 0.273626 -0.085355
C98   C     C_R   0.893769 0.693118 0.285939 0.045251
C99   C     C_R   0.187900 0.600172 0.804261 -0.058004
C100  C     C_R   0.081469 0.334348 0.727221 -0.048641
C101  C     C_R   0.638122 0.867323 0.829530 0.146933
C102  C     C_R   0.323147 0.175713 0.191127 0.088332
C103  C     C_R   0.362561 0.867860 0.170784 0.143145
C104  C     C_R   0.672015 0.172686 0.815676 0.132549
C105  C     C_R   0.138306 0.367775 0.829897 0.135577
C106  C     C_R   0.823744 0.675466 0.190426 0.104491
C107  C     C_R   0.862753 0.367779 0.170945 0.153273
C108  C     C_R   0.176356 0.675150 0.810343 0.107537
C109  C     C_R   0.335070 0.185839 0.416130 -0.348245
C110  C     C_3   0.751499 0.346616 0.948753 0.460337
C111  C     C_R   0.663317 0.819662 0.566038 -0.329285
C112  C     C_R   0.596294 0.122137 0.413881 -0.316008
C113  C     C_R   0.338052 0.820917 0.439358 -0.331130
C114  C     C_R   0.903872 0.622235 0.586375 -0.308190
C115  C     C_R   0.156753 0.322443 0.542643 -0.242997
C116  C     C_R   0.095642 0.622468 0.413226 -0.300022
C117  C     C_R   0.836781 0.319702 0.434030 -0.333570
C118  C     C_3   0.706136 0.288703 0.939855 0.441518
C119  C     C_3   0.339350 0.767350 0.031849 0.461799
C120  C     C_3   0.291030 0.284934 0.062775 0.450218
Cl1   Cl    Cl    0.621427 0.309193 0.882980 -0.480382
Cl2   Cl    Cl    0.330797 0.610305 0.079214 -0.445626
Cl3   Cl    Cl    0.278350 0.444429 0.104192 -0.470709
Cl4   Cl    Cl    0.677787 0.609209 0.920649 -0.450557
Cl5   Cl    Cl    0.222343 0.944098 0.896963 -0.445323
Cl6   Cl    Cl    0.820729 0.108746 0.084736 -0.452256
Cl7   Cl    Cl    0.769075 0.944355 0.103682 -0.454534
Cl8   Cl    Cl    0.168338 0.110695 0.922340 -0.425087
Cl9   Cl    Cl    0.791255 0.881616 0.618177 -0.406813
Cl10  Cl    Cl    0.151762 0.178424 0.186157 -0.426148
Cl11  Cl    Cl    0.211939 0.882401 0.391929 -0.487124
Cl12  Cl    Cl    0.426740 0.757457 0.094660 -0.454822
Cl13  Cl    Cl    0.663822 0.004685 0.362604 -0.478143
Cl14  Cl    Cl    0.316498 0.353092 0.664273 -0.417778
Cl15  Cl    Cl    0.836905 0.504601 0.638114 -0.482965
Cl16  Cl    Cl    0.708937 0.381822 0.382208 -0.405874
Cl17  Cl    Cl    0.163642 0.505432 0.363153 -0.602967
Cl18  Cl    Cl    0.375800 0.298440 0.117428 -0.494429
Cl19  Cl    Cl    0.571629 0.747311 0.894861 -0.465143
Cl20  Cl    Cl    0.124302 0.799580 0.884069 -0.508104
Cl21  Cl    Cl    0.923323 0.243805 0.099170 -0.525950
Cl22  Cl    Cl    0.877962 0.809558 0.127087 -0.505951
Cl23  Cl    Cl    0.072946 0.259739 0.906010 -0.433348
Cl24  Cl    Cl    0.726904 0.442046 0.895574 -0.459292
F1    F     F_    0.260640 0.070337 0.323670 -0.573254
F2    F     F_    0.520889 0.230135 0.366989 -0.668717
F3    F     F_    0.561291 0.734881 0.472466 -0.657614
F4    F     F_    0.439396 0.264844 0.508894 -0.689011
F5    F     F_    0.938932 0.234954 0.527784 -0.652611
F6    F     F_    0.021168 0.730705 0.367915 -0.672041
F7    F     F_    0.063820 0.234766 0.478032 -0.634960
F8    F     F_    0.978875 0.730400 0.632924 -0.671508
F9    F     F_    0.739117 0.924204 0.695135 -0.612267
F10   F     F_    0.694611 0.030419 0.545915 -0.583046
F11   F     F_    0.260903 0.924152 0.309793 -0.581983
F12   F     F_    0.805535 0.530547 0.454315 -0.583508
F13   F     F_    0.237792 0.424362 0.676350 -0.562493
F14   F     F_    0.197109 0.535806 0.548883 -0.595804
F15   F     F_    0.760860 0.424090 0.304902 -0.607582
F16   F     F_    0.439196 0.735311 0.529746 -0.660671
H1    H     H_    0.714838 0.956340 0.883162 0.178888
H2    H     H_    0.107328 0.175857 0.278133 0.225158
H3    H     H_    0.080933 0.814381 0.237456 0.218092
H4    H     H_    0.760534 0.069597 0.381409 0.213592
H5    H     H_    0.324483 0.393056 0.529079 0.213049
H6    H     H_    0.740015 0.569551 0.619181 0.214398
H7    H     H_    0.579304 0.312143 0.232429 0.217889
H8    H     H_    0.260033 0.570711 0.381416 0.198165
H9    H     H_    0.577582 0.247161 0.691534 0.210581
H10   H     H_    0.448331 0.783335 0.290747 0.219160
H11   H     H_    0.415700 0.250578 0.315372 0.225690
H12   H     H_    0.260704 0.072738 0.145387 0.204537
H13   H     H_    0.551998 0.783500 0.709435 0.220198
H14   H     H_    0.084456 0.750516 0.685316 0.209310
H15   H     H_    0.948062 0.282760 0.291139 0.206436
H16   H     H_    0.915951 0.750456 0.315573 0.212774
H17   H     H_    0.051635 0.284244 0.709854 0.215662
H18   H     H_    0.276789 0.747760 0.121187 0.224869
H19   H     H_    0.768382 0.290891 0.848608 0.231825
H20   H     H_    0.730889 0.753713 0.886522 0.223597
H21   H     H_    0.230020 0.304942 0.154885 0.221477
H22   H     H_    0.771988 0.256093 0.123104 0.224192
H23   H     H_    0.286301 0.957645 0.117574 0.181730
H24   H     H_    0.269489 0.802705 0.845567 0.232225
H25   H     H_    0.223506 0.246405 0.880700 0.238200
H26   H     H_    0.723288 0.796279 0.147110 0.232902
H27   H     H_    0.664378 0.663143 0.591785 0.237268
H28   H     H_    0.349847 0.348905 0.433955 0.239793
H29   H     H_    0.336252 0.664414 0.410982 0.233976
H30   H     H_    0.513988 0.224764 0.235104 0.254757
H31   H     H_    0.087078 0.211973 0.380356 0.234238
H32   H     H_    0.986408 0.724792 0.765582 0.254449
H33   H     H_    0.835878 0.163138 0.408339 0.237412
H34   H     H_    0.738533 0.074013 0.859647 0.178533
H35   H     H_    0.013605 0.725925 0.235120 0.252085
H36   H     H_    0.214628 0.457075 0.882746 0.181558
H37   H     H_    0.760700 0.572852 0.144126 0.183040
H38   H     H_    0.786553 0.457645 0.117526 0.181713
H39   H     H_    0.239155 0.572501 0.855737 0.183378
H40   H     H_    0.921065 0.812175 0.768568 0.216359
N1    N     N_R   0.625380 0.928280 0.709340 -0.074271
N2    N     N_R   0.613900 0.929750 0.547530 -0.183224
N3    N     N_R   0.613900 0.070250 0.547530 -0.159711
N4    N     N_R   0.386100 0.929750 0.452470 -0.168029
N5    N     N_R   0.886100 0.570250 0.452470 -0.158396
N6    N     N_R   0.113900 0.429750 0.547530 -0.187488
N7    N     N_R   0.113900 0.570250 0.547530 -0.156160
N8    N     N_R   0.886100 0.429750 0.452470 -0.183789
N9    N     N_R   0.437800 0.869550 0.507970 -0.160563
N10   N     N_R   0.562200 0.130450 0.492030 -0.152010
N11   N     N_R   0.562200 0.869550 0.492030 -0.168235
N12   N     N_R   0.374620 0.071720 0.290660 -0.091470
N13   N     N_R   0.437800 0.130450 0.507970 -0.155375
N14   N     N_R   0.937800 0.369550 0.507970 -0.168481
N15   N     N_R   0.062200 0.630450 0.492030 -0.157085
N16   N     N_R   0.062200 0.369550 0.492030 -0.164298
N17   N     N_R   0.937800 0.630450 0.507970 -0.157928
N18   N     N_R   0.573690 0.128980 0.653840 -0.069431
N19   N     N_R   0.426310 0.871020 0.346160 -0.068303
N20   N     N_R   0.426310 0.128980 0.346160 -0.091866
N21   N     N_R   0.573690 0.871020 0.653840 -0.068878
N22   N     N_R   0.073690 0.628980 0.653840 -0.085268
N23   N     N_R   0.374620 0.928280 0.290660 -0.069890
N24   N     N_R   0.926310 0.371020 0.346160 -0.066402
N25   N     N_R   0.926310 0.628980 0.346160 -0.085813
N26   N     N_R   0.073690 0.371020 0.653840 -0.059166
N27   N     N_R   0.625380 0.071720 0.709340 -0.072704
N28   N     N_R   0.125380 0.428280 0.709340 -0.070180
N29   N     N_R   0.874620 0.571720 0.290660 -0.078944
N30   N     N_R   0.874620 0.428280 0.290660 -0.073729
N31   N     N_R   0.125380 0.571720 0.709340 -0.079880
N32   N     N_R   0.386100 0.070250 0.452470 -0.161842
Ni1   Ni    Ni4+2 0.616560 1.000000 0.627280 0.284941
Ni2   Ni    Ni4+2 0.383440 0.000000 0.372720 0.294198
Ni3   Ni    Ni4+2 0.116560 0.500000 0.627280 0.279544
Ni4   Ni    Ni4+2 0.883440 0.500000 0.372720 0.276197
Ni5   Ni    Ni4+2 0.497990 0.870580 0.500000 0.301142
Ni6   Ni    Ni4+2 0.502010 0.129420 0.500000 0.279172
Ni7   Ni    Ni4+2 0.997990 0.370580 0.500000 0.307649
Ni8   Ni    Ni4+2 0.002010 0.629420 0.500000 0.252215

loop_
_geom_bond_atom_site_label_1
_geom_bond_atom_site_label_2
_ccdc_geom_bond_type
C61   C70   A    
C16   C28   S    
C88   N30   A    
C64   Cl16  S    
C39   H5    S    
C7    C29   S    
C35   C53   A    
C34   C112  S    
C83   C113  A    
C74   F1    S    
C80   N6    A    
C11   H21   S    
N1    N21   A    
N2    N11   A    
C4    C8    S    
C36   C114  S    
C9    C18   S    
C93   C103  A    
C74   C109  A    
C82   N8    A    
C21   C110  S    
C76   N3    A    
N7    Ni3   S    
C62   C71   A    
C22   C108  S    
C7    C11   S    
C99   C108  A    
C15   H25   S    
N5    N17   A    
C100  C105  A    
C95   N21   A    
C96   H14   S    
C97   H15   S    
C17   C26   S    
N10   Ni6   S    
C77   C106  A    
N9    Ni5   S    
C48   H28   S    
C86   F4    S    
C91   F8    S    
C13   Cl3   S    
C33   N12   A    
C84   N10   A    
C43   C52   A    
C6    C25   S    
C20   C102  S    
C58   Cl9   S    
C88   H38   S    
C40   C49   A    
C23   C105  S    
C30   C58   A    
C24   Cl4   S    
C98   H16   S    
C15   C120  S    
C13   C23   S    
C14   C22   S    
C52   H32   S    
C55   N27   A    
C46   C69   A    
N4    Ni2   S    
C79   F12   S    
C5    C27   S    
C37   C56   A    
N1    Ni1   S    
C75   N2    A    
C6    C28   S    
C83   F16   S    
N28   Ni3   S    
C38   C54   A    
N4    N9    A    
C2    C22   S    
C64   C73   A    
N11   Ni5   S    
N3    N10   A    
C35   C115  S    
C43   H40   S    
N26   Ni7   S    
C97   C107  A    
C32   C113  S    
C6    Cl22  S    
N7    N15   A    
C18   C118  S    
C40   H6    S    
C36   C52   A    
C28   Cl7   S    
C42   C51   A    
C89   N15   A    
C98   N25   A    
C15   C23   S    
C81   F14   S    
C96   C108  A    
C89   C116  A    
C1    N1    A    
C31   C57   A    
N12   Ni2   S    
C63   Cl17  S    
C110  C118  S    
C3    C24   S    
C100  H17   S    
C85   N11   A    
C60   Cl11  S    
C7    Cl23  S    
C44   C103  A    
C42   H8    S    
C25   C106  S    
C15   C29   S    
C44   H23   S    
C20   C29   S    
C2    Cl2   S    
C4    C26   S    
N27   Ni1   S    
N15   Ni8   S    
C12   H22   S    
C11   C20   S    
C34   C50   A    
N18   Ni6   S    
C12   C27   S    
C33   C102  A    
C57   Cl10  S    
C86   C109  A    
C24   C25   S    
C74   N32   A    
N13   Ni6   S    
C19   C101  S    
C88   C107  A    
C92   C104  A    
N12   N20   A    
C10   C24   S    
C68   C73   A    
C79   N5    A    
C41   C73   A    
C55   C104  A    
C45   C53   A    
N25   N29   A    
C66   H36   S    
C92   N18   A    
N21   Ni5   S    
N6    Ni3   S    
C118  Cl1   S    
N22   Ni8   S    
C38   C116  S    
C91   N17   A    
C69   C72   A    
C110  Cl24  S    
C45   H2    S    
C77   N29   A    
C32   C51   A    
C5    C9    S    
C47   C68   A    
N23   Ni2   S    
N24   N30   A    
C94   H11   S    
C4    Cl20  S    
C4    C22   S    
C9    H19   S    
C75   F9    S    
C5    Cl21  S    
C49   H27   S    
C80   C115  A    
C10   C19   S    
C76   C112  A    
C3    C19   S    
C46   C54   A    
N32   Ni2   S    
C119  Cl12  S    
C31   C109  S    
C37   C117  S    
C44   N23   A    
C18   C104  S    
C90   N16   A    
C14   C26   S    
C100  N26   A    
C19   C28   S    
C53   H31   S    
N17   Ni8   S    
C83   N9    A    
N13   N32   A    
C40   C70   A    
C12   C118  S    
C47   H4    S    
C89   F6    S    
C21   C107  S    
C30   C49   A    
N22   N31   A    
C96   N22   A    
C46   H3    S    
C1    H1    S    
C45   C65   A    
C34   C59   A    
C92   H9    S    
C29   Cl8   S    
C78   C113  A    
C120  Cl18  S    
C94   N20   A    
C32   C60   A    
C66   C105  A    
C99   H39   S    
C36   C61   A    
C1    C101  A    
C41   C50   A    
C20   C120  S    
C37   C64   A    
C84   C112  A    
C61   Cl15  S    
C38   C63   A    
N6    N16   A    
C16   C25   S    
N8    Ni4   S    
N8    N14   A    
C54   H35   S    
N16   Ni7   S    
C75   C111  A    
C93   H10   S    
N31   Ni3   S    
N5    Ni4   S    
C2    C8    S    
C18   C27   S    
C85   F3    S    
C57   C65   A    
C90   F7    S    
C85   C111  A    
C51   H29   S    
C6    C10   S    
C14   H24   S    
C2    C119  S    
C97   N24   A    
C87   C117  A    
C9    C110  S    
C84   F2    S    
N20   Ni6   S    
N26   N28   A    
C8    C17   S    
C98   C106  A    
C91   C114  A    
C81   N7    A    
C30   C111  S    
C31   C48   A    
C67   C70   A    
C93   N19   A    
N30   Ni4   S    
C99   N31   A    
N29   Ni4   S    
C90   C115  A    
N14   Ni7   S    
C95   H13   S    
C86   N13   A    
C10   H20   S    
C65   C71   A    
N2    Ni1   S    
C82   F15   S    
C11   C13   S    
C62   Cl14  S    
C80   F13   S    
C60   C69   A    
C3    Cl19  S    
C7    C23   S    
N19   Ni5   S    
C41   H7    S    
C81   C116  A    
C76   F10   S    
C27   Cl6   S    
C87   N14   A    
C59   Cl13  S    
N18   N27   A    
C35   C62   A    
C17   C103  S    
C50   H30   S    
N24   Ni7   S    
C17   C119  S    
N19   N23   A    
C56   H33   S    
C12   C21   S    
N3    Ni1   S    
C8    H18   S    
C58   C67   A    
C78   N4    A    
C55   H34   S    
C5    C21   S    
C63   C72   A    
C94   C102  A    
C43   C67   A    
C14   C119  S    
C87   F5    S    
C79   C114  A    
C66   N28   A    
N25   Ni8   S    
C39   C71   A    
C47   C56   A    
C59   C68   A    
C16   H26   S    
C13   C120  S    
C82   C117  A    
C42   C72   A    
C33   H12   S    
C77   H37   S    
C26   Cl5   S    
C3    C16   S    
C95   C101  A    
C39   C48   A    
C78   F11   S    
