data_mof_unit_67263.cif
_audit_creation_date              2013-03-05T16:01:29-0500
_audit_creation_method            fapswitch 2.2
_symmetry_space_group_name_H-M    P1
_symmetry_Int_Tables_number       1
_space_group_crystal_system       triclinic
_cell_length_a                    20.176562
_cell_length_b                    20.016458
_cell_length_c                    8.473747
_cell_angle_alpha                 90.0
_cell_angle_beta                  92.732504
_cell_angle_gamma                 89.95303
_cell_volume                      3418.34321144

loop_
_atom_site_label
_atom_site_type_symbol
_atom_site_description
_atom_site_fract_x
_atom_site_fract_y
_atom_site_fract_z
_atom_type_partial_charge
P1    P     P_3+3 0.136530 0.426510 0.931350 0.509423
P2    P     P_3+3 0.136530 0.573490 0.431350 0.504519
P3    P     P_3+3 0.636530 0.926510 0.931350 0.506603
P4    P     P_3+3 0.636530 0.073490 0.431350 0.502326
O1    O     O_2   0.130070 0.404060 0.104920 -0.375226
O2    O     O_2   0.130070 0.595940 0.604920 -0.385631
O3    O     O_2   0.630070 0.904060 0.104920 -0.378411
O4    O     O_2   0.630070 0.095940 0.604920 -0.384816
O5    O     O_3   0.075780 0.466370 0.861070 -0.408343
O6    O     O_3   0.075780 0.533630 0.361070 -0.402911
O7    O     O_3   0.575780 0.966370 0.861070 -0.406304
O8    O     O_3   0.575780 0.033630 0.361070 -0.403744
O9    O     O_3   0.022320 0.344950 0.359800 -0.395233
O10   O     O_3   0.022320 0.655050 0.859800 -0.406178
O11   O     O_3   0.522320 0.844950 0.359800 -0.396987
O12   O     O_3   0.522320 0.155050 0.859800 -0.401682
O13   O     O_2   0.126327 0.288383 0.236298 -0.362883
O14   O     O_2   0.125771 0.710959 0.728539 -0.354470
O15   O     O_2   0.626336 0.789821 0.232276 -0.400889
O16   O     O_2   0.628044 0.209778 0.745375 -0.385856
O17   O     O_3   0.209462 0.474490 0.943593 -0.595316
O18   O     O_3   0.208971 0.524538 0.443898 -0.588409
O19   O     O_3   0.708731 0.975760 0.944501 -0.596970
O20   O     O_3   0.710107 0.026401 0.442715 -0.597299
O21   O     O_3   0.039891 0.205669 0.347827 -0.518050
O22   O     O_3   0.045854 0.794090 0.860296 -0.501309
O23   O     O_3   0.543931 0.705627 0.353789 -0.528967
O24   O     O_3   0.540040 0.295563 0.841334 -0.468505
H1    H     H_    0.945845 0.248447 0.344392 0.101381
H2    H     H_    0.950032 0.761469 0.805823 0.129683
H3    H     H_    0.448987 0.745429 0.322059 0.114766
H4    H     H_    0.450472 0.250160 0.775039 0.122870
C1    C     C_3   0.941008 0.143602 0.392660 0.014410
C2    C     C_3   0.950083 0.857645 0.920575 -0.031802
C3    C     C_3   0.444970 0.642860 0.394402 0.009020
C4    C     C_3   0.434057 0.353669 0.828365 -0.003070
H5    H     H_    0.929733 0.134156 0.266045 0.174137
H6    H     H_    0.956410 0.886719 0.812717 0.175268
H7    H     H_    0.440829 0.626177 0.270417 0.163065
H8    H     H_    0.382265 0.347720 0.864883 0.108428
H9    H     H_    0.973166 0.103096 0.443957 0.175890
H10   H     H_    0.976901 0.883879 0.020021 0.196046
H11   H     H_    0.475035 0.606086 0.465556 0.201248
H12   H     H_    0.430957 0.366388 0.701081 0.208916
P5    P     P_3+3 0.863410 0.426100 0.379280 0.441942
P6    P     P_3+3 0.863410 0.573900 0.879280 0.443927
P7    P     P_3+3 0.363410 0.926100 0.379280 0.443724
P8    P     P_3+3 0.363410 0.073900 0.879280 0.439879
P9    P     P_3+3 0.918889 0.279685 0.930164 0.524683
P10   P     P_3+3 0.918548 0.720233 0.430822 0.465944
P11   P     P_3+3 0.418555 0.779834 0.930439 0.525134
P12   P     P_3+3 0.421390 0.221145 0.427244 0.451729
O25   O     O_2   0.869860 0.403670 0.205810 -0.356319
O26   O     O_2   0.869860 0.596330 0.705810 -0.355134
O27   O     O_2   0.369860 0.903670 0.205810 -0.357227
O28   O     O_2   0.369860 0.096330 0.705810 -0.361939
O29   O     O_3   0.977590 0.344880 0.951200 -0.329880
O30   O     O_3   0.977590 0.655120 0.451200 -0.376949
O31   O     O_3   0.477590 0.844880 0.951200 -0.333523
O32   O     O_3   0.477590 0.155120 0.451200 -0.351982
O33   O     O_2   0.865978 0.298753 0.047920 -0.370224
O34   O     O_2   0.866095 0.701130 0.549407 -0.367825
O35   O     O_2   0.366544 0.797788 0.051165 -0.381425
O36   O     O_2   0.370500 0.209402 0.555211 -0.385493
O37   O     O_3   0.791880 0.476060 0.370315 -0.604507
O38   O     O_3   0.791972 0.523970 0.870594 -0.605432
O39   O     O_3   0.292215 0.976554 0.369977 -0.604346
O40   O     O_3   0.291745 0.024266 0.870552 -0.600279
O41   O     O_3   0.949488 0.203579 0.016435 -0.589962
O42   O     O_3   0.949833 0.795894 0.517842 -0.597641
O43   O     O_3   0.450415 0.703154 0.011092 -0.603864
O44   O     O_3   0.463228 0.294864 0.490735 -0.581361
C5    C     C_3   0.972264 0.154568 0.909179 1.249493
C6    C     C_3   0.963973 0.849345 0.413016 1.228668
C7    C     C_3   0.469185 0.654177 0.899045 1.212020
C8    C     C_3   0.501695 0.325815 0.375036 1.200871
C9    C     C_3   0.966421 0.083663 0.981581 -0.144819
C10   C     C_3   0.950881 0.917663 0.493687 -0.150621
C11   C     C_3   0.471270 0.583909 0.975889 -0.116430
C12   C     C_3   0.458105 0.370390 0.264009 -0.113415
H13   H     H_    0.914235 0.074724 0.013075 0.041566
H14   H     H_    0.904601 0.914532 0.559578 0.076681
H15   H     H_    0.422163 0.572386 0.023919 0.065243
H16   H     H_    0.428388 0.340109 0.178694 0.116778
C13   C     C_3   0.800435 0.466391 0.779962 0.843444
C14   C     C_3   0.800431 0.533953 0.280920 0.875486
C15   C     C_3   0.300311 0.966225 0.781500 0.874306
C16   C     C_3   0.301881 0.035102 0.283521 0.892119
H17   H     H_    0.835431 0.473930 0.684237 0.044847
H18   H     H_    0.835272 0.526547 0.184785 0.040713
H19   H     H_    0.335281 0.973397 0.685522 0.040024
H20   H     H_    0.336919 0.027914 0.187648 0.034994
C17   C     C_3   0.733140 0.447685 0.703417 -0.627015
C18   C     C_3   0.733086 0.553333 0.205310 -0.684150
C19   C     C_3   0.233060 0.946987 0.705365 -0.682246
C20   C     C_3   0.235100 0.055907 0.207493 -0.711061
H21   H     H_    0.714454 0.488735 0.625060 0.234520
H22   H     H_    0.714302 0.512809 0.125617 0.232471
H23   H     H_    0.214459 0.987508 0.625341 0.233424
H24   H     H_    0.215927 0.016194 0.125994 0.244035
H25   H     H_    0.737341 0.401545 0.632260 0.204164
H26   H     H_    0.737205 0.599963 0.135823 0.202117
H27   H     H_    0.237241 0.900298 0.636078 0.200891
H28   H     H_    0.240269 0.102906 0.139960 0.201923
H29   H     H_    0.696732 0.438835 0.795527 0.249323
H30   H     H_    0.696770 0.561631 0.297936 0.254914
H31   H     H_    0.196589 0.938852 0.797684 0.251357
H32   H     H_    0.198600 0.064200 0.299704 0.248455
Ba1   Ba    Ba6+2 0.999980 0.452130 0.155200 1.603793
Ba2   Ba    Ba6+2 0.999980 0.547870 0.655200 1.595548
Ba3   Ba    Ba6+2 0.499980 0.952130 0.155200 1.597838
Ba4   Ba    Ba6+2 0.499980 0.047870 0.655200 1.583469
C21   C     C_3   0.198670 0.541690 0.979512 1.018833
C22   C     C_3   0.197365 0.457501 0.481466 0.976715
C23   C     C_3   0.696664 0.043071 0.978887 1.012256
C24   C     C_3   0.699847 0.959167 0.479522 1.016916
H33   H     H_    0.146596 0.557886 0.955102 0.059883
H34   H     H_    0.144848 0.442154 0.460533 0.066708
H35   H     H_    0.644452 0.058610 0.953031 0.069688
H36   H     H_    0.647784 0.942795 0.456456 0.059652
C25   C     C_3   0.242833 0.584361 0.879315 -1.061313
C26   C     C_3   0.239785 0.413495 0.379703 -1.013629
C27   C     C_3   0.740807 0.086337 0.879772 -1.070559
C28   C     C_3   0.743461 0.916365 0.378225 -1.089286
H37   H     H_    0.295842 0.576577 0.915514 0.226103
H38   H     H_    0.292951 0.418133 0.417152 0.278984
H39   H     H_    0.793872 0.079984 0.917622 0.218167
H40   H     H_    0.796619 0.924284 0.412158 0.216167
H41   H     H_    0.230165 0.637756 0.893900 0.219362
H42   H     H_    0.224850 0.360456 0.390283 0.223065
H43   H     H_    0.726916 0.139554 0.893055 0.236180
H44   H     H_    0.730946 0.862993 0.394084 0.228658
H45   H     H_    0.236148 0.570180 0.753802 0.275418
H46   H     H_    0.234405 0.429534 0.255360 0.270481
H47   H     H_    0.735346 0.071464 0.754585 0.275212
H48   H     H_    0.735922 0.930341 0.252754 0.276539
O45   O     O_3   0.924190 0.533610 0.949240 -0.415554
O46   O     O_3   0.924190 0.466390 0.449240 -0.416440
O47   O     O_3   0.424190 0.033610 0.949240 -0.417465
O48   O     O_3   0.424190 0.966390 0.449240 -0.416748
P13   P     P_3+3 0.084166 0.715593 0.876453 0.510420
P14   P     P_3+3 0.081422 0.281853 0.378439 0.490123
P15   P     P_3+3 0.580252 0.218920 0.880715 0.487215
P16   P     P_3+3 0.583200 0.783479 0.377157 0.482032
C29   C     C_3   0.976588 0.210618 0.410392 0.453752
C30   C     C_3   0.979190 0.788158 0.900643 0.492492
C31   C     C_3   0.478249 0.711228 0.402052 0.449722
C32   C     C_3   0.471366 0.287725 0.859272 0.430406
H49   H     H_    0.980995 0.224461 0.537451 0.098174
H50   H     H_    0.974517 0.760571 0.013061 0.059321
H51   H     H_    0.477443 0.730043 0.525162 0.108010
H52   H     H_    0.461492 0.270510 0.979452 -0.067261
H53   H     H_    0.979194 0.045806 0.891645 0.131407
H54   H     H_    0.943371 0.956843 0.401004 0.097276
H55   H     H_    0.480946 0.546044 0.883510 0.180753
H56   H     H_    0.490634 0.402468 0.193602 0.178640
C33   C     C_R   0.242639 0.305976 0.000098 -0.146828
C34   C     C_R   0.236970 0.698849 0.508184 -0.073088
C35   C     C_R   0.737154 0.801347 0.007648 -0.088717
C36   C     C_R   0.736577 0.198981 0.508580 -0.110720
C37   C     C_R   0.151904 0.348437 0.816829 0.395342
C38   C     C_R   0.151484 0.651899 0.317574 0.346691
C39   C     C_R   0.652168 0.848648 0.816203 0.356161
C40   C     C_R   0.648656 0.153903 0.321623 0.372451
C41   C     C_R   0.115340 0.340158 0.672927 -0.371976
C42   C     C_R   0.118665 0.657066 0.168641 -0.454139
C43   C     C_R   0.619753 0.843775 0.666572 -0.336069
C44   C     C_R   0.612815 0.161592 0.176830 -0.377272
C45   C     C_R   0.129395 0.288247 0.568894 0.201187
C46   C     C_R   0.135093 0.706760 0.061242 0.242553
C47   C     C_R   0.633570 0.791685 0.562893 0.242367
C48   C     C_R   0.626236 0.213990 0.073613 0.227360
C49   C     C_R   0.178720 0.241665 0.610892 -0.155013
C50   C     C_R   0.183088 0.754514 0.104496 -0.163225
C51   C     C_R   0.680497 0.743132 0.607795 -0.175977
C52   C     C_R   0.673837 0.261939 0.117545 -0.187116
C53   C     C_R   0.214649 0.246584 0.756836 0.092702
C54   C     C_R   0.215048 0.752947 0.255580 0.097958
C55   C     C_R   0.713958 0.746029 0.757003 0.109173
C56   C     C_R   0.709598 0.257272 0.263560 0.068503
C57   C     C_R   0.203233 0.301280 0.858929 -0.000877
C58   C     C_R   0.201026 0.700484 0.361925 -0.008895
C59   C     C_R   0.700993 0.799449 0.861702 -0.015874
C60   C     C_R   0.698229 0.202565 0.365833 -0.065122
H57   H     H_    0.076722 0.375674 0.639528 0.139527
H58   H     H_    0.080390 0.621304 0.134775 0.154453
H59   H     H_    0.582446 0.880390 0.631282 0.138554
H60   H     H_    0.575814 0.124813 0.141019 0.143688
C61   C     C_R   0.798684 0.699826 0.945156 -0.048301
C62   C     C_R   0.797687 0.300796 0.446760 -0.050022
C63   C     C_R   0.301431 0.202093 0.942289 -0.061360
C64   C     C_R   0.298834 0.799991 0.444789 -0.049067
C65   C     C_R   0.784646 0.752319 0.050491 0.136247
C66   C     C_R   0.784560 0.247568 0.550881 0.143665
C67   C     C_R   0.290505 0.257217 0.043176 0.066075
C68   C     C_R   0.284636 0.747715 0.550587 0.138990
C69   C     C_R   0.850515 0.653557 0.988261 0.222727
C70   C     C_R   0.850244 0.346440 0.488436 0.216467
C71   C     C_R   0.351551 0.154194 0.987404 0.224047
C72   C     C_R   0.350467 0.846411 0.488102 0.210817
C73   C     C_R   0.889283 0.664386 0.128270 -0.504548
C74   C     C_R   0.889618 0.335079 0.627324 -0.497287
C75   C     C_R   0.389977 0.164200 0.128018 -0.452547
C76   C     C_R   0.389182 0.835650 0.628174 -0.490016
C77   C     C_R   0.873329 0.715013 0.234523 0.340577
C78   C     C_R   0.874073 0.284255 0.733395 0.326644
C79   C     C_R   0.376747 0.216953 0.230653 0.229374
C80   C     C_R   0.373209 0.785156 0.734558 0.351925
C81   C     C_R   0.818716 0.755933 0.198435 -0.191914
C82   C     C_R   0.820000 0.242739 0.697083 -0.183531
C83   C     C_R   0.326594 0.262579 0.188694 -0.292371
C84   C     C_R   0.318812 0.744055 0.698437 -0.200058
C85   C     C_R   0.760515 0.696037 0.801388 -0.057413
C86   C     C_R   0.757749 0.306070 0.305809 -0.080332
C87   C     C_R   0.261790 0.197125 0.800855 -0.074145
C88   C     C_R   0.261299 0.803154 0.300016 -0.073152
H61   H     H_    0.188266 0.201001 0.530562 0.154758
H62   H     H_    0.193568 0.794228 0.022363 0.154299
H63   H     H_    0.689756 0.702359 0.527548 0.157744
H64   H     H_    0.683105 0.302680 0.037254 0.160515
H65   H     H_    0.803780 0.791650 0.285107 0.117520
H66   H     H_    0.806316 0.205849 0.782447 0.115920
H67   H     H_    0.316537 0.302836 0.269271 0.178885
H68   H     H_    0.304196 0.708106 0.784872 0.118398
H69   H     H_    0.929335 0.630267 0.160169 0.162569
H70   H     H_    0.929695 0.369141 0.658959 0.163720
H71   H     H_    0.428001 0.128243 0.162719 0.160748
H72   H     H_    0.429167 0.869779 0.660101 0.167610
H73   H     H_    0.236686 0.347451 0.078258 0.167696
H74   H     H_    0.229727 0.658888 0.589692 0.154164
H75   H     H_    0.730334 0.841706 0.088382 0.157146
H76   H     H_    0.730637 0.157934 0.587706 0.167167
H77   H     H_    0.766912 0.655102 0.720798 0.182788
H78   H     H_    0.763967 0.347353 0.225963 0.186823
H79   H     H_    0.266745 0.155032 0.722819 0.187084
H80   H     H_    0.268036 0.843685 0.218576 0.187127
O49   O     O_3   0.216743 0.552477 0.138399 -0.798180
H81   H     H_    0.263217 0.536878 0.157339 0.327242
O50   O     O_3   0.216670 0.446779 0.639596 -0.808988
H82   H     H_    0.263303 0.462142 0.656290 0.332039
O51   O     O_3   0.713525 0.054711 0.137876 -0.801731
H83   H     H_    0.760185 0.039990 0.158597 0.321393
O52   O     O_3   0.718618 0.948541 0.638200 -0.804134
H84   H     H_    0.765087 0.964258 0.655868 0.321730
O53   O     O_3   0.880879 0.145181 0.467415 -0.751638
H85   H     H_    0.861146 0.099994 0.454046 0.329798
O54   O     O_3   0.882372 0.853227 0.947016 -0.746239
H86   H     H_    0.866611 0.899759 0.960835 0.334071
O55   O     O_3   0.381094 0.647011 0.450497 -0.741855
H87   H     H_    0.362457 0.601147 0.444089 0.342245
O56   O     O_3   0.463412 0.406506 0.914110 -0.744001
H88   H     H_    0.504950 0.418129 0.862526 0.397388
S1    S     S_3+6 0.057374 0.170061 0.870623 0.010003
O57   O     O_2   0.070270 0.148890 0.704818 -0.315205
O58   O     O_2   0.068885 0.243408 0.887753 -0.338176
O59   O     O_3   0.111320 0.129768 0.994822 -0.475547
H89   H     H_    0.118228 0.159813 0.087003 0.390856
S2    S     S_3+6 0.049358 0.845555 0.367296 0.038329
O60   O     O_2   0.071633 0.911188 0.301837 -0.266635
O61   O     O_2   0.092306 0.827797 0.511005 -0.216806
O62   O     O_3   0.056056 0.787156 0.230184 -0.580704
H90   H     H_    0.036639 0.746839 0.276535 0.320931
S3    S     S_3+6 0.549575 0.672781 0.833354 0.003983
O63   O     O_2   0.565062 0.628646 0.696426 -0.283593
O64   O     O_2   0.547324 0.743753 0.780762 -0.388740
O65   O     O_3   0.609459 0.663535 0.976538 -0.481209
H91   H     H_    0.594547 0.690971 0.065005 0.399941
S4    S     S_3+6 0.562056 0.379959 0.472858 0.005219
O66   O     O_2   0.602144 0.414341 0.351749 -0.319953
O67   O     O_2   0.527992 0.432083 0.567450 -0.285625
O68   O     O_3   0.614265 0.336367 0.593192 -0.464917
H92   H     H_    0.626218 0.296709 0.529764 0.362296
O69   O     O_3   0.935445 0.155690 0.764780 -0.832773
H93   H     H_    0.892139 0.133853 0.780347 0.273128
O70   O     O_3   0.926088 0.845595 0.270206 -0.847649
H94   H     H_    0.883184 0.868621 0.282921 0.266034
O71   O     O_3   0.425139 0.652321 0.766139 -0.815737
H95   H     H_    0.383934 0.629885 0.796737 0.270490
O72   O     O_3   0.538212 0.278867 0.292029 -0.830089
H96   H     H_    0.508484 0.257114 0.211855 0.248618
O73   O     O_3   0.008443 0.075316 0.116522 -0.671514
H97   H     H_    0.001492 0.028888 0.153403 0.351361
O74   O     O_3   0.004007 0.937137 0.596259 -0.650708
H98   H     H_    0.992824 0.982388 0.634826 0.335036
O75   O     O_3   0.520797 0.579280 0.097118 -0.677334
H99   H     H_    0.518789 0.532935 0.138289 0.357832
O76   O     O_3   0.414644 0.409076 0.350958 -0.728106
H100  H     H_    0.427256 0.456857 0.337866 0.348686
O77   O     O_3   0.821805 0.414282 0.879315 -0.753811
H101  H     H_    0.869912 0.421447 0.901219 0.343517
O78   O     O_3   0.822095 0.585551 0.381330 -0.753591
H102  H     H_    0.870292 0.578378 0.401812 0.344965
O79   O     O_3   0.321778 0.914621 0.882282 -0.756741
H103  H     H_    0.370008 0.921533 0.902659 0.341481
O80   O     O_3   0.323837 0.085802 0.386462 -0.745282
H104  H     H_    0.372204 0.079036 0.404394 0.344067

loop_
_geom_bond_atom_site_label_1
_geom_bond_atom_site_label_2
_geom_bond_distance
_ccdc_geom_bond_type
O12   Ba4   2.781843 S    
C11   O75   1.401561 S    
S3    O65   1.681102 S    
C79   C83   1.395929 A    
C16   C20   1.523243 S    
P1    O17   1.756772 S    
O15   P16   1.543654 D    
C82   H66   1.078928 S    
C68   C84   1.402859 A    
C15   H19   1.111202 S    
P12   C79   1.857566 S    
C81   H65   1.078002 S    
C53   C87   1.410140 A    
P3    O19   1.758773 S    
O78   H102  0.989977 S    
C2    H10   1.111594 S    
C74   C78   1.403070 A    
P4    O4    1.549296 D    
C3    H11   1.112523 S    
P2    C38   1.874109 S    
O38   C13   1.399798 S    
C75   H71   1.081970 S    
C33   H73   1.072237 S    
O37   C14   1.399714 S    
C74   H70   1.082034 S    
C17   H29   1.111342 S    
C86   H78   1.079174 S    
C73   H69   1.082038 S    
P16   C47   1.839753 S    
C28   H44   1.107598 S    
O55   H87   0.992845 S    
O79   H103  0.989994 S    
P11   O43   1.786796 S    
C7    O71   1.401477 S    
C37   C41   1.404655 A    
P1    O1    1.549358 D    
C64   C68   1.416215 A    
Ba1   O45   2.790288 S    
C1    O53   1.395470 S    
C63   C71   1.431619 A    
P15   C48   1.843268 S    
P6    O38   1.753306 S    
P3    O3    1.549358 D    
O4    Ba4   2.847370 S    
C56   C60   1.422020 A    
H1    C29   1.112230 S    
O62   H90   0.987008 S    
P4    O20   1.756586 S    
C19   H23   1.110740 S    
C18   H22   1.110726 S    
O25   Ba1   2.851126 S    
O52   H84   0.993762 S    
P3    Ba3   3.456533 S    
C6    O70   1.402230 S    
C3    O55   1.397172 S    
C4    O56   1.399019 S    
P9    O29   1.766328 S    
O26   Ba2   2.849665 S    
O6    Ba1   2.791639 S    
S3    O64   1.488879 D    
O51   H83   0.993853 S    
O22   C30   1.408635 S    
P7    O27   1.548348 D    
C78   C82   1.394644 A    
C26   H46   1.101849 S    
O9    Ba1   2.781273 S    
C14   C18   1.524263 S    
O8    Ba3   2.791639 S    
C63   C87   1.412336 A    
C25   H37   1.109376 S    
C30   H50   1.109002 S    
O30   Ba2   2.779362 S    
C27   H39   1.110139 S    
C4    C32   1.535299 S    
O29   Ba1   2.779934 S    
O50   H82   0.993793 S    
C5    O69   1.401024 S    
Ba4   O47   2.998674 S    
C15   C19   1.524158 S    
P7    O48   1.561415 S    
P2    O18   1.758002 S    
C35   C59   1.406151 A    
O31   Ba3   2.779934 S    
O72   H96   0.986144 S    
P4    C40   1.880827 S    
C69   C73   1.406472 A    
O53   H85   0.992832 S    
C50   H62   1.084106 S    
C77   C81   1.394600 A    
C40   C60   1.433664 A    
P4    O8    1.557447 S    
O22   P13   1.752992 S    
C49   H61   1.084072 S    
C50   C54   1.406084 A    
C6    C10   1.556821 S    
P8    O28   1.548409 D    
O44   C8    1.421519 S    
C28   H40   1.108607 S    
P1    Ba1   3.456533 S    
P10   O34   1.542098 D    
C27   H43   1.108324 S    
C21   O49   1.394850 S    
O68   H92   0.994594 S    
C20   H32   1.111366 S    
O10   P13   1.741066 S    
P1    C37   1.872969 S    
C1    C29   1.525989 S    
C23   O51   1.393376 S    
O71   H95   0.990591 S    
C19   H31   1.111328 S    
C71   C75   1.404679 A    
O2    Ba2   2.847370 S    
O16   P15   1.543925 D    
C34   H74   1.071462 S    
P2    O2    1.549296 D    
C33   C57   1.407625 A    
C44   H60   1.081975 S    
C85   H77   1.078245 S    
P7    O39   1.753972 S    
C19   H27   1.108976 S    
Ba3   O48   2.998435 S    
H2    C30   1.110190 S    
C55   C59   1.421468 A    
C6    S2    1.785286 S    
C11   H55   1.113396 S    
C41   C45   1.400215 A    
P2    Ba2   3.457200 S    
O23   C31   1.409806 S    
C7    S3    1.779455 S    
O32   Ba4   2.779362 S    
O24   C32   1.409991 S    
C23   C27   1.523558 S    
C28   H48   1.102874 S    
P8    C71   1.870847 S    
C39   C59   1.432163 A    
C12   H16   1.099442 S    
P10   O30   1.767883 S    
P1    O5    1.556420 S    
C16   H20   1.111338 S    
C4    H8    1.110382 S    
O12   P15   1.736317 S    
P11   O35   1.542281 D    
O56   H88   0.991377 S    
C14   H18   1.110942 S    
C17   H25   1.108359 S    
O80   H104  0.989654 S    
S1    O58   1.492591 D    
C43   H59   1.082041 S    
C13   H17   1.110892 S    
P11   C80   1.859718 S    
C10   H54   1.115015 S    
P6    C69   1.866816 S    
C51   C55   1.405850 A    
P5    C70   1.868885 S    
P13   C46   1.839906 S    
C75   C79   1.401541 A    
C13   O77   1.395457 S    
C41   H57   1.081964 S    
C24   H36   1.109054 S    
C27   H47   1.102263 S    
Ba1   O46   2.998435 S    
C2    H6    1.096157 S    
C26   H38   1.108029 S    
C31   H51   1.109945 S    
P7    Ba3   3.459910 S    
O42   C6    1.428206 S    
O75   H99   0.992628 S    
P12   O44   1.771480 S    
O11   Ba3   2.781273 S    
C72   C76   1.405957 A    
C66   C82   1.403884 A    
C34   C58   1.406160 A    
C67   C83   1.405971 A    
C10   H14   1.112390 S    
C65   C81   1.402611 A    
O76   H100  0.997421 S    
S4    O68   1.675363 S    
C9    H13   1.113110 S    
C39   C43   1.402125 A    
C80   C84   1.394488 A    
C83   H67   1.081497 S    
O59   H89   0.990459 S    
P6    O26   1.548409 D    
C36   H76   1.070885 S    
O77   H101  0.990050 S    
O39   C16   1.400755 S    
P5    O37   1.753822 S    
C87   H79   1.078578 S    
C64   C72   1.431271 A    
O24   P15   1.759349 S    
C22   H34   1.109615 S    
O9    P14   1.738290 S    
P8    O40   1.753689 S    
Ba3   O47   2.790288 S    
O41   C5    1.427836 S    
C62   C86   1.412495 A    
C46   C50   1.397674 A    
C54   C58   1.421139 A    
C61   C85   1.411960 A    
P6    O45   1.560376 S    
C5    S1    1.790559 S    
C70   C74   1.406585 A    
Ba2   O46   2.791755 S    
O17   C21   1.398270 S    
C35   C65   1.406543 A    
P8    Ba4   3.459230 S    
O70   H94   0.990778 S    
S4    O67   1.501583 D    
C42   C46   1.398855 A    
C23   H35   1.109944 S    
O21   C29   1.409464 S    
C8    S4    1.803000 S    
P12   O36   1.546591 D    
C88   H80   1.077981 S    
C21   H33   1.109291 S    
P7    C72   1.867204 S    
C4    H12   1.107062 S    
S2    O62   1.658107 S    
P11   O31   1.768458 S    
C52   H64   1.084100 S    
Ba4   O48   2.791755 S    
P2    O6    1.557447 S    
C17   H21   1.110753 S    
S2    O61   1.503003 D    
C2    O54   1.397789 S    
C12   H56   1.112213 S    
C9    H53   1.113471 S    
C76   C80   1.402237 A    
C62   C70   1.431701 A    
C1    H5    1.102460 S    
C84   H68   1.078024 S    
C44   C48   1.400498 A    
C61   C69   1.430669 A    
O5    Ba2   2.790172 S    
O10   Ba2   2.781843 S    
C20   H28   1.108705 S    
P14   C45   1.846370 S    
C18   H30   1.111389 S    
C12   O76   1.404243 S    
C73   C77   1.402966 A    
C14   O78   1.395355 S    
C24   C28   1.521839 S    
C8    O72   1.403192 S    
O27   Ba3   2.851126 S    
O7    Ba4   2.790172 S    
C42   H58   1.082105 S    
C51   H63   1.084090 S    
O14   P13   1.544162 D    
C32   H52   1.102255 S    
C25   H41   1.107004 S    
C22   O50   1.394039 S    
S1    O59   1.682901 S    
C43   C47   1.399849 A    
C8    C12   1.540965 S    
O20   C24   1.399237 S    
H4    C32   1.106531 S    
P3    C39   1.873268 S    
C26   H42   1.108622 S    
C34   C68   1.406892 A    
O18   C22   1.401554 S    
C15   O79   1.395662 S    
O21   P14   1.753924 S    
C38   C58   1.432473 A    
C54   C88   1.410895 A    
C16   O80   1.396757 S    
C9    O73   1.400564 S    
C64   C88   1.412037 A    
S3    O63   1.502836 D    
S2    O60   1.503426 D    
P10   O42   1.786893 S    
C1    H9    1.113351 S    
P8    O47   1.560376 S    
P6    Ba2   3.459230 S    
O28   Ba4   2.849665 S    
Ba1   Ba2   4.650117 S    
C3    C31   1.524857 S    
C11   H15   1.113281 S    
C2    C30   1.521862 S    
P9    O33   1.543349 D    
O23   P16   1.755685 S    
O73   H97   0.992668 S    
S1    O57   1.501985 D    
C76   H72   1.082050 S    
C47   C51   1.396390 A    
Ba3   Ba4   4.650117 S    
C53   C57   1.420806 A    
C3    H7    1.101793 S    
C20   H24   1.110626 S    
C56   C86   1.412259 A    
P5    O46   1.561415 S    
O19   C23   1.402035 S    
O3    Ba3   2.845916 S    
H3    C31   1.112589 S    
C38   C42   1.400740 A    
P5    Ba1   3.459910 S    
Ba2   O45   2.998674 S    
P4    Ba4   3.457200 S    
C33   C67   1.408308 A    
C63   C67   1.419328 A    
C10   O74   1.402934 S    
C24   O52   1.395690 S    
P3    O7    1.556420 S    
O65   H91   0.987576 S    
C62   C66   1.416509 A    
P5    O25   1.548348 D    
C55   C85   1.410655 A    
C22   C26   1.523532 S    
P10   C77   1.861634 S    
C61   C65   1.415822 A    
C52   C56   1.405348 A    
C13   C17   1.523598 S    
C21   C25   1.522422 S    
P9    C78   1.860708 S    
C18   H26   1.108862 S    
C5    C9    1.552993 S    
P12   O32   1.746181 S    
O11   P16   1.739179 S    
C40   C44   1.402574 A    
C36   C66   1.407148 A    
O74   H98   0.992388 S    
O40   C15   1.400395 S    
C45   C49   1.396840 A    
O13   P14   1.546912 D    
P9    O41   1.786512 S    
O1    Ba1   2.845916 S    
C25   H45   1.102873 S    
C49   C53   1.406868 A    
O49   H81   0.993820 S    
C7    C11   1.549636 S    
C36   C60   1.406272 A    
C37   C57   1.433164 A    
C29   H49   1.111228 S    
C48   C52   1.396282 A    
O54   H86   0.992690 S    
C35   H75   1.071619 S    
S4    O66   1.503691 D    
O43   C7    1.428156 S    
O69   H93   0.991743 S    
