data_mof_unit_22222.cif
_audit_creation_date              2012-12-11T15:21:48-0500
_audit_creation_method            fapswitch 2.2
_symmetry_space_group_name_H-M    P1
_symmetry_Int_Tables_number       1
_space_group_crystal_system       triclinic
_cell_length_a                    8.249427
_cell_length_b                    12.704319
_cell_length_c                    18.962855
_cell_angle_alpha                 93.783456
_cell_angle_beta                  94.268388
_cell_angle_gamma                 98.01075
_cell_volume                      1956.64350567

loop_
_atom_site_label
_atom_site_type_symbol
_atom_type_description
_atom_site_fract_x
_atom_site_fract_y
_atom_site_fract_z
_atom_type_partial_charge
Ba1   Ba    Ba6+2 0.160910 0.552960 0.466220 1.650808
Ba2   Ba    Ba6+2 0.649260 0.447030 0.533730 1.631657
C1    C     C_3   0.436684 0.845706 0.192979 -0.140641
C2    C     C_R   0.741900 0.814379 0.464977 -0.276602
C3    C     C_R   0.708371 0.995834 0.441335 -0.100899
C4    C     C_3   0.952981 0.844962 0.301249 0.329467
C5    C     C_R   0.646823 0.886622 0.436330 -0.018437
C6    C     C_R   0.892364 0.848860 0.504347 0.073932
C7    C     C_R   0.956267 0.960854 0.510253 -0.063043
C8    C     C_R   0.862454 0.035462 0.478406 -0.054169
C9    C     C_R   0.924221 0.147672 0.486967 0.058671
C10   C     C_R   0.174730 0.109716 0.548908 0.026420
C11   C     C_R   0.111229 0.001048 0.546438 -0.086872
C12   C     C_3   0.459145 0.810365 0.268979 0.285355
C13   C     C_R   0.616396 0.545632 0.299458 -0.288964
C14   C     C_R   0.460514 0.491412 0.277270 0.064884
C15   C     C_R   0.401770 0.487449 0.205641 -0.081779
C16   C     C_3   0.910141 0.936483 0.259275 -0.339644
C17   C     C_R   0.500510 0.535947 0.155500 0.011394
C18   C     C_R   0.661643 0.584838 0.178624 -0.152279
C19   C     C_R   0.719210 0.588316 0.250186 -0.006299
C20   C     C_R   0.484487 0.619343 0.038287 -0.051044
C21   C     C_R   0.426314 0.616683 0.966799 -0.074265
C22   C     C_R   0.319475 0.528055 0.934176 0.052885
C23   C     C_3   0.555836 0.766483 0.612572 0.284023
C24   C     C_R   0.270156 0.443118 0.975532 -0.081935
C25   C     C_R   0.328840 0.445536 0.046825 -0.067427
C26   C     C_R   0.437422 0.533481 0.079305 0.091510
C27   C     C_R   0.110379 0.467917 0.829823 -0.135173
C28   C     C_3   0.764412 0.322415 0.321456 0.299570
C29   C     C_R   0.070050 0.450097 0.756390 0.028942
C30   C     C_R   0.337065 0.538780 0.734755 0.037983
C31   C     C_R   0.379170 0.558782 0.807855 -0.136329
C32   C     C_R   0.267351 0.520841 0.856628 -0.012614
C33   C     C_R   0.184421 0.483237 0.709643 -0.291266
C34   C     C_3   0.596150 0.885703 0.621059 -0.390973
C35   C     C_3   0.757669 0.301130 0.241321 -0.360366
C36   C     C_3   0.049572 0.699233 0.683662 0.308256
C37   C     C_3   0.056463 0.734990 0.762139 -0.385989
C38   C     C_3   0.254043 0.229314 0.381889 0.273085
C39   C     C_3   0.248247 0.109997 0.367182 -0.326632
C40   C     C_2   0.474817 0.965444 0.191258 0.887468
C41   C     C_2   0.268761 0.802412 0.156972 0.902592
C42   C     C_3   0.367665 0.295692 0.807308 -0.217451
C43   C     C_3   0.963362 0.182494 0.700943 0.290289
C44   C     C_3   0.010657 0.084406 0.735181 -0.338163
C45   C     C_3   0.486567 0.167151 0.732792 0.533422
C46   C     C_3   0.584209 0.075693 0.741719 -0.330152
C47   C     C_R   0.077765 0.181736 0.522947 -0.304620
H1    H     H_    0.418681 0.723049 0.268381 0.062094
H2    H     H_    0.128947 0.246973 0.389466 0.011256
H3    H     H_    0.337189 0.255003 0.430616 0.065498
H4    H     H_    0.526495 0.809265 0.161855 -0.043712
H5    H     H_    0.175982 0.084214 0.316122 0.154144
H6    H     H_    0.189206 0.065961 0.408956 0.060920
H7    H     H_    0.374592 0.090386 0.364377 0.154471
H8    H     H_    0.592044 0.826331 0.285737 -0.105498
H9    H     H_    0.664094 0.732144 0.595746 0.023047
H10   H     H_    0.451677 0.745643 0.571345 0.086247
H11   H     H_    0.703130 0.907467 0.660898 0.116278
H12   H     H_    0.660756 0.233205 0.223169 0.140965
H13   H     H_    0.627179 0.919328 0.571184 0.092761
H14   H     H_    0.485735 0.918486 0.637259 0.141258
H15   H     H_    0.809036 0.906296 0.218157 0.150433
H16   H     H_    0.884017 0.155958 0.651252 0.041095
H17   H     H_    0.077884 0.230488 0.686845 0.000907
H18   H     H_    0.067157 0.034429 0.696566 0.118840
H19   H     H_    0.098899 0.109158 0.782312 0.156466
H20   H     H_    0.902680 0.033856 0.752144 0.097378
H21   H     H_    0.565175 0.235958 0.714520 0.105948
H22   H     H_    0.501528 0.001118 0.749064 0.118747
H23   H     H_    0.729849 0.372272 0.214667 0.052283
H24   H     H_    0.674220 0.092465 0.788918 0.104692
H25   H     H_    0.056824 0.874715 0.341367 0.095711
H26   H     H_    0.651726 0.067487 0.694371 0.100143
H27   H     H_    0.632229 0.048944 0.418004 0.096212
H28   H     H_    0.185290 0.949501 0.572829 0.114376
H29   H     H_    0.125217 0.265948 0.528965 0.066844
H30   H     H_    0.691762 0.730667 0.461387 0.063336
H31   H     H_    0.500255 0.600049 0.826128 0.067240
H32   H     H_    0.464815 0.684400 0.937130 0.071319
H33   H     H_    0.565475 0.689356 0.061463 0.074687
H34   H     H_    0.878018 0.281730 0.225851 0.136867
H35   H     H_    0.278948 0.447174 0.189566 0.090523
H36   H     H_    0.189720 0.372804 0.952456 0.066841
H37   H     H_    0.844951 0.815947 0.329744 -0.059003
H38   H     H_    0.291896 0.376909 0.075881 0.063742
H39   H     H_    0.021295 0.438212 0.865534 0.080044
H40   H     H_    0.743907 0.617760 0.141170 0.075228
H41   H     H_    0.152920 0.467112 0.653144 0.066588
H42   H     H_    0.662133 0.548138 0.354611 0.068992
H43   H     H_    0.871202 0.999342 0.295067 0.073036
H44   H     H_    0.017437 0.970738 0.232069 0.189831
H45   H     H_    0.172790 0.684224 0.670318 0.009172
H46   H     H_    0.644488 0.341495 0.336335 0.007613
H47   H     H_    0.861872 0.391000 0.337490 0.068782
H48   H     H_    0.411370 0.109600 0.218112 0.309003
H49   H     H_    0.108716 0.671902 0.120718 0.316388
H50   H     H_    0.504950 0.185556 0.845564 0.185344
H51   H     H_    0.277632 0.291764 0.847861 0.110460
H52   H     H_    0.305844 0.311721 0.756239 0.107001
H53   H     H_    0.470262 0.360782 0.823842 0.128447
H54   H     H_    0.958080 0.626040 0.672278 0.046558
H55   H     H_    0.148188 0.807844 0.774592 0.129392
H56   H     H_    0.091865 0.672056 0.795034 0.073754
H57   H     H_    0.933980 0.752756 0.775842 0.126219
N1    N     N_2   0.430120 0.195924 0.801205 -0.432136
O1    O     O_2   0.160820 0.763040 0.533820 -0.478030
O2    O     O_2   0.726470 0.408782 0.749620 -0.501904
O3    O     O_3   0.877689 0.240642 0.747893 -0.621414
O4    O     O_3   0.890970 0.628600 0.535400 -0.492113
O5    O     O_3   0.427530 0.446070 0.416950 -0.491765
O6    O     O_2   0.637430 0.550200 0.669460 -0.457424
O7    O     O_3   0.514794 0.732004 0.678315 -0.642494
O8    O     O_2   0.518233 0.107971 0.571042 -0.517496
O9    O     O_3   0.348694 0.132232 0.684771 -0.642496
O10   O     O_3   0.385950 0.698560 0.408070 -0.475826
O11   O     O_2   0.312138 0.886739 0.449648 -0.494006
O12   O     O_3   0.309897 0.278895 0.322894 -0.634874
O13   O     O_3   0.004288 0.781934 0.645737 -0.644654
O14   O     O_3   0.370892 0.865399 0.316337 -0.578614
O15   O     O_2   0.172860 0.449730 0.330520 -0.463720
O16   O     O_3   0.962080 0.644700 0.373110 -0.484720
O17   O     O_2   0.050845 0.568673 0.249533 -0.454218
O18   O     O_2   0.588396 0.004307 0.158895 -0.624688
O19   O     O_R   0.376798 0.031376 0.224572 -0.731046
O20   O     O_2   0.175889 0.862289 0.134875 -0.583174
O21   O     O_R   0.221738 0.692189 0.146807 -0.751445
O22   O     O_3   0.999851 0.766695 0.254147 -0.559701
O23   O     O_2   0.649470 0.236890 0.466160 -0.479268
O24   O     O_3   0.919320 0.371390 0.464540 -0.494519
O25   O     O_3   0.424350 0.301430 0.591880 -0.474009
O26   O     O_3   0.797421 0.230271 0.352746 -0.634713
O27   O     O_3   0.382770 0.553920 0.582990 -0.483372
O28   O     O_3   0.848220 0.355290 0.626830 -0.479687
P1    P     P_3+3 0.986780 0.745970 0.554690 0.967572
P2    P     P_3+3 0.341450 0.417130 0.341310 0.984464
P3    P     P_3+3 0.932898 0.640129 0.280889 0.986508
P4    P     P_3+3 0.823520 0.254020 0.445250 0.972642
P5    P     P_3+3 0.878588 0.369075 0.719651 0.937280
P6    P     P_3+3 0.430930 0.836317 0.402861 0.955241
P7    P     P_3+3 0.468620 0.593976 0.669138 0.946273
P8    P     P_3+3 0.374720 0.163216 0.596688 0.917758

loop_
_geom_bond_atom_site_label_1
_geom_bond_atom_site_label_2
_ccdc_geom_bond_type
C37   H57   S    
C1    C40   S    
C6    P1    S    
C1    H4    S    
C14   P2    S    
C2    C6    A    
O11   P6    D    
C10   C47   A    
C37   H55   S    
C45   H21   S    
C43   C44   S    
C47   H29   S    
O16   P3    S    
Ba2   O5    S    
C24   C25   A    
C28   H46   S    
O2    P5    D    
Ba2   P4    S    
O7    P7    S    
O17   P3    D    
C22   C24   A    
O1    P1    D    
C2    C5    A    
Ba1   O5    S    
C36   C37   S    
Ba2   O6    S    
O4    P1    S    
C13   C14   A    
O6    P7    D    
Ba1   Ba2   S    
C7    C11   A    
Ba1   O15   S    
C39   H6    S    
C44   H20   S    
C28   H47   S    
C40   O18   D    
Ba2   O23   S    
C43   H17   S    
O22   P3    S    
C17   C18   A    
C6    C7    A    
C27   H39   S    
Ba2   O25   S    
C21   C22   A    
C34   H14   S    
C7    C8    A    
C30   P7    S    
C36   O13   S    
O25   P8    S    
H49   O21   S    
C12   O14   S    
C20   C26   A    
C46   H26   S    
C45   O9    S    
C19   P3    S    
C4    O22   S    
C34   H13   S    
O23   P4    D    
C46   H24   S    
C4    H25   S    
C11   H28   S    
O28   P5    S    
C4    C16   S    
O8    P8    D    
Ba2   O4    S    
O12   P2    S    
C30   C33   A    
O14   P6    S    
C2    H30   S    
C41   O20   D    
C3    C5    A    
C42   H53   S    
C43   O3    S    
C14   C15   A    
C23   C34   S    
C34   H11   S    
C38   H3    S    
C27   C32   A    
C22   C32   S    
C28   C35   S    
O13   P1    S    
O10   P6    S    
Ba1   O16   S    
C39   H7    S    
C44   H19   S    
C36   H54   S    
C9    C47   A    
O27   P7    S    
O9    P8    S    
C45   C46   S    
C13   C19   A    
C28   O26   S    
C1    C41   S    
C36   H45   S    
Ba2   O24   S    
Ba1   O10   S    
C10   C11   A    
C25   H38   S    
C17   C26   S    
C1    C12   S    
C38   C39   S    
O26   P4    S    
C45   N1    S    
C43   H16   S    
C29   C33   A    
C23   H9    S    
C46   H22   S    
Ba1   O27   S    
Ba1   P1    S    
C20   H33   S    
C5    P6    S    
Ba1   P2    S    
C42   N1    S    
C37   H56   S    
C12   H8    S    
C21   H32   S    
O5    P2    S    
O15   P2    D    
H48   O19   S    
Ba1   O24   S    
C41   O21   S    
C35   H12   S    
C42   H52   S    
Ba2   O27   S    
C31   H31   S    
C38   H2    S    
H50   N1    S    
C18   H40   S    
Ba2   O28   S    
C4    H37   S    
C10   P8    S    
C15   H35   S    
C16   H43   S    
C30   C31   A    
C3    H27   S    
O3    P5    S    
C44   H18   S    
C27   C29   A    
C23   O7    S    
Ba1   O4    S    
C42   H51   S    
C16   H15   S    
C12   H1    S    
C24   H36   S    
C15   C17   A    
C31   C32   A    
C39   H5    S    
O24   P4    S    
C8    C9    A    
C40   O19   S    
Ba1   O1    S    
C13   H42   S    
C33   H41   S    
C3    C8    A    
C38   O12   S    
C18   C19   A    
C35   H23   S    
C25   C26   A    
C16   H44   S    
C20   C21   A    
C35   H34   S    
C23   H10   S    
C29   P5    S    
C9    P4    S    
