data_mof_unit_47236.cif
_audit_creation_date              2012-12-11T14:36:25-0500
_audit_creation_method            fapswitch 2.2
_symmetry_space_group_name_H-M    P1
_symmetry_Int_Tables_number       1
_space_group_crystal_system       triclinic
_cell_length_a                    13.474607
_cell_length_b                    13.494771
_cell_length_c                    27.469756
_cell_angle_alpha                 90.715977
_cell_angle_beta                  90.053996
_cell_angle_gamma                 59.979006
_cell_volume                      4324.47180919

loop_
_atom_site_label
_atom_site_type_symbol
_atom_type_description
_atom_site_fract_x
_atom_site_fract_y
_atom_site_fract_z
_atom_type_partial_charge
C1    C     C_R   0.620576 0.101750 0.570020 0.550137
C2    C     C_1   0.648725 0.707508 0.658908 -0.003940
C3    C     C_3   0.062795 0.188781 0.736311 -0.113990
C4    C     C_R   0.599584 0.779766 0.568852 0.555608
C5    C     C_3   0.126442 0.089213 0.772561 -0.110539
C6    C     C_1   0.095249 0.202053 0.901631 0.009043
C7    C     C_1   0.229577 0.138320 0.617501 0.041594
C8    C     C_3   0.079272 0.270291 0.771460 -0.059305
C9    C     C_3   0.143657 0.170391 0.806802 0.006605
C10   C     C_3   0.194702 0.235832 0.746610 0.280162
C11   C     C_3   0.178089 0.155623 0.711973 0.043955
C12   C     C_1   0.630563 0.733677 0.616735 0.030679
C13   C     C_3   0.259001 0.137288 0.782601 -0.063267
C14   C     C_3   0.242310 0.055944 0.747424 -0.119390
C15   C     C_1   0.121651 0.183346 0.859269 -0.023212
C16   C     C_R   0.277675 0.121947 0.569647 0.549236
C17   C     C_1   0.201463 0.147489 0.659629 0.022590
C18   C     C_3   0.601397 0.280620 0.741928 0.268520
C19   C     C_3   0.549101 0.233886 0.779116 -0.070221
C20   C     C_1   0.689796 0.206588 0.903442 0.020596
C21   C     C_1   0.636827 0.134688 0.617846 0.056208
C22   C     C_3   0.712145 0.231679 0.771950 0.260341
C23   C     C_3   0.627156 0.606143 0.771141 -0.042984
C24   C     C_3   0.661130 0.183938 0.808653 -0.022159
C25   C     C_3   0.764964 0.118164 0.742407 -0.155208
C26   C     C_3   0.653308 0.167937 0.712708 0.034571
C27   C     C_3   0.713618 0.069965 0.779693 -0.143230
C28   C     C_R   0.624406 0.102272 0.432438 0.579166
C29   C     C_3   0.602414 0.120360 0.749471 0.232214
C30   C     C_1   0.672301 0.194700 0.861310 0.005554
C31   C     C_1   0.646208 0.153734 0.660054 0.063949
C32   C     C_R   0.750869 0.683362 0.364364 0.216082
C33   C     C_R   0.761291 0.670175 0.312922 0.019475
C34   C     C_3   0.679513 0.657309 0.805999 0.022886
C35   C     C_R   0.767971 0.652884 0.209947 -0.013831
C36   C     C_R   0.857201 0.653643 0.235039 -0.113340
C37   C     C_R   0.854433 0.664567 0.285612 0.267235
C38   C     C_R   0.775175 0.635943 0.159413 -0.129435
C39   C     C_R   0.686821 0.631285 0.134529 0.003417
C40   C     C_R   0.605014 0.771015 0.431767 0.578394
C41   C     C_R   0.579395 0.667202 0.363023 0.224118
C42   C     C_R   0.578161 0.666899 0.312043 0.017412
C43   C     C_R   0.670266 0.668078 0.286982 -0.091265
C44   C     C_R   0.485966 0.671287 0.285045 0.261997
C45   C     C_3   0.560395 0.723327 0.745993 -0.086620
C46   C     C_R   0.488412 0.671857 0.234605 -0.113954
C47   C     C_R   0.581361 0.665775 0.209938 -0.016053
C48   C     C_R   0.672826 0.663307 0.235716 0.047815
C49   C     C_R   0.586409 0.655652 0.159556 -0.123664
C50   C     C_R   0.650472 0.698957 0.387362 -0.007722
C51   C     C_R   0.200013 0.064197 0.360208 -0.109311
C52   C     C_R   0.276706 0.121418 0.431400 0.540296
C53   C     C_R   0.170204 0.079507 0.310919 0.012398
C54   C     C_R   0.131507 0.102879 0.210077 0.011007
C55   C     C_R   0.139830 0.007868 0.234125 -0.126168
C56   C     C_3   0.662764 0.686715 0.711302 0.045079
C57   C     C_R   0.159694 0.995991 0.284230 -0.096536
C58   C     C_R   0.110487 0.116673 0.160100 -0.131513
C59   C     C_R   0.098878 0.214263 0.136987 -0.002063
C60   C     C_R   0.186036 0.251015 0.363032 -0.098643
C61   C     C_R   0.162551 0.264675 0.313750 0.005697
C62   C     C_R   0.156724 0.177760 0.287235 0.057486
C63   C     C_R   0.151893 0.360873 0.290163 -0.095247
C64   C     C_3   0.729355 0.569792 0.735713 -0.056507
C65   C     C_R   0.137841 0.370052 0.240023 -0.124379
C66   C     C_R   0.132399 0.283984 0.213231 0.006556
C67   C     C_3   0.612850 0.774208 0.781631 -0.092945
C68   C     C_R   0.140200 0.188109 0.236825 0.064447
C69   C     C_R   0.115105 0.294605 0.163389 -0.128710
C70   C     C_R   0.213695 0.147540 0.385560 -0.007995
C71   C     C_R   0.568079 0.248705 0.366082 0.187848
C72   C     C_R   0.575384 0.265564 0.315956 0.011900
C73   C     C_R   0.584924 0.289503 0.214326 0.012184
C74   C     C_R   0.498590 0.377808 0.242286 -0.135485
C75   C     C_R   0.492821 0.365507 0.292408 -0.058624
C76   C     C_3   0.782010 0.620618 0.771398 -0.107942
C77   C     C_R   0.594447 0.302497 0.164266 -0.133343
C78   C     C_3   0.715097 0.738120 0.746137 -0.079610
C79   C     C_R   0.683521 0.213655 0.137202 -0.004166
C80   C     C_R   0.752519 0.070572 0.361346 0.196371
C81   C     C_R   0.754653 0.080986 0.310852 0.009520
C82   C     C_R   0.665119 0.177964 0.288076 -0.017137
C83   C     C_R   0.842462 0.994130 0.282315 -0.070540
C84   C     C_R   0.840150 0.001419 0.232034 -0.142268
C85   C     C_R   0.753676 0.098332 0.209443 0.013631
C86   C     C_R   0.667270 0.188394 0.237264 0.070078
C87   C     C_R   0.757033 0.109107 0.159542 -0.124790
C88   C     C_1   0.696894 0.609127 0.900414 0.007606
C89   C     C_1   0.688157 0.635815 0.858317 -0.029757
C90   C     C_R   0.651231 0.144742 0.387607 0.011391
C91   C     C_R   0.049122 0.236254 0.949762 0.550406
C92   C     C_R   0.711468 0.563224 0.948268 0.551835
C93   C     C_R   0.721766 0.225188 0.951059 0.549848
C94   C     C_R   0.046953 0.245874 0.088833 0.546011
C95   C     C_R   0.707949 0.574319 0.086861 0.542668
C96   C     C_R   0.718837 0.234239 0.089713 0.544896
Cl1   Cl    Cl    0.240202 0.333581 0.729146 -0.535730
Cl2   Cl    Cl    0.878437 0.966615 0.391269 -0.474086
Cl3   Cl    Cl    0.528019 0.419324 0.715981 -0.545652
Cl4   Cl    Cl    0.529777 0.045525 0.732658 -0.662492
Cl5   Cl    Cl    0.786301 0.305355 0.788342 -0.666798
Cl6   Cl    Cl    0.864245 0.666008 0.402660 -0.419936
Cl7   Cl    Cl    0.969341 0.676777 0.309637 -0.525145
Cl8   Cl    Cl    0.357226 0.690735 0.310595 -0.550260
Cl9   Cl    Cl    0.510077 0.609882 0.398155 -0.401856
Cl10  Cl    Cl    0.456300 0.358592 0.401605 -0.481764
Cr1   Cr    Cr6+3 0.417550 0.169090 0.500530 1.141645
Cr2   Cr    Cr6+3 0.669180 0.913420 0.499920 1.151457
Cr3   Cr    Cr6+3 0.413260 0.917540 0.499520 1.109334
Cr4   Cr    Cr6+3 0.909170 0.177380 0.020380 1.029059
Cr5   Cr    Cr6+3 0.912710 0.429210 0.018220 1.029608
Cr6   Cr    Cr6+3 0.657170 0.432570 0.019030 1.032766
H1    H     H_    0.873198 0.578759 0.782562 0.132236
H2    H     H_    0.097535 0.054661 0.139813 0.123028
H3    H     H_    0.219543 0.984974 0.377752 0.176353
H4    H     H_    0.131734 0.942521 0.214164 0.118636
H5    H     H_    0.751506 0.792392 0.735196 0.154820
H6    H     H_    0.167206 0.921508 0.302067 0.196904
H7    H     H_    0.105985 0.370319 0.145899 0.129944
H8    H     H_    0.130834 0.444522 0.222241 0.124824
H9    H     H_    0.157513 0.427394 0.310330 0.192728
H10   H     H_    0.537276 0.383377 0.147190 0.122150
H11   H     H_    0.422926 0.435044 0.312235 0.232661
H12   H     H_    0.338603 0.117058 0.802440 0.161890
H13   H     H_    0.825136 0.039067 0.138893 0.131548
H14   H     H_    0.565076 0.857562 0.801280 0.154111
H15   H     H_    0.908028 0.932486 0.210886 0.115281
H16   H     H_    0.911821 0.918155 0.298224 0.227545
H17   H     H_    0.469237 0.764769 0.734859 0.132195
H18   H     H_    0.590171 0.552789 0.782574 0.205865
H19   H     H_    0.982946 0.209509 0.716556 0.163708
H20   H     H_    0.309321 0.967841 0.736866 0.137165
H21   H     H_    0.929566 0.647153 0.214968 0.127105
H22   H     H_    0.417387 0.675571 0.214435 0.128149
H23   H     H_    0.012532 0.358703 0.781857 0.148275
H24   H     H_    0.193353 0.317298 0.382663 0.184761
H25   H     H_    0.435059 0.456284 0.225373 0.128230
H26   H     H_    0.098130 0.028587 0.783984 0.141687
H27   H     H_    0.460768 0.280182 0.794330 0.179250
H28   H     H_    0.758120 0.983065 0.795520 0.137357
H29   H     H_    0.853300 0.072271 0.727165 0.136391
H30   H     H_    0.852642 0.618401 0.140154 0.119399
H31   H     H_    0.777029 0.486135 0.716267 0.172108
H32   H     H_    0.516452 0.654443 0.140505 0.128255
O1    O     O_R   0.301710 0.195650 0.554160 -0.474245
O2    O     O_R   0.635520 0.542770 0.964420 -0.501652
O3    O     O_R   0.665950 0.325030 0.970100 -0.489741
O4    O     O_R   0.522390 0.158990 0.550460 -0.473312
O5    O     O_R   0.816620 0.158530 0.074540 -0.524011
O6    O     O_R   0.004460 0.188870 0.069750 -0.502780
O7    O     O_R   0.025800 0.341780 0.072300 -0.522328
O8    O     O_R   0.807650 0.528950 0.067500 -0.502777
O9    O     O_R   0.633420 0.550490 0.071810 -0.523402
O10   O     O_R   0.664000 0.332180 0.069640 -0.501263
O11   O     O_3   0.826350 0.346390 0.019210 -0.244467
O12   O     O_R   0.658900 0.818120 0.449760 -0.451831
O13   O     O_R   0.694390 0.003530 0.554040 -0.500297
O14   O     O_R   0.657700 0.819660 0.549320 -0.490375
O15   O     O_R   0.501930 0.803280 0.552920 -0.486327
O16   O     O_R   0.318170 0.023580 0.549580 -0.500364
O17   O     O_R   0.303010 0.193990 0.446760 -0.491080
O18   O     O_R   0.523600 0.157450 0.450900 -0.456113
O19   O     O_R   0.695690 0.001860 0.446640 -0.433015
O20   O     O_R   0.503220 0.801620 0.445520 -0.456466
O21   O     O_R   0.319370 0.022040 0.450020 -0.497213
O22   O     O_3   0.499990 0.000010 0.499990 -0.299644
O23   O     O_R   0.818720 0.150820 0.967160 -0.505082
O24   O     O_R   0.006410 0.181720 0.970200 -0.491326
O25   O     O_R   0.027890 0.334070 0.964920 -0.503912
O26   O     O_R   0.809600 0.521790 0.967960 -0.493400

loop_
_geom_bond_atom_site_label_1
_geom_bond_atom_site_label_2
_ccdc_geom_bond_type
C66   C68   A    
C20   C93   S    
C63   C65   A    
C1    C21   S    
C23   C45   S    
C27   C29   S    
C41   C42   A    
C35   C36   A    
C18   C26   S    
C24   C27   S    
C83   H16   S    
C9    C15   S    
Cr4   O5    S    
C2    C12   T    
Cr5   O8    S    
C79   C87   A    
C81   C82   A    
C44   Cl8   S    
C28   O18   A    
C5    H26   S    
C47   C49   A    
C14   H20   S    
C85   C86   A    
C45   H17   S    
C21   C31   T    
C22   Cl5   S    
C41   Cl9   S    
C83   C84   A    
C75   H11   S    
C22   C24   S    
C36   C37   A    
C76   C78   S    
C10   C13   S    
C40   O20   A    
C38   C39   A    
Cr1   O1    S    
C11   C14   S    
C66   C69   A    
Cr2   O14   S    
C55   H4    S    
C6    C91   S    
C49   H32   S    
C56   C78   S    
C18   C19   S    
C73   C74   A    
C61   C63   A    
C9    C13   S    
Cr4   O11   S    
C63   H9    S    
C6    C15   T    
C54   C55   A    
Cr4   O24   S    
C96   O10   A    
Cr1   O17   S    
C45   C56   S    
C92   O26   A    
C8    C9    S    
C7    C17   T    
C22   C25   S    
C45   C67   S    
C56   C64   S    
C26   C29   S    
C77   H10   S    
C59   C94   S    
C4    C12   S    
C43   C48   A    
C60   H24   S    
C52   O17   A    
C80   Cl2   S    
C84   H15   S    
C85   C87   A    
Cr1   O22   S    
C26   C31   S    
Cr6   O10   S    
C13   C14   S    
C36   H21   S    
C8    H23   S    
C38   H30   S    
C67   C78   S    
C42   C44   A    
C72   C75   A    
C35   C48   A    
C74   H25   S    
C44   C46   A    
C77   C79   A    
Cr2   O19   S    
C4    O14   A    
C74   C75   A    
C91   O25   A    
C92   O2    A    
C33   C43   A    
C88   C92   S    
C91   O24   A    
C35   C38   A    
C52   C70   S    
C84   C85   A    
C3    C8    S    
Cr3   O22   S    
C67   H14   S    
C37   Cl7   S    
C13   H12   S    
C53   C57   A    
C20   C30   T    
Cr2   O13   S    
C3    C5    S    
C25   C26   S    
C82   C86   A    
C69   H7    S    
C51   H3    S    
C23   H18   S    
Cr5   O7    S    
C60   C61   A    
Cr5   O25   S    
C10   Cl1   S    
C5    C9    S    
C52   O21   A    
C46   H22   S    
Cr4   O23   S    
C40   O12   A    
C47   C48   A    
Cr2   O12   S    
Cr1   O18   S    
C60   C70   A    
C23   C34   S    
C39   C95   S    
C78   H5    S    
C76   H1    S    
C64   C76   S    
C88   C89   T    
C32   C50   A    
C5    C14   S    
Cr3   O21   S    
C59   C69   A    
C8    C10   S    
C23   C64   S    
C51   C70   A    
Cr6   O9    S    
C55   C57   A    
C3    H19   S    
C58   C59   A    
C94   O6    A    
C42   C43   A    
C19   C29   S    
C41   C50   A    
C87   H13   S    
C33   C37   A    
C54   C58   A    
Cr2   O22   S    
C46   C47   A    
C7    C16   S    
C29   Cl4   S    
C39   C49   A    
C18   C22   S    
C25   H29   S    
C80   C81   A    
Cr4   O6    S    
Cr3   O20   S    
C11   C17   S    
C34   C67   S    
C81   C83   A    
C28   C90   S    
C64   H31   S    
C25   C27   S    
C27   H28   S    
Cr6   O3    S    
C62   C68   A    
Cr5   O26   S    
C32   C33   A    
C1    O13   A    
C19   C24   S    
C94   O7    A    
C34   C89   S    
C71   C72   A    
C2    C56   S    
Cr1   O4    S    
C71   C90   A    
C95   O9    A    
C40   C50   S    
C96   O5    A    
C65   H8    S    
Cr6   O2    S    
C93   O3    A    
C32   Cl6   S    
C80   C90   A    
C61   C62   A    
C24   C30   S    
C73   C86   A    
C3    C11   S    
C10   C11   S    
C4    O15   A    
C79   C96   S    
C54   C68   A    
C16   O16   A    
C93   O23   A    
C53   C62   A    
C19   H27   S    
C65   C66   A    
C18   Cl3   S    
C71   Cl10  S    
C58   H2    S    
C73   C77   A    
C16   O1    A    
C1    O4    A    
Cr6   O11   S    
C95   O8    A    
C51   C53   A    
Cr3   O16   S    
Cr5   O11   S    
C72   C82   A    
C28   O19   A    
C34   C76   S    
C57   H6    S    
Cr3   O15   S    
