data_mof_unit_7902.cif
_audit_creation_date              2012-12-10T17:13:18-0500
_audit_creation_method            fapswitch 2.2
_symmetry_space_group_name_H-M    P1
_symmetry_Int_Tables_number       1
_space_group_crystal_system       triclinic
_cell_length_a                    18.263257
_cell_length_b                    18.243377
_cell_length_c                    18.231244
_cell_angle_alpha                 119.517229
_cell_angle_beta                  90.681643
_cell_angle_gamma                 119.74654
_cell_volume                      4317.16873287

loop_
_atom_site_label
_atom_site_type_symbol
_atom_type_description
_atom_site_fract_x
_atom_site_fract_y
_atom_site_fract_z
_atom_type_partial_charge
C1    C     C_R   0.641214 0.780456 0.642743 0.921386
C2    C     C_R   0.064703 0.893843 0.253774 0.117756
C3    C     C_R   0.154222 0.944939 0.253036 0.105795
C4    C     C_R   0.358827 0.219907 0.360074 0.789577
C5    C     C_R   0.211895 0.054732 0.310668 0.058336
C6    C     C_R   0.297622 0.107597 0.304224 -0.055010
C7    C     C_R   0.325480 0.053046 0.241896 -0.172477
C8    C     C_R   0.271665 0.946413 0.188637 -0.211752
C9    C     C_R   0.187838 0.891853 0.194921 -0.054207
C10   C     C_R   0.784978 0.690688 0.386182 -0.101265
C11   C     C_R   0.865568 0.782244 0.412850 -0.211386
C12   C     C_3   0.837347 0.562952 0.760080 -0.278834
C13   C     C_R   0.937173 0.779934 0.390268 -0.249166
C14   C     C_R   0.925959 0.685427 0.334575 0.430443
C15   C     C_R   0.837357 0.592796 0.287363 -0.052627
C16   C     C_R   0.358000 0.497968 0.637888 0.774531
C17   C     C_R   0.771628 0.594964 0.325959 0.002674
C18   C     C_R   0.694158 0.501363 0.302620 -0.070468
C19   C     C_R   0.672086 0.407082 0.227553 0.040752
C20   C     C_R   0.726901 0.407162 0.174412 0.029105
C21   C     C_R   0.809178 0.499873 0.202861 -0.072669
C22   C     C_R   0.843848 0.910925 0.676519 0.173005
C23   C     C_3   0.772473 0.593927 0.787855 0.059439
C24   C     C_R   0.912311 0.958825 0.648465 -0.138020
C25   C     C_R   0.935786 0.049975 0.660372 -0.178251
C26   C     C_R   0.898170 0.099805 0.709667 -0.093604
C27   C     C_R   0.830495 0.053480 0.740327 0.026815
C28   C     C_R   0.639510 0.500793 0.359817 0.903143
C29   C     C_R   0.791396 0.950248 0.708131 0.037080
C30   C     C_R   0.701576 0.893364 0.706740 -0.186492
C31   C     C_R   0.668234 0.947284 0.763271 -0.002766
C32   C     C_R   0.727220 0.054867 0.824362 0.367076
C33   C     C_R   0.803553 0.108156 0.805629 -0.249829
C34   C     C_3   0.739031 0.532181 0.827956 0.146975
C35   C     C_R   0.448926 0.657936 0.306246 0.415722
C36   C     C_R   0.478304 0.710654 0.265385 -0.194948
C37   C     C_R   0.418259 0.696727 0.204662 -0.210099
C38   C     C_R   0.327141 0.630564 0.183688 -0.124730
C39   C     C_R   0.293655 0.571761 0.219455 0.005803
C40   C     C_R   0.364601 0.505675 0.359302 0.946860
C41   C     C_R   0.354045 0.581261 0.278873 -0.028708
C42   C     C_R   0.314586 0.511708 0.304757 -0.139153
C43   C     C_R   0.222378 0.438246 0.273712 -0.221164
C44   C     C_R   0.164449 0.431998 0.218489 0.450350
C45   C     C_3   0.663155 0.435829 0.738629 -0.262209
C46   C     C_R   0.200169 0.501906 0.195022 -0.189012
C47   C     C_R   0.191512 0.475590 0.584627 -0.241676
C48   C     C_R   0.114464 0.469576 0.561824 0.426491
C49   C     C_R   0.061346 0.469206 0.615872 -0.212649
C50   C     C_R   0.084923 0.475568 0.692688 -0.222903
C51   C     C_R   0.164828 0.486594 0.719512 0.051801
C52   C     C_R   0.641392 0.500114 0.641753 0.885669
C53   C     C_R   0.218884 0.486292 0.664349 0.029701
C54   C     C_R   0.297119 0.493228 0.689017 -0.053633
C55   C     C_R   0.319182 0.496875 0.764796 -0.249600
C56   C     C_3   0.697986 0.499204 0.698345 -0.114442
C57   C     C_R   0.267233 0.498387 0.819826 0.082157
C58   C     C_R   0.190738 0.494707 0.798369 -0.053997
C59   C     C_R   0.860860 0.499865 0.141440 0.853601
C60   C     C_R   0.138734 0.498804 0.858735 0.795977
C61   C     C_R   0.138576 0.779950 0.139818 0.825089
C62   C     C_R   0.859858 0.220189 0.859618 0.881190
C63   C     C_R   0.139606 0.498270 0.140813 0.901863
C64   C     C_3   0.761127 0.466195 0.670216 0.482545
C65   C     C_R   0.858585 0.499774 0.858130 0.826403
C66   C     C_3   0.727353 0.402338 0.709924 -0.233347
C67   C     C_R   0.181255 0.109218 0.370838 -0.162335
C68   C     C_3   0.802081 0.499569 0.800344 -0.056084
C69   C     C_R   0.095737 0.057324 0.374189 -0.140666
C70   C     C_R   0.037669 0.950800 0.315674 -0.181280
H1    H     H_    0.710442 0.323494 0.677837 0.184783
H2    H     H_    0.195597 0.384833 0.292886 0.191368
H3    H     H_    0.548845 0.766322 0.282440 0.192625
H4    H     H_    0.442619 0.739649 0.175244 0.163772
H5    H     H_    0.283211 0.624332 0.137269 0.121080
H6    H     H_    0.908403 0.614782 0.768825 0.188567
H7    H     H_    0.378924 0.501645 0.782967 0.157870
H8    H     H_    0.228198 0.469835 0.538394 0.175965
H9    H     H_    0.000613 0.462427 0.597889 0.221150
H10   H     H_    0.038662 0.469942 0.729325 0.178014
H11   H     H_    0.592125 0.385149 0.730700 0.184278
H12   H     H_    0.970052 0.912058 0.316774 0.147788
H13   H     H_    0.390520 0.093415 0.236147 0.162990
H14   H     H_    0.222268 0.192486 0.415044 0.143199
H15   H     H_    0.073415 0.100330 0.420782 0.153752
H16   H     H_    0.946213 0.776514 0.152402 0.175759
H17   H     H_    0.972797 0.751237 0.222192 0.184861
H18   H     H_    0.550601 0.271881 0.141590 0.194952
H19   H     H_    0.613409 0.267052 0.206559 0.203807
H20   H     H_    0.041128 0.574796 0.351685 0.424075
H21   H     H_    0.639363 0.280297 0.051004 0.219978
H22   H     H_    0.694375 0.261746 0.108688 0.245688
H23   H     H_    0.296319 0.905880 0.142958 0.156513
H24   H     H_    0.560484 0.939862 0.804809 0.256429
H25   H     H_    0.537559 0.868943 0.697011 0.227403
H26   H     H_    0.831596 0.339689 0.490430 0.407390
H27   H     H_    0.826111 0.775652 0.637225 0.239626
H28   H     H_    0.812039 0.835586 0.738618 0.202018
H29   H     H_    0.838958 0.200369 0.018417 0.371857
H30   H     H_    0.633213 0.866652 0.451449 0.364006
H31   H     H_    0.928742 0.326834 0.191839 0.400364
H32   H     H_    0.055015 0.573330 0.518635 0.370702
H33   H     H_    0.296892 0.444644 0.880950 0.203145
H34   H     H_    0.732679 0.695125 0.410819 0.195114
H35   H     H_    0.358602 0.574643 0.939343 0.180362
H36   H     H_    0.848191 0.745721 0.890466 0.211919
H37   H     H_    0.819125 0.721668 0.789532 0.202044
H38   H     H_    0.680885 0.585225 0.914645 0.196133
H39   H     H_    0.702853 0.510717 0.924231 0.194515
H40   H     H_    0.874878 0.855318 0.457312 0.174430
H41   H     H_    0.003392 0.851713 0.423667 0.186110
H42   H     H_    0.951258 0.928656 0.622421 0.163924
H43   H     H_    0.988646 0.086511 0.638347 0.148690
H44   H     H_    0.922650 0.174576 0.723912 0.130528
N1    N     N_3   0.998636 0.785761 0.188494 -0.463244
N2    N     N_3   0.593838 0.311717 0.205784 -0.429535
N3    N     N_3   0.701241 0.312517 0.093376 -0.325043
N4    N     N_3   0.575499 0.892323 0.757175 -0.390991
N5    N     N_3   0.848533 0.846235 0.696784 -0.436633
N6    N     N_3   0.293992 0.507041 0.899564 -0.438894
N7    N     N_3   0.794837 0.697499 0.830628 -0.447505
N8    N     N_3   0.729304 0.570671 0.915975 -0.457434
O1    O     O_3   0.500000 0.500000 0.500000 -0.506486
O2    O     O_R   0.945270 0.268330 0.884560 -0.631846
O3    O     O_R   0.117250 0.560610 0.177960 -0.590299
O4    O     O_R   0.676930 0.731590 0.616180 -0.688628
O5    O     O_R   0.821970 0.439270 0.882700 -0.649942
O6    O     O_R   0.117250 0.439170 0.056520 -0.618598
O7    O     O_R   0.943420 0.560710 0.882700 -0.646400
O8    O     O_R   0.115410 0.731560 0.054670 -0.641683
O9    O     O_R   0.823040 0.268350 0.883790 -0.567946
O10   O     O_R   0.945270 0.560650 0.176870 -0.585701
O11   O     O_R   0.116170 0.439210 0.884560 -0.631634
O12   O     O_R   0.384570 0.439270 0.616180 -0.651567
O13   O     O_R   0.384570 0.268390 0.445310 -0.637515
O14   O     O_R   0.383800 0.560730 0.615410 -0.643741
O15   O     O_R   0.554710 0.439290 0.323100 -0.602921
O16   O     O_R   0.382720 0.560770 0.443450 -0.576863
O17   O     O_R   0.678010 0.560670 0.617270 -0.632890
O18   O     O_R   0.382720 0.439330 0.322010 -0.636035
O19   O     O_R   0.556550 0.439230 0.617270 -0.643544
O20   O     O_2   0.090167 0.733358 0.331836 -0.263044
O21   O     O_2   0.056471 0.749883 0.466131 -0.287002
O22   O     O_3   0.987199 0.565638 0.324902 -0.475068
O23   O     O_R   0.676930 0.560710 0.445310 -0.630175
O24   O     O_2   0.683119 0.344343 0.491295 -0.311223
O25   O     O_2   0.829511 0.509158 0.555963 -0.265382
O26   O     O_3   0.824877 0.361219 0.550059 -0.575932
O27   O     O_2   0.650734 0.149430 0.907849 -0.287916
O28   O     O_2   0.661855 0.050341 0.955871 -0.312078
O29   O     O_3   0.805731 0.226130 0.008880 -0.534585
O30   O     O_2   0.510023 0.744486 0.481416 -0.309627
O31   O     O_2   0.546035 0.624224 0.383182 -0.350981
O32   O     O_3   0.634010 0.805077 0.415805 -0.579782
O33   O     O_2   0.016445 0.269460 0.074920 -0.321910
O34   O     O_R   0.554710 0.731610 0.615410 -0.578245
O35   O     O_2   0.029989 0.263232 0.205097 -0.246847
O36   O     O_3   0.991584 0.385671 0.212376 -0.509093
O37   O     O_2   0.163431 0.518953 0.446064 -0.304930
O38   O     O_2   0.030609 0.345842 0.386194 -0.216196
O39   O     O_3   0.015985 0.498451 0.470595 -0.485405
O40   O     O_R   0.383800 0.268410 0.323100 -0.636509
O41   O     O_3   0.999970 0.499940 0.999970 -0.522995
O42   O     O_R   0.823040 0.439240 0.054670 -0.595382
O43   O     O_R   0.115410 0.560680 0.883790 -0.653494
O44   O     O_R   0.116170 0.731530 0.176870 -0.596600
S1    S     S_3+6 0.018667 0.685854 0.365580 0.071037
S2    S     S_3+6 0.773865 0.420011 0.562873 0.030640
S3    S     S_3+6 0.708726 0.119698 0.925617 0.015354
S4    S     S_3+6 0.534467 0.706054 0.398609 -0.021092
S5    S     S_3+6 0.048084 0.332551 0.175555 0.058055
S6    S     S_3+6 0.082079 0.457553 0.463041 0.047471
Zn1   Zn    Zn3+2 0.457160 0.413230 0.543930 0.981637
Zn2   Zn    Zn3+2 0.456070 0.586770 0.542830 1.069888
Zn3   Zn    Zn3+2 0.456070 0.413260 0.369320 1.050453
Zn4   Zn    Zn3+2 0.630700 0.586740 0.543930 1.031471
Zn5   Zn    Zn3+2 0.042810 0.586720 0.956040 0.960825
Zn6   Zn    Zn3+2 0.043900 0.586680 0.130650 1.086248
Zn7   Zn    Zn3+2 0.043900 0.413170 0.957150 1.018963
Zn8   Zn    Zn3+2 0.869280 0.413210 0.956040 1.049775

loop_
_geom_bond_atom_site_label_1
_geom_bond_atom_site_label_2
_ccdc_geom_bond_type
C66   C68   S    
C37   H4    S    
H18   N2    S    
C43   H2    S    
O12   Zn1   S    
C27   C29   A    
O43   Zn5   S    
C41   C42   A    
C7    H13   S    
C35   C36   A    
C24   H42   S    
C5    C67   A    
C16   O12   A    
C62   O2    A    
O1    Zn4   S    
C69   H15   S    
C23   C56   S    
C39   C41   A    
C53   C54   A    
C27   C33   A    
C12   C68   S    
C12   C23   S    
O34   Zn2   S    
C26   C27   A    
C29   C30   A    
O27   S3    D    
O5    Zn8   S    
C65   O5    A    
C22   C24   A    
C36   C37   A    
C22   C29   A    
O15   Zn3   S    
H32   O39   S    
C30   C31   A    
C55   H7    S    
O36   S5    S    
O28   S3    D    
C10   C17   A    
C58   C60   S    
C57   N6    S    
C52   O17   A    
O32   S4    S    
C61   O44   A    
O7    Zn5   S    
O2    Zn7   S    
C59   O42   A    
O20   S1    D    
C48   S6    S    
O39   S6    S    
H33   N6    S    
C45   C56   S    
C8    C9    A    
O41   Zn8   S    
C40   O16   A    
O31   S4    D    
O41   Zn5   S    
C56   C64   S    
H35   N6    S    
O44   Zn6   S    
H17   N1    S    
C63   O6    A    
O42   Zn8   S    
C47   C53   A    
C23   C34   S    
C40   C42   S    
H19   N2    S    
C67   H14   S    
C34   N8    S    
C13   C14   A    
H24   N4    S    
C11   H40   S    
O19   Zn1   S    
O17   Zn4   S    
C70   H12   S    
C20   N3    S    
O1    Zn1   S    
C44   C46   A    
C50   C51   A    
C38   H5    S    
H25   N4    S    
O38   S6    D    
C22   N5    S    
H26   O26   S    
O14   Zn2   S    
C59   O10   A    
O37   S6    D    
C8    H23   S    
O22   S1    S    
H28   N5    S    
C18   C28   S    
C1    O4    A    
C23   N7    S    
C10   C11   A    
C34   C68   S    
O6    Zn7   S    
C18   C19   A    
O40   Zn3   S    
C25   C26   A    
C33   C62   S    
C49   H9    S    
H16   N1    S    
C67   C69   A    
C64   C66   S    
H27   N5    S    
C1    O34   A    
H22   N3    S    
C26   H44   S    
C31   N4    S    
O16   Zn2   S    
C37   C38   A    
C3    C9    A    
O8    Zn5   S    
C25   H43   S    
C60   O11   A    
O30   S4    D    
C2    N1    S    
C65   O7    A    
C47   C48   A    
O23   Zn4   S    
C65   C68   S    
O41   Zn6   S    
H21   N3    S    
C17   C18   A    
C28   O23   A    
C51   C58   A    
C24   C25   A    
O21   S1    D    
C63   O3    A    
C34   C45   S    
C61   O8    A    
C4    O13   A    
C4    C6    S    
C48   C49   A    
H31   O36   S    
C39   C46   A    
C43   C44   A    
O41   Zn7   S    
O26   S2    S    
C4    O40   A    
C42   C43   A    
H37   N7    S    
C16   O14   A    
O13   Zn1   S    
C12   H6    S    
O3    Zn6   S    
O1    Zn2   S    
O4    Zn4   S    
H39   N8    S    
H30   O32   S    
C15   C17   A    
O24   S2    D    
C54   C55   A    
C38   C39   A    
C62   O9    A    
C31   C32   A    
O11   Zn7   S    
C28   O15   A    
C60   O43   A    
H38   N8    S    
C3    C5    A    
C50   H10   S    
O1    Zn3   S    
O9    Zn8   S    
C21   C59   S    
C6    C7    A    
C52   O19   A    
O29   S3    S    
C46   C63   S    
C32   C33   A    
C19   C20   A    
C55   C57   A    
C2    C3    A    
C44   S5    S    
C64   S2    S    
O35   S5    D    
C11   C13   A    
C57   C58   A    
C5    C6    A    
H29   O29   S    
C19   N2    S    
O18   Zn3   S    
C12   C64   S    
C40   O18   A    
H36   N7    S    
C10   H34   S    
C1    C30   S    
C9    C61   S    
C45   H11   S    
C66   H1    S    
C69   C70   A    
C35   C41   A    
C16   C54   S    
C7    C8    A    
O25   S2    D    
O33   S5    D    
C15   C21   A    
C20   C21   A    
C32   S3    S    
C13   H41   S    
C49   C50   A    
C45   C66   S    
C35   S4    S    
C14   C15   A    
C47   H8    S    
C51   C53   A    
C14   S1    S    
C2    C70   A    
C36   H3    S    
H20   O22   S    
C52   C56   S    
O10   Zn6   S    
