data_mof_unit_54821.cif
_audit_creation_date              2013-03-05T16:32:41-0500
_audit_creation_method            fapswitch 2.2
_symmetry_space_group_name_H-M    P1
_symmetry_Int_Tables_number       1
_space_group_crystal_system       triclinic
_cell_length_a                    9.608483
_cell_length_b                    10.908656
_cell_length_c                    17.279776
_cell_angle_alpha                 93.059539
_cell_angle_beta                  86.446581
_cell_angle_gamma                 90.982336
_cell_volume                      1804.957952

loop_
_atom_site_label
_atom_site_type_symbol
_atom_site_description
_atom_site_fract_x
_atom_site_fract_y
_atom_site_fract_z
_atom_type_partial_charge
O1    O     O_R   0.381190 0.680360 0.500000 -0.529236
O2    O     O_R   0.618770 0.680320 0.499990 -0.593350
C1    C     C_R   0.500923 0.737039 0.500757 0.840336
O3    O     O_R   0.367430 0.500040 0.613600 -0.524898
O4    O     O_R   0.605020 0.500000 0.613590 -0.606255
C2    C     C_R   0.482457 0.494479 0.649680 0.812034
Cu1   Cu    Cu3+1 0.359330 0.500020 0.500000 1.062467
Cu2   Cu    Cu3+1 0.640670 0.499980 0.500000 1.006352
O5    O     O_R   0.381230 0.319680 0.500010 -0.577172
O6    O     O_R   0.618810 0.319640 0.500000 -0.592502
O7    O     O_R   0.394980 0.500000 0.386410 -0.585131
O8    O     O_R   0.632570 0.499960 0.386400 -0.543271
C3    C     C_R   0.499341 0.262655 0.499858 0.795713
C4    C     C_R   0.517886 0.503079 0.350042 0.842807
C5    C     C_R   0.476868 0.473378 0.732996 -0.042899
C6    C     C_R   0.599629 0.485851 0.772753 -0.150298
C7    C     C_R   0.599987 0.459133 0.850101 -0.156566
C8    C     C_R   0.477204 0.420013 0.889653 0.075395
C9    C     C_R   0.354336 0.404742 0.850343 -0.090385
C10   C     C_R   0.354582 0.430139 0.771957 -0.101269
C11   C     C_R   0.406857 0.471932 0.146168 -0.080224
C12   C     C_R   0.405673 0.473406 0.226107 -0.202127
C13   C     C_R   0.648125 0.543332 0.221764 0.317034
C14   C     C_R   0.650745 0.538778 0.139732 0.083760
C15   C     C_R   0.528678 0.501365 0.102469 0.172357
C16   C     C_2   0.478344 0.403669 0.973404 0.281861
C17   C     C_2   0.522582 0.500349 0.017938 -0.328293
C18   C     C_R   0.525353 0.507155 0.264885 -0.176871
H1    H     H_    0.696389 0.514997 0.744134 0.165432
H2    H     H_    0.309909 0.447598 0.257586 0.181923
H3    H     H_    0.552679 0.585403 0.990878 0.159890
H4    H     H_    0.258456 0.374834 0.880350 0.173343
H5    H     H_    0.311927 0.446966 0.118020 0.168527
H6    H     H_    0.260524 0.413341 0.741705 0.214062
H7    H     H_    0.696113 0.470177 0.879574 0.151293
C19   C     C_R   0.380665 0.934712 0.500751 0.039667
C20   C     C_R   0.502985 0.869543 0.502125 -0.071638
C21   C     C_R   0.628804 0.937804 0.504260 -0.154002
H8    H     H_    0.727864 0.892394 0.505968 0.189771
C22   C     C_R   0.627457 0.066660 0.503867 -0.157546
H9    H     H_    0.725941 0.116107 0.505705 0.187186
C23   C     C_R   0.500385 0.129697 0.500822 -0.076586
C24   C     C_R   0.379130 0.058610 0.499368 0.019465
C25   C     C_3   0.224248 0.060849 0.494308 0.052296
C26   C     C_3   0.226520 0.920188 0.496594 0.094336
H10   H     H_    0.190640 0.091642 0.438565 0.132945
H11   H     H_    0.171852 0.883869 0.549073 0.185220
C27   C     C_R   0.933155 0.458654 0.436061 0.323580
N1    N     N_R   0.852130 0.499070 0.499500 -0.215398
C28   C     C_R   0.921240 0.563175 0.557236 0.150762
C29   C     C_R   0.068837 0.555218 0.559956 0.436035
N2    N     N_R   0.148040 0.499110 0.499500 -0.256869
C30   C     C_R   0.079741 0.463133 0.434755 0.248561
C31   C     C_3   0.089243 0.342016 0.391302 -0.472109
C32   C     C_3   0.930728 0.335335 0.395324 -0.441670
H12   H     H_    0.135565 0.349139 0.331278 0.206171
H13   H     H_    0.138385 0.274960 0.425525 0.227655
H14   H     H_    0.886384 0.336966 0.337543 0.234022
H15   H     H_    0.886709 0.263059 0.433018 0.220595
C33   C     C_3   0.783499 0.574541 0.093959 -0.710239
H16   H     H_    0.774202 0.570469 0.030356 0.208244
H17   H     H_    0.814910 0.669781 0.111888 0.258518
H18   H     H_    0.868019 0.510919 0.105046 0.260487
N3    N     N_R   0.152836 0.119665 0.563550 0.137620
O9    O     O_R   0.044059 0.186583 0.556644 -0.381306
O10   O     O_R   0.193254 0.101825 0.632569 -0.322482
N4    N     N_R   0.187408 0.857122 0.424049 0.139302
O11   O     O_R   0.251227 0.881610 0.357851 -0.324495
O12   O     O_R   0.087354 0.775323 0.425555 -0.336700
C34   C     C_3   0.849787 0.653146 0.615663 -0.669506
H19   H     H_    0.741935 0.673255 0.606105 0.249298
H20   H     H_    0.853559 0.620686 0.674928 0.230304
H21   H     H_    0.905330 0.743213 0.613677 0.218264
N5    N     N_R   0.132380 0.605571 0.627654 0.133797
O13   O     O_R   0.204686 0.707034 0.624989 -0.366425
O14   O     O_R   0.096267 0.563131 0.695008 -0.393534
N6    N     N_R   0.766338 0.592049 0.260808 0.132221
O15   O     O_R   0.754639 0.692447 0.304741 -0.310476
O16   O     O_R   0.886580 0.538614 0.250910 -0.373329
N7    N     N_R   0.444152 0.285167 0.003587 0.140360
O17   O     O_R   0.367858 0.207129 0.964678 -0.325893
O18   O     O_R   0.508099 0.246691 0.061744 -0.320319

loop_
_geom_bond_atom_site_label_1
_geom_bond_atom_site_label_2
_geom_bond_distance
_ccdc_geom_bond_type
C27   C32   1.485129 S    
C32   H15   1.110850 S    
C9    C10   1.396787 A    
C8    C16   1.468289 S    
C29   N5    1.432258 S    
Cu1   Cu2   2.703258 S    
C30   C31   1.485763 S    
C25   N3    1.464719 S    
Cu1   O7    1.971439 S    
C16   C17   1.350441 D    
N5    O14   1.300492 A    
C33   H18   1.109380 S    
C19   C20   1.386080 A    
Cu1   N2    2.030581 S    
C21   H8    1.083238 S    
O7    C4    1.303681 A    
C11   H5    1.084001 S    
C5    C6    1.402416 A    
C33   H17   1.110384 S    
C8    C9    1.401249 A    
O5    C3    1.303292 A    
C2    C5    1.467616 S    
C6    C7    1.383315 A    
C26   N4    1.464036 S    
C13   C14   1.414402 A    
C34   H19   1.087279 S    
C14   C33   1.515145 S    
C10   H6    1.079953 S    
C22   C23   1.416688 A    
C12   C18   1.400558 A    
C11   C12   1.379911 A    
C5    C10   1.404694 A    
O3    Cu1   1.969325 S    
C9    H4    1.082855 S    
C3    C23   1.451590 S    
C25   H10   1.105323 S    
C7    C8    1.398195 A    
C26   H11   1.107878 S    
C27   C30   1.407302 A    
C31   H12   1.109100 S    
N5    O13   1.298068 A    
C17   H3    1.087874 S    
C29   N2    1.376322 A    
C14   C15   1.416322 A    
N7    O18   1.301549 A    
C6    H1    1.076886 S    
N6    O15   1.301268 A    
C16   N7    1.444706 S    
N4    O11   1.302269 A    
C33   H16   1.106639 S    
N4    O12   1.300422 A    
N3    O10   1.302249 A    
C24   C25   1.496841 S    
C20   C21   1.410348 A    
Cu2   O8    1.969329 S    
C34   H21   1.111157 S    
C28   C29   1.426159 A    
N6    O16   1.300698 A    
C19   C26   1.492592 S    
C13   C18   1.417387 A    
C13   N6    1.436588 S    
O3    C2    1.306018 A    
C27   N1    1.362559 A    
O8    C4    1.303654 A    
C23   C24   1.389230 A    
N2    C30   1.368090 A    
Cu1   O5    1.982084 S    
C11   C15   1.395276 A    
C31   C32   1.521043 S    
C22   H9    1.082493 S    
C12   H2    1.080395 S    
O1    Cu1   1.974864 S    
O2    Cu2   1.982083 S    
C25   C26   1.537596 S    
N7    O17   1.301045 A    
O6    C3    1.296092 A    
O4    Cu2   1.971439 S    
C15   C17   1.464926 S    
C4    C18   1.471802 S    
N3    O9    1.300177 A    
O2    C1    1.298634 A    
C28   C34   1.511735 S    
C21   C22   1.406312 A    
O4    C2    1.299967 A    
C1    C20   1.444197 S    
Cu2   O6    1.974864 S    
N1    C28   1.384568 A    
C32   H14   1.110693 S    
C19   C24   1.353390 A    
C34   H20   1.104168 S    
C7    H7    1.083938 S    
O1    C1    1.297155 A    
Cu2   N1    2.031485 S    
C31   H13   1.095619 S    
