data_mof_unit_67237.cif
_audit_creation_date              2013-03-05T16:01:27-0500
_audit_creation_method            fapswitch 2.2
_symmetry_space_group_name_H-M    P1
_symmetry_Int_Tables_number       1
_space_group_crystal_system       triclinic
_cell_length_a                    20.009679
_cell_length_b                    20.605548
_cell_length_c                    8.439047
_cell_angle_alpha                 89.791558
_cell_angle_beta                  92.360798
_cell_angle_gamma                 90.208463
_cell_volume                      3476.5094176

loop_
_atom_site_label
_atom_site_type_symbol
_atom_site_description
_atom_site_fract_x
_atom_site_fract_y
_atom_site_fract_z
_atom_type_partial_charge
P1    P     P_3+3 0.136530 0.426510 0.931350 0.565210
P2    P     P_3+3 0.136530 0.573490 0.431350 0.572778
P3    P     P_3+3 0.636530 0.926510 0.931350 0.565209
P4    P     P_3+3 0.636530 0.073490 0.431350 0.572787
O1    O     O_2   0.130070 0.404060 0.104920 -0.257359
O2    O     O_2   0.130070 0.595940 0.604920 -0.245663
O3    O     O_2   0.630070 0.904060 0.104920 -0.257367
O4    O     O_2   0.630070 0.095940 0.604920 -0.245608
O5    O     O_3   0.075780 0.466370 0.861070 -0.397948
O6    O     O_3   0.075780 0.533630 0.361070 -0.400994
O7    O     O_3   0.575780 0.966370 0.861070 -0.397941
O8    O     O_3   0.575780 0.033630 0.361070 -0.401018
O9    O     O_3   0.022320 0.344950 0.359800 -0.346440
O10   O     O_3   0.022320 0.655050 0.859800 -0.325719
O11   O     O_3   0.522320 0.844950 0.359800 -0.346482
O12   O     O_3   0.522320 0.155050 0.859800 -0.325659
O13   O     O_2   0.128503 0.288641 0.249102 -0.243011
O14   O     O_2   0.133517 0.703370 0.755449 -0.220432
O15   O     O_2   0.628505 0.788644 0.249110 -0.243016
O16   O     O_2   0.633505 0.203392 0.755428 -0.220402
O17   O     O_3   0.211506 0.471474 0.942469 -0.563276
O18   O     O_3   0.211182 0.528390 0.442485 -0.567915
O19   O     O_3   0.711492 0.971489 0.942554 -0.563133
O20   O     O_3   0.711191 0.028394 0.442456 -0.567885
O21   O     O_3   0.036305 0.208289 0.339002 -0.459886
O22   O     O_3   0.043902 0.789431 0.802622 -0.478603
O23   O     O_3   0.536305 0.708290 0.338998 -0.459892
O24   O     O_3   0.543881 0.289438 0.802655 -0.478603
C1    C     C_3   0.943558 0.140830 0.408944 0.137804
C2    C     C_3   0.970478 0.878214 0.848124 0.124021
C3    C     C_3   0.443559 0.640830 0.408947 0.137684
C4    C     C_3   0.470452 0.378212 0.848197 0.123911
H1    H     H_    0.927930 0.127705 0.285820 0.174397
H2    H     H_    0.945526 0.869009 0.730338 0.176592
H3    H     H_    0.427931 0.627701 0.285826 0.174526
H4    H     H_    0.445481 0.368998 0.730436 0.176419
P5    P     P_3+3 0.863410 0.426100 0.379280 0.537788
P6    P     P_3+3 0.863410 0.573900 0.879280 0.533751
P7    P     P_3+3 0.363410 0.926100 0.379280 0.537776
P8    P     P_3+3 0.363410 0.073900 0.879280 0.533764
P9    P     P_3+3 0.919152 0.283247 0.933386 0.706664
P10   P     P_3+3 0.918379 0.715686 0.434186 0.683833
P11   P     P_3+3 0.419148 0.783250 0.933377 0.706764
P12   P     P_3+3 0.418390 0.215694 0.434195 0.683737
O25   O     O_2   0.869860 0.403670 0.205810 -0.324639
O26   O     O_2   0.869860 0.596330 0.705810 -0.337133
O27   O     O_2   0.369860 0.903670 0.205810 -0.324656
O28   O     O_2   0.369860 0.096330 0.705810 -0.337122
O29   O     O_3   0.977590 0.344880 0.951200 -0.329980
O30   O     O_3   0.977590 0.655120 0.451200 -0.325192
O31   O     O_3   0.477590 0.844880 0.951200 -0.330008
O32   O     O_3   0.477590 0.155120 0.451200 -0.325139
O33   O     O_2   0.867858 0.297044 0.060765 -0.249575
O34   O     O_2   0.871471 0.707608 0.574092 -0.305814
O35   O     O_2   0.367854 0.797048 0.060754 -0.249519
O36   O     O_2   0.371481 0.207616 0.574099 -0.305923
O37   O     O_3   0.788106 0.469777 0.376497 -0.577405
O38   O     O_3   0.788456 0.529166 0.876768 -0.573083
O39   O     O_3   0.288106 0.969778 0.376496 -0.577405
O40   O     O_3   0.288457 0.029165 0.876770 -0.573080
O41   O     O_3   0.958208 0.211803 0.002654 -0.515758
O42   O     O_3   0.959115 0.790091 0.470358 -0.544778
O43   O     O_3   0.458201 0.711804 0.002645 -0.515667
O44   O     O_3   0.459140 0.290093 0.470382 -0.544824
C5    C     C_3   0.991876 0.181928 0.879541 1.315217
C6    C     C_3   0.020387 0.790627 0.393582 1.316717
C7    C     C_3   0.491861 0.681925 0.879527 1.315214
C8    C     C_3   0.520422 0.290609 0.393649 1.316794
C9    C     C_3   0.036130 0.127420 0.947063 0.862626
C10   C     C_3   0.046998 0.859915 0.380146 0.834130
C11   C     C_3   0.536118 0.627418 0.947047 0.862638
C12   C     C_3   0.547080 0.359882 0.380297 0.834180
C13   C     C_3   0.786826 0.477418 0.770387 0.475984
C14   C     C_3   0.786736 0.523156 0.274128 0.481160
C15   C     C_3   0.286825 0.977420 0.770381 0.475984
C16   C     C_3   0.286738 0.023159 0.274131 0.481167
H5    H     H_    0.820357 0.484465 0.670645 0.088956
H6    H     H_    0.821480 0.518385 0.176068 0.080283
H7    H     H_    0.320356 0.984468 0.670639 0.088961
H8    H     H_    0.321483 0.018387 0.176071 0.080281
C17   C     C_3   0.714428 0.467050 0.708151 0.924882
C18   C     C_3   0.714713 0.532744 0.208510 0.910634
C19   C     C_3   0.214425 0.967055 0.708146 0.924870
C20   C     C_3   0.214716 0.032748 0.208512 0.910635
H9    H     H_    0.682890 0.450916 0.805606 0.157197
H10   H     H_    0.681931 0.547577 0.304550 0.159230
H11   H     H_    0.182888 0.950922 0.805603 0.157192
H12   H     H_    0.181934 0.047582 0.304551 0.159229
Ba1   Ba    Ba6+2 0.999980 0.452130 0.155200 1.774362
Ba2   Ba    Ba6+2 0.999980 0.547870 0.655200 1.777927
Ba3   Ba    Ba6+2 0.499980 0.952130 0.155200 1.774420
Ba4   Ba    Ba6+2 0.499980 0.047870 0.655200 1.777868
C21   C     C_3   0.207759 0.523898 0.045772 0.542743
C22   C     C_3   0.206896 0.475037 0.543894 0.548194
C23   C     C_3   0.707685 0.023945 0.045728 0.542426
C24   C     C_3   0.706918 0.975054 0.543933 0.548680
H13   H     H_    0.174031 0.514656 0.144005 0.013286
H14   H     H_    0.172652 0.483425 0.641281 0.007804
H15   H     H_    0.673958 0.014715 0.143972 0.013341
H16   H     H_    0.672662 0.983458 0.641290 0.007600
C25   C     C_3   0.277648 0.541790 0.116233 1.019108
C26   C     C_3   0.276563 0.457146 0.615892 1.004117
C27   C     C_3   0.777550 0.041915 0.116102 1.019378
C28   C     C_3   0.776582 0.957181 0.616069 1.003551
H17   H     H_    0.272750 0.576901 0.214346 -0.104142
H18   H     H_    0.271042 0.422008 0.714363 -0.097136
H19   H     H_    0.772654 0.077355 0.213573 -0.105325
H20   H     H_    0.771017 0.922304 0.715081 -0.096256
O45   O     O_3   0.924190 0.533610 0.949240 -0.386979
O46   O     O_3   0.924190 0.466390 0.449240 -0.390634
O47   O     O_3   0.424190 0.033610 0.949240 -0.386971
O48   O     O_3   0.424190 0.966390 0.449240 -0.390631
P13   P     P_3+3 0.080678 0.718050 0.878784 0.721481
P14   P     P_3+3 0.078585 0.281072 0.383453 0.694587
P15   P     P_3+3 0.580670 0.218058 0.878787 0.721492
P16   P     P_3+3 0.578584 0.781072 0.383456 0.694595
C29   C     C_3   0.974347 0.208702 0.412015 0.945970
C30   C     C_3   0.002051 0.816085 0.914452 0.985293
C31   C     C_3   0.474345 0.708703 0.412006 0.946055
C32   C     C_3   0.502044 0.316090 0.914515 0.985308
H21   H     H_    0.979823 0.224724 0.537095 -0.026852
H22   H     H_    0.031792 0.829065 0.023360 0.016249
H23   H     H_    0.479817 0.724730 0.537082 -0.026889
H24   H     H_    0.531799 0.329078 0.023398 0.016382
H25   H     H_    0.898079 0.140222 0.480001 0.126445
H26   H     H_    0.932405 0.895884 0.929722 0.149184
H27   H     H_    0.398080 0.640222 0.480004 0.126379
H28   H     H_    0.432392 0.395882 0.929828 0.149290
H29   H     H_    0.062710 0.104125 0.849365 0.080360
H30   H     H_    0.091122 0.860232 0.304573 0.005057
H31   H     H_    0.562693 0.604120 0.849346 0.080352
H32   H     H_    0.591211 0.360184 0.304748 0.005006
C33   C     C_R   0.243200 0.303424 0.002126 0.893874
C34   C     C_R   0.244091 0.695660 0.499763 0.893704
C35   C     C_R   0.743223 0.803437 0.002089 0.893755
C36   C     C_R   0.744077 0.195666 0.499790 0.893845
C37   C     C_R   0.149503 0.346232 0.823529 0.262771
C38   C     C_R   0.149961 0.653627 0.321755 0.270292
C39   C     C_R   0.649511 0.846237 0.823522 0.262571
C40   C     C_R   0.649959 0.153628 0.321756 0.270371
C41   C     C_R   0.109625 0.335381 0.685223 -0.410142
C42   C     C_R   0.109808 0.665010 0.183901 -0.371449
C43   C     C_R   0.609622 0.835379 0.685234 -0.409986
C44   C     C_R   0.609813 0.165007 0.183888 -0.371739
C45   C     C_R   0.122236 0.283802 0.581852 0.111545
C46   C     C_R   0.122404 0.717070 0.080328 0.113628
C47   C     C_R   0.622231 0.783800 0.581860 0.111569
C48   C     C_R   0.622409 0.217068 0.080320 0.113672
C49   C     C_R   0.170489 0.237437 0.624426 0.783935
C50   C     C_R   0.171089 0.763234 0.122860 0.680214
C51   C     C_R   0.670484 0.737435 0.624430 0.784053
C52   C     C_R   0.671095 0.263231 0.122856 0.680137
C53   C     C_R   0.208689 0.243038 0.767610 -0.204842
C54   C     C_R   0.209227 0.757201 0.266302 -0.216080
C55   C     C_R   0.708691 0.743040 0.767600 -0.204725
C56   C     C_R   0.709228 0.257200 0.266307 -0.216306
C57   C     C_R   0.200266 0.298397 0.866078 -0.276721
C58   C     C_R   0.200956 0.701299 0.364097 -0.248879
C59   C     C_R   0.700277 0.798405 0.866060 -0.276718
C60   C     C_R   0.700950 0.201302 0.364108 -0.248874
H33   H     H_    0.071650 0.370526 0.650662 0.163200
H34   H     H_    0.071751 0.629764 0.149494 0.167862
H35   H     H_    0.571643 0.870522 0.650681 0.163176
H36   H     H_    0.571758 0.129759 0.149477 0.167908
C61   C     C_R   0.798865 0.699595 0.947368 -0.078661
C62   C     C_R   0.799471 0.300074 0.446707 -0.068015
C63   C     C_R   0.298861 0.199596 0.947393 -0.078693
C64   C     C_R   0.299474 0.800076 0.446685 -0.068014
C65   C     C_R   0.788246 0.753218 0.049365 -0.246177
C66   C     C_R   0.789367 0.245661 0.547308 -0.317967
C67   C     C_R   0.288243 0.253221 0.049393 -0.246141
C68   C     C_R   0.289373 0.745663 0.547281 -0.318018
C69   C     C_R   0.850353 0.652775 0.989246 0.298165
C70   C     C_R   0.851188 0.346702 0.488571 0.358075
C71   C     C_R   0.350351 0.152775 0.989263 0.298136
C72   C     C_R   0.351191 0.846703 0.488556 0.358085
C73   C     C_R   0.888907 0.662506 0.130155 -0.333939
C74   C     C_R   0.891481 0.335370 0.626405 -0.461013
C75   C     C_R   0.388904 0.162506 0.130175 -0.333923
C76   C     C_R   0.391486 0.835370 0.626387 -0.461043
C77   C     C_R   0.873347 0.711645 0.237631 0.212911
C78   C     C_R   0.876596 0.285229 0.733128 0.124194
C79   C     C_R   0.373356 0.211655 0.237641 0.213029
C80   C     C_R   0.376595 0.785233 0.733113 0.124104
C81   C     C_R   0.822120 0.755353 0.199581 0.477225
C82   C     C_R   0.824056 0.242464 0.696442 0.518676
C83   C     C_R   0.322141 0.255375 0.199590 0.477183
C84   C     C_R   0.324049 0.742477 0.696423 0.518762
C85   C     C_R   0.757355 0.695086 0.808567 0.092962
C86   C     C_R   0.757711 0.305285 0.308342 0.108133
C87   C     C_R   0.257354 0.195085 0.808587 0.092914
C88   C     C_R   0.257712 0.805286 0.308327 0.108185
H37   H     H_    0.927878 0.628165 0.163125 0.149379
H38   H     H_    0.930688 0.369693 0.658934 0.168456
H39   H     H_    0.427870 0.128161 0.163148 0.149375
H40   H     H_    0.430695 0.869691 0.658914 0.168461
H41   H     H_    0.762546 0.654182 0.730703 0.225112
H42   H     H_    0.762603 0.346748 0.231375 0.224928
H43   H     H_    0.262548 0.154183 0.730720 0.225124
H44   H     H_    0.262601 0.846750 0.231362 0.224910
F1    F     F_    0.930841 0.249737 0.329998 -0.707808
F2    F     F_    0.951149 0.773090 0.947793 -0.732835
F3    F     F_    0.430839 0.749734 0.329976 -0.707778
F4    F     F_    0.451154 0.273090 0.947908 -0.732887
Cl1   Cl    Cl    0.678460 0.540022 0.631156 -0.470045
Cl2   Cl    Cl    0.680142 0.459765 0.128140 -0.518882
Cl3   Cl    Cl    0.178460 0.040030 0.631157 -0.470046
Cl4   Cl    Cl    0.180144 0.959771 0.128138 -0.518880
F5    F     F_    0.711230 0.419506 0.592965 -0.649260
F6    F     F_    0.712188 0.580963 0.094201 -0.651607
F7    F     F_    0.211224 0.919512 0.592959 -0.649244
F8    F     F_    0.212193 0.080968 0.094204 -0.651617
Cl5   Cl    Cl    0.177355 0.588563 0.930731 -0.564936
Cl6   Cl    Cl    0.177044 0.410658 0.426301 -0.561967
Cl7   Cl    Cl    0.677274 0.088554 0.930534 -0.565212
Cl8   Cl    Cl    0.677054 0.910658 0.426395 -0.561619
Cl9   Cl    Cl    0.321840 0.472783 0.189091 -0.326656
Cl10  Cl    Cl    0.321519 0.525947 0.688599 -0.324259
Cl11  Cl    Cl    0.821542 0.973016 0.190364 -0.326782
Cl12  Cl    Cl    0.821753 0.026064 0.687637 -0.323784
F9    F     F_    0.316772 0.570551 0.005384 -0.560449
F10   F     F_    0.315791 0.428241 0.506340 -0.565036
F11   F     F_    0.816786 0.070212 0.004741 -0.560138
F12   F     F_    0.815712 0.927852 0.506949 -0.565178
F13   F     F_    0.181399 0.187792 0.523283 -0.618657
F14   F     F_    0.182611 0.812968 0.021346 -0.636028
F15   F     F_    0.681388 0.687787 0.523292 -0.618641
F16   F     F_    0.682620 0.312966 0.021343 -0.636022
Cl13  Cl    Cl    0.794602 0.805504 0.352567 -0.395605
Cl14  Cl    Cl    0.795471 0.192725 0.850307 -0.373272
Cl15  Cl    Cl    0.294721 0.305612 0.352540 -0.396019
Cl16  Cl    Cl    0.295406 0.692795 0.850306 -0.372777
F17   F     F_    0.245701 0.359395 0.083611 -0.600869
F18   F     F_    0.246853 0.639235 0.580260 -0.604048
F19   F     F_    0.745772 0.859427 0.083521 -0.600808
F20   F     F_    0.746812 0.139252 0.580317 -0.604066
Cl17  Cl    Cl    0.001024 0.081702 0.487335 -0.317207
Cl18  Cl    Cl    0.032381 0.939781 0.829889 -0.357063
Cl19  Cl    Cl    0.501027 0.581707 0.487349 -0.317291
Cl20  Cl    Cl    0.532342 0.439787 0.829879 -0.357013
F21   F     F_    0.032779 0.225728 0.805325 -0.800803
F22   F     F_    0.067033 0.754275 0.479990 -0.675657
F23   F     F_    0.532761 0.725721 0.805291 -0.800847
F24   F     F_    0.567037 0.254220 0.480049 -0.675659
F25   F     F_    0.945912 0.155689 0.770897 -0.718345
F26   F     F_    0.012906 0.765457 0.242703 -0.827511
F27   F     F_    0.445890 0.655684 0.770902 -0.718335
F28   F     F_    0.512941 0.265465 0.242746 -0.827486
F29   F     F_    0.083215 0.152189 0.055357 -0.606080
F30   F     F_    0.067023 0.882928 0.527804 -0.566051
F31   F     F_    0.583207 0.652190 0.055325 -0.606087
F32   F     F_    0.567106 0.382860 0.527987 -0.566075
Cl21  Cl    Cl    0.987542 0.067048 0.041191 -0.368366
Cl22  Cl    Cl    0.985328 0.912830 0.293351 -0.393869
Cl23  Cl    Cl    0.487535 0.567050 0.041199 -0.368306
Cl24  Cl    Cl    0.485456 0.412849 0.293520 -0.393724
Cl25  Cl    Cl    0.809650 0.407815 0.880060 -0.593912
Cl26  Cl    Cl    0.807014 0.591723 0.390202 -0.614141
Cl27  Cl    Cl    0.309647 0.907814 0.880044 -0.593918
Cl28  Cl    Cl    0.307019 0.091725 0.390207 -0.614142

loop_
_geom_bond_atom_site_label_1
_geom_bond_atom_site_label_2
_geom_bond_distance
_ccdc_geom_bond_type
Ba3   O48   2.976948 S    
C51   F15   1.358669 S    
P11   O43   1.756168 S    
C2    H26   1.110945 S    
C41   H33   1.082193 S    
P8    O40   1.756968 S    
C1    H1    1.106895 S    
C56   C86   1.419836 A    
O11   Ba3   2.823900 S    
C49   F13   1.358668 S    
C42   C46   1.409812 A    
O8    Ba3   2.815083 S    
C19   H11   1.106522 S    
C55   C59   1.428309 A    
C3    H27   1.110273 S    
C44   C48   1.409814 A    
C2    H2    1.110450 S    
C15   C19   1.534937 S    
C38   C58   1.448791 A    
C16   C20   1.535611 S    
C9    Cl21  1.780836 S    
C75   H39   1.082083 S    
C8    F28   1.378807 S    
C36   C66   1.417618 A    
P1    O17   1.759807 S    
C16   Cl28  1.758846 S    
P12   O44   1.755592 S    
C26   F10   1.375793 S    
C15   H7    1.106657 S    
C73   H37   1.082084 S    
C24   H16   1.105957 S    
C11   F31   1.382860 S    
C25   Cl9   1.771962 S    
P1    O1    1.544820 D    
O44   C8    1.410097 S    
P7    O27   1.547339 D    
Ba3   O47   2.814223 S    
C4    Cl20  1.780512 S    
C87   H43   1.078534 S    
C54   C58   1.427695 A    
P3    O3    1.544820 D    
O20   C24   1.395408 S    
C30   H22   1.107239 S    
P4    O20   1.761277 S    
C13   Cl25  1.755690 S    
O23   C31   1.407056 S    
C22   H14   1.105945 S    
C23   H15   1.105895 S    
C25   F9    1.375529 S    
C43   H35   1.082194 S    
C8    F24   1.381654 S    
Ba1   O45   2.814223 S    
P11   C80   1.861203 S    
C10   H30   1.110240 S    
C23   Cl7   1.742256 S    
P3    Ba3   3.428687 S    
C78   C82   1.394995 A    
C26   Cl10  1.773993 S    
C1    Cl17  1.784903 S    
P2    Ba2   3.423502 S    
C73   C77   1.406087 A    
C29   H21   1.108125 S    
C28   Cl12  1.774345 S    
C31   H23   1.108122 S    
C19   Cl3   1.778575 S    
C55   C85   1.421572 A    
C27   F11   1.375876 S    
P5    C70   1.895198 S    
C46   C50   1.396294 A    
P3    O19   1.759740 S    
O7    Ba4   2.814124 S    
O30   Ba2   2.822119 S    
O10   Ba2   2.831172 S    
C52   C56   1.409497 A    
O6    Ba1   2.815083 S    
O19   C23   1.394675 S    
P2    O18   1.761163 S    
C39   C59   1.451487 A    
C61   C85   1.410903 A    
O4    Ba4   2.829530 S    
C51   C55   1.407805 A    
P4    O8    1.562335 S    
C18   Cl2   1.777934 S    
O25   Ba1   2.833396 S    
C65   C81   1.413423 A    
P10   O42   1.755571 S    
C33   C57   1.409226 A    
O9    P14   1.740749 S    
C76   H40   1.081970 S    
P4    O4    1.548289 D    
O31   Ba3   2.829365 S    
O23   P16   1.753373 S    
P12   O32   1.725438 S    
C40   C44   1.405819 A    
C4    H4    1.110453 S    
P9    O33   1.544354 D    
O3    Ba3   2.837231 S    
O39   C16   1.395792 S    
C52   F16   1.358475 S    
C70   C74   1.407022 A    
C44   H36   1.082116 S    
C3    Cl19  1.784898 S    
C25   H17   1.109113 S    
O18   C22   1.395307 S    
C10   Cl22  1.782593 S    
C30   F2    1.384443 S    
C39   C43   1.404604 A    
C14   C18   1.535612 S    
C29   F1    1.379603 S    
O14   P13   1.545316 D    
P9    O29   1.725948 S    
O27   Ba3   2.833396 S    
P1    Ba1   3.428687 S    
C23   C27   1.540655 S    
O13   P14   1.548684 D    
C12   H32   1.110237 S    
P8    O47   1.568928 S    
C75   C79   1.406114 A    
C14   Cl26  1.758835 S    
P10   C77   1.856766 S    
C61   C65   1.424995 A    
P5    O37   1.757217 S    
O43   C7    1.406255 S    
C22   Cl6   1.748251 S    
C35   C59   1.409239 A    
O42   C6    1.410100 S    
C21   Cl5   1.742383 S    
P2    C38   1.913227 S    
C16   H8    1.107389 S    
C56   C60   1.427678 A    
C31   F3    1.379601 S    
O16   P15   1.545324 D    
C38   C42   1.405823 A    
C21   C25   1.540938 S    
Ba3   Ba4   4.664416 S    
C7    F23   1.381829 S    
C10   F30   1.378383 S    
Ba4   O48   2.815186 S    
P6    C69   1.898672 S    
C63   C67   1.425041 A    
C6    F22   1.381670 S    
O2    Ba2   2.829530 S    
C1    C29   1.526054 S    
P15   C48   1.863683 S    
C12   F32   1.378379 S    
P9    O41   1.756169 S    
P2    O2    1.548289 D    
O15   P16   1.548686 D    
C62   C86   1.411578 A    
C20   H12   1.107994 S    
P13   C46   1.863663 S    
C47   C51   1.396304 A    
O24   P15   1.755001 S    
O41   C5    1.406259 S    
P4    C40   1.913233 S    
C74   H38   1.081972 S    
P6    Ba2   3.431501 S    
C20   Cl4   1.777933 S    
C72   C76   1.407022 A    
C7    F27   1.381788 S    
C63   C87   1.410928 A    
C69   C73   1.405143 A    
C8    C12   1.527414 S    
P7    O39   1.757219 S    
C66   C82   1.413444 A    
C34   F18   1.344586 S    
P1    O5    1.564718 S    
P6    O38   1.756971 S    
P8    Ba4   3.431501 S    
C2    Cl18  1.780515 S    
P12   C79   1.856777 S    
C3    C31   1.526054 S    
P5    O46   1.566516 S    
C74   C78   1.407278 A    
C13   C17   1.534937 S    
C82   Cl14  1.763768 S    
P11   O35   1.544351 D    
P7    O48   1.566516 S    
C34   C58   1.409830 A    
P10   O30   1.725483 S    
O12   Ba4   2.831172 S    
C5    F25   1.381783 S    
C24   C28   1.543221 S    
P4    Ba4   3.423502 S    
O24   C32   1.402063 S    
C32   F4    1.384438 S    
C35   C65   1.419759 A    
C35   F19   1.344752 S    
P9    C78   1.861189 S    
O32   Ba4   2.822119 S    
P3    C39   1.914424 S    
Ba2   O46   2.815186 S    
P5    O25   1.547339 D    
P2    O6    1.562335 S    
O12   P15   1.746304 S    
C21   H13   1.105892 S    
C43   C47   1.407509 A    
C28   H20   1.108935 S    
P1    C37   1.914445 S    
P6    O45   1.568928 S    
C86   H42   1.077963 S    
C17   Cl1   1.778573 S    
C1    H25   1.110270 S    
C6    F26   1.378824 S    
C85   H41   1.078538 S    
C64   C72   1.443591 A    
C37   C41   1.404594 A    
P8    O28   1.543873 D    
C77   C81   1.393704 A    
C11   Cl23  1.780825 S    
O29   Ba1   2.829365 S    
O9    Ba1   2.823900 S    
C33   F17   1.344630 S    
C54   C88   1.419841 A    
P7    Ba3   3.426238 S    
C48   C52   1.396301 A    
P14   C45   1.857202 S    
C15   Cl27  1.755686 S    
P7    C72   1.895113 S    
P8    C71   1.898764 S    
O21   C29   1.407051 S    
O5    Ba2   2.814124 S    
C42   H34   1.082115 S    
P16   C47   1.857202 S    
C71   C75   1.405152 A    
C20   F8    1.381918 S    
Ba4   O47   2.974076 S    
C62   C66   1.422788 A    
C24   Cl8   1.748334 S    
O26   Ba2   2.841161 S    
C9    F29   1.382864 S    
O10   P13   1.746277 S    
C81   Cl13  1.763607 S    
C14   H6    1.107388 S    
O40   C15   1.395821 S    
C37   C57   1.451505 A    
C64   C88   1.411567 A    
O22   C30   1.402065 S    
P5    Ba1   3.426238 S    
C27   H19   1.109512 S    
C4    H28   1.110945 S    
C33   C67   1.419754 A    
O22   P13   1.755001 S    
C83   Cl15  1.763755 S    
C18   H10   1.107994 S    
O21   P14   1.753372 S    
C40   C60   1.448796 A    
P12   O36   1.546421 D    
P10   O34   1.546414 D    
P11   O31   1.725958 S    
C6    C10   1.527419 S    
C5    F21   1.381829 S    
C50   F14   1.358476 S    
C68   C84   1.413382 A    
C5    C9    1.526880 S    
C49   C53   1.407813 A    
Ba1   O46   2.976948 S    
C3    H3    1.106892 S    
C41   C45   1.407509 A    
C12   Cl24  1.782561 S    
C26   H18   1.108879 S    
C63   C71   1.446328 A    
C7    C11   1.526881 S    
C88   H44   1.077963 S    
C53   C57   1.428284 A    
C32   H24   1.107243 S    
O17   C21   1.394748 S    
C17   H9    1.106526 S    
P6    O26   1.543873 D    
P3    O7    1.564718 S    
O28   Ba4   2.841161 S    
C36   F20   1.344523 S    
C11   H31   1.110800 S    
C36   C60   1.409826 A    
C80   C84   1.394983 A    
C64   C68   1.422748 A    
C22   C26   1.542945 S    
C13   H5    1.106657 S    
C9    H29   1.110802 S    
C17   F5    1.382060 S    
C50   C54   1.409487 A    
C2    C30   1.524111 S    
C19   F7    1.382063 S    
C45   C49   1.396318 A    
O11   P16   1.740733 S    
C34   C68   1.417624 A    
Ba2   O45   2.974076 S    
C62   C70   1.443592 A    
Ba1   Ba2   4.664416 S    
C4    C32   1.524109 S    
C61   C69   1.446327 A    
C84   Cl16  1.763606 S    
C67   C83   1.413512 A    
C28   F12   1.375929 S    
O1    Ba1   2.837231 S    
C79   C83   1.393709 A    
C76   C80   1.407256 A    
O38   C13   1.395823 S    
C27   Cl11  1.772102 S    
C18   F6    1.381919 S    
O37   C14   1.395789 S    
C53   C87   1.421575 A    
