data_mof_unit_27614.cif
_audit_creation_date              2012-12-11T15:37:31-0500
_audit_creation_method            fapswitch 2.2
_symmetry_space_group_name_H-M    P1
_symmetry_Int_Tables_number       1
_space_group_crystal_system       triclinic
_cell_length_a                    17.62814
_cell_length_b                    24.578161
_cell_length_c                    14.781934
_cell_angle_alpha                 90.00843
_cell_angle_beta                  126.029029
_cell_angle_gamma                 89.99037
_cell_volume                      5179.46403228

loop_
_atom_site_label
_atom_site_type_symbol
_atom_type_description
_atom_site_fract_x
_atom_site_fract_y
_atom_site_fract_z
_atom_type_partial_charge
C1    C     C_R   0.840235 0.648166 0.908763 -0.041733
C2    C     C_3   0.591332 0.499817 0.566285 0.074233
C3    C     C_3   0.033528 0.999479 0.436981 -0.061392
C4    C     C_2   0.743092 0.403059 0.644527 0.430250
C5    C     C_2   0.254779 0.596651 0.355886 0.448934
C6    C     C_2   0.254834 0.402869 0.354800 0.436871
C7    C     C_2   0.742058 0.597111 0.644739 0.420352
C8    C     C_2   0.242605 0.902348 0.645809 0.432999
C9    C     C_2   0.757346 0.097083 0.355279 0.420327
C10   C     C_2   0.757104 0.903022 0.355423 0.423986
C11   C     C_2   0.244541 0.096803 0.644412 0.446231
C12   C     C_2   0.557796 0.404727 0.634096 0.611001
C13   C     C_3   0.908352 0.000009 0.433619 0.077057
C14   C     C_2   0.440716 0.594652 0.366793 0.617424
C15   C     C_2   0.441581 0.406543 0.362223 0.604739
C16   C     C_2   0.558645 0.592196 0.641668 0.621444
C17   C     C_2   0.058709 0.907194 0.638572 0.605941
C18   C     C_2   0.941128 0.092965 0.359799 0.622536
C19   C     C_2   0.941874 0.905668 0.363989 0.616513
C20   C     C_2   0.058685 0.094428 0.634803 0.621344
C21   C     C_2   0.822115 0.220726 0.872201 0.514021
C22   C     C_2   0.117096 0.783475 0.088620 0.572855
C23   C     C_2   0.155954 0.247827 0.072544 0.557131
C24   C     C_3   0.092230 0.000124 0.565044 0.068060
C25   C     C_2   0.813762 0.777251 0.864126 0.514332
C26   C     C_2   0.345036 0.746965 0.928374 0.556077
C27   C     C_2   0.686316 0.277200 0.135974 0.517198
C28   C     C_2   0.677901 0.720697 0.127768 0.513961
C29   C     C_2   0.383104 0.283383 0.911012 0.574474
C30   C     C_R   0.785722 0.237002 0.936973 -0.039089
C31   C     C_R   0.170900 0.773630 0.041663 -0.057630
C32   C     C_R   0.220366 0.258474 0.040216 -0.084826
C33   C     C_R   0.780652 0.761601 0.932792 -0.040436
C34   C     C_R   0.280527 0.757791 0.960498 -0.087947
C35   C     C_R   0.719409 0.261566 0.067272 -0.042656
C36   C     C_R   0.714295 0.736992 0.063015 -0.039214
C37   C     C_R   0.186049 0.371033 0.091745 -0.137527
C38   C     C_R   0.329545 0.273801 0.958353 -0.053656
C39   C     C_R   0.223299 0.716873 0.951124 -0.145593
C40   C     C_R   0.788634 0.292620 0.076823 -0.287268
C41   C     C_R   0.784424 0.706278 0.073798 -0.294430
C42   C     C_R   0.275890 0.316081 0.954326 -0.221742
C43   C     C_R   0.715652 0.206257 0.926236 -0.293571
C44   C     C_R   0.224874 0.815728 0.045886 -0.217983
C45   C     C_R   0.277328 0.217397 0.049446 -0.145839
C46   C     C_R   0.711362 0.792622 0.923188 -0.288329
C47   C     C_R   0.170446 0.724443 0.992173 0.060804
C48   C     C_R   0.157495 0.649094 0.091072 -0.024513
C49   C     C_R   0.820169 0.281062 0.011347 0.147263
C50   C     C_R   0.816283 0.717930 0.008587 0.141265
C51   C     C_R   0.222951 0.308334 0.995229 0.058077
C52   C     C_R   0.683815 0.217887 0.991483 0.142022
C53   C     C_R   0.278000 0.807719 0.005302 0.057715
C54   C     C_R   0.329914 0.224687 0.007985 0.061997
C55   C     C_R   0.679804 0.781043 0.988626 0.146731
C56   C     C_R   0.887047 0.450992 0.457545 -0.134864
C57   C     C_R   0.890546 0.549421 0.366449 -0.151345
C58   C     C_R   0.890199 0.450979 0.366235 -0.155851
C59   C     C_R   0.841997 0.351025 0.909478 -0.040654
C60   C     C_R   0.887438 0.549481 0.457800 -0.135674
C61   C     C_R   0.609792 0.950959 0.633733 -0.156947
C62   C     C_R   0.612549 0.049467 0.542225 -0.135447
C63   C     C_R   0.612922 0.950978 0.542410 -0.138448
C64   C     C_R   0.609475 0.049401 0.633602 -0.152027
C65   C     C_R   0.904057 0.500164 0.329889 0.136067
C66   C     C_R   0.896783 0.500240 0.511371 0.130499
C67   C     C_R   0.603182 0.000231 0.488613 0.130776
C68   C     C_R   0.595958 0.000143 0.670130 0.136456
C69   C     C_R   0.941564 0.351706 0.096114 -0.185398
C70   C     C_R   0.342549 0.149137 0.908983 -0.024258
C71   C     C_R   0.061257 0.647161 0.903385 -0.112097
C72   C     C_R   0.087763 0.370109 0.903103 -0.120990
C73   C     C_R   0.939913 0.648069 0.095501 -0.130644
C74   C     C_R   0.412734 0.869756 0.097053 -0.124656
C75   C     C_R   0.560152 0.148048 0.904525 -0.130184
C76   C     C_R   0.558405 0.851691 0.903875 -0.186405
C77   C     C_R   0.438769 0.147182 0.096640 -0.110139
C78   C     C_R   0.981987 0.545845 0.250147 -0.117108
C79   C     C_R   0.949216 0.454549 0.693450 -0.144895
C80   C     C_R   0.950187 0.545759 0.694105 -0.131237
C81   C     C_R   0.657970 0.851007 0.090504 -0.041977
C82   C     C_R   0.981794 0.454226 0.249977 -0.107387
C83   C     C_R   0.549779 0.045760 0.305891 -0.131096
C84   C     C_R   0.518233 0.954215 0.750048 -0.110049
C85   C     C_R   0.518010 0.045834 0.749856 -0.117748
C86   C     C_R   0.550762 0.954549 0.306528 -0.143589
C87   C     C_R   0.743999 0.455032 0.695063 -0.030304
C88   C     C_R   0.255134 0.544842 0.305800 -0.039874
C89   C     C_R   0.255013 0.455077 0.305723 -0.099767
C90   C     C_R   0.743803 0.544905 0.695113 -0.033487
C91   C     C_R   0.244442 0.955129 0.694629 -0.055633
C92   C     C_R   0.659840 0.148127 0.091274 -0.041352
C93   C     C_R   0.755988 0.044940 0.304943 -0.033444
C94   C     C_R   0.755973 0.955065 0.304971 -0.028437
C95   C     C_R   0.244576 0.044935 0.694576 -0.040727
C96   C     C_R   0.869266 0.676230 0.004214 0.170616
C97   C     C_R   0.173823 0.353446 0.995684 0.064480
C98   C     C_R   0.127950 0.676748 0.995323 0.124343
C99   C     C_R   0.871937 0.323012 0.005463 0.128911
C100  C     C_R   0.372104 0.176811 0.004741 0.122531
C101  C     C_R   0.628009 0.822983 0.994514 0.129927
C102  C     C_R   0.630846 0.176181 0.995836 0.169814
C103  C     C_R   0.314575 0.870336 0.908398 -0.112698
C104  C     C_R   0.327027 0.852733 0.004549 0.066718
C105  C     C_R   0.950650 0.500072 0.274496 0.056481
C106  C     C_R   0.932245 0.500204 0.628969 0.061219
C107  C     C_R   0.567716 0.000204 0.371012 0.060826
C108  C     C_R   0.549368 0.000056 0.725526 0.057615
C109  C     C_R   0.692891 0.499937 0.634760 0.077529
C110  C     C_R   0.305670 0.499902 0.366851 0.112327
C111  C     C_R   0.193784 0.000042 0.633786 0.094066
C112  C     C_R   0.806886 0.000005 0.365304 0.078326
C113  C     C_3   0.529143 0.454884 0.563336 -0.103523
C114  C     C_3   0.407317 0.499752 0.435379 0.041980
C115  C     C_3   0.469585 0.544751 0.438344 -0.124693
C116  C     C_3   0.469682 0.455910 0.435233 -0.123988
C117  C     C_3   0.529082 0.543660 0.566468 -0.114816
C118  C     C_3   0.029911 0.955993 0.564269 -0.113334
C119  C     C_3   0.970585 0.044169 0.434314 -0.115256
C120  C     C_3   0.970754 0.955329 0.436175 -0.112276
C121  C     C_3   0.029795 0.044830 0.562442 -0.117328
C122  C     C_3   0.466358 0.498706 0.563443 -0.053340
C123  C     C_3   0.532372 0.500936 0.438276 -0.027932
C124  C     C_3   0.967014 0.000699 0.561598 -0.051517
H1    H     H_    0.787123 0.660047 0.823448 0.088327
H2    H     H_    0.019970 0.659673 0.816662 0.112292
H3    H     H_    0.054666 0.359237 0.816630 0.109491
H4    H     H_    0.982423 0.661707 0.181508 0.112966
H5    H     H_    0.445996 0.858911 0.183571 0.110154
H6    H     H_    0.517652 0.161700 0.818530 0.113080
H7    H     H_    0.515409 0.838394 0.817634 0.112864
H8    H     H_    0.480133 0.159707 0.183361 0.113122
H9    H     H_    0.972721 0.587697 0.262786 0.089793
H10   H     H_    0.930702 0.413032 0.664733 0.091508
H11   H     H_    0.933251 0.587504 0.666443 0.090440
H12   H     H_    0.242866 0.361250 0.177025 0.098595
H13   H     H_    0.972170 0.412380 0.262272 0.090537
H14   H     H_    0.566693 0.087505 0.333567 0.090806
H15   H     H_    0.527886 0.912367 0.737776 0.090936
H16   H     H_    0.527250 0.087683 0.737195 0.089907
H17   H     H_    0.569288 0.913032 0.335234 0.090887
H18   H     H_    0.800885 0.374794 0.692393 0.019134
H19   H     H_    0.196247 0.624438 0.307786 0.022311
H20   H     H_    0.201119 0.372809 0.302914 0.026535
H21   H     H_    0.800303 0.625163 0.691908 0.026423
H22   H     H_    0.297171 0.872562 0.696800 0.023101
H23   H     H_    0.205580 0.663214 0.176051 0.090898
H24   H     H_    0.699186 0.125170 0.307816 0.026675
H25   H     H_    0.699248 0.874790 0.307672 0.022815
H26   H     H_    0.303313 0.124466 0.692084 0.023628
H27   H     H_    0.437999 0.497785 0.613510 0.178267
H28   H     H_    0.561067 0.502019 0.388570 0.182602
H29   H     H_    0.938209 0.001206 0.611203 0.177663
H30   H     H_    0.062232 0.998997 0.387274 0.178069
H31   H     H_    0.544856 0.364825 0.596337 0.010346
H32   H     H_    0.452406 0.634714 0.403483 0.010213
H33   H     H_    0.414917 0.370803 0.377773 -0.003065
H34   H     H_    0.789470 0.338581 0.824341 0.089440
H35   H     H_    0.546606 0.632955 0.607776 0.004394
H36   H     H_    0.055962 0.866919 0.606890 0.006496
H37   H     H_    0.953038 0.133598 0.394224 0.004327
H38   H     H_    0.953962 0.865478 0.400301 0.008039
H39   H     H_    0.046697 0.134656 0.598693 0.007417
H40   H     H_    0.782749 0.192078 0.803535 0.022188
H41   H     H_    0.122695 0.822578 0.126323 0.016872
H42   H     H_    0.099030 0.275552 0.048092 0.051861
H43   H     H_    0.774493 0.807006 0.797663 0.011836
H44   H     H_    0.401756 0.774765 0.952381 0.050410
H45   H     H_    0.294552 0.163311 0.824043 0.090122
H46   H     H_    0.725582 0.306951 0.202451 0.013545
H47   H     H_    0.717249 0.692012 0.196373 0.021948
H48   H     H_    0.377298 0.322346 0.872809 0.017254
H49   H     H_    0.223859 0.677585 0.917863 0.174272
H50   H     H_    0.814432 0.328055 0.131064 0.121656
H51   H     H_    0.810165 0.670861 0.128074 0.119320
H52   H     H_    0.275165 0.355191 0.919726 0.133893
H53   H     H_    0.689940 0.170836 0.871963 0.119078
H54   H     H_    0.225640 0.854916 0.080294 0.134718
H55   H     H_    0.276677 0.178177 0.082836 0.174332
H56   H     H_    0.710504 0.838560 0.175632 0.088439
H57   H     H_    0.685534 0.828052 0.868939 0.121825
H58   H     H_    0.886962 0.412134 0.491601 0.118551
H59   H     H_    0.892743 0.588229 0.333721 0.106381
H60   H     H_    0.892167 0.412150 0.333374 0.105729
H61   H     H_    0.887645 0.588341 0.492093 0.118894
H62   H     H_    0.607815 0.912128 0.666565 0.105739
H63   H     H_    0.612340 0.088328 0.507953 0.119465
H64   H     H_    0.612994 0.912121 0.508324 0.118266
H65   H     H_    0.607304 0.088207 0.666373 0.106598
H66   H     H_    0.712960 0.159989 0.176608 0.088759
H67   H     H_    0.258170 0.860043 0.823304 0.110149
H68   H     H_    0.984560 0.338403 0.182348 0.113187
N1    N     N_R   0.892620 0.603790 0.941800 -0.056248
N2    N     N_R   0.047790 0.602400 0.942090 -0.049472
N3    N     N_R   0.047790 0.397600 0.942090 -0.043189
N4    N     N_R   0.952210 0.602400 0.057910 -0.051428
N5    N     N_R   0.452210 0.897600 0.057910 -0.043724
N6    N     N_R   0.547790 0.102400 0.942090 -0.051484
N7    N     N_R   0.547790 0.897600 0.942090 -0.043532
N8    N     N_R   0.452210 0.102400 0.057910 -0.049414
N9    N     N_R   0.026300 0.529110 0.206760 -0.053182
N10   N     N_R   0.973700 0.470890 0.793240 -0.044460
N11   N     N_R   0.973700 0.529110 0.793240 -0.046053
N12   N     N_R   0.107380 0.396210 0.058200 -0.053887
N13   N     N_R   0.026300 0.470890 0.206760 -0.049365
N14   N     N_R   0.526300 0.029110 0.206760 -0.045907
N15   N     N_R   0.473700 0.970890 0.793240 -0.050889
N16   N     N_R   0.473700 0.029110 0.793240 -0.053782
N17   N     N_R   0.526300 0.970890 0.206760 -0.043856
N18   N     N_R   0.818530 0.472270 0.792960 -0.075849
N19   N     N_R   0.181470 0.527730 0.207040 -0.075527
N20   N     N_R   0.181470 0.472270 0.207040 -0.071445
N21   N     N_R   0.818530 0.527730 0.792960 -0.076266
N22   N     N_R   0.318530 0.972270 0.792960 -0.072213
N23   N     N_R   0.107380 0.603790 0.058200 -0.056099
N24   N     N_R   0.681470 0.027730 0.207040 -0.076527
N25   N     N_R   0.681470 0.972270 0.207040 -0.075957
N26   N     N_R   0.318530 0.027730 0.792960 -0.075110
N27   N     N_R   0.892620 0.396210 0.941800 -0.053301
N28   N     N_R   0.392620 0.103790 0.941800 -0.055305
N29   N     N_R   0.607380 0.896210 0.058200 -0.053100
N30   N     N_R   0.607380 0.103790 0.058200 -0.056454
N31   N     N_R   0.392620 0.896210 0.941800 -0.057756
N32   N     N_R   0.952210 0.397600 0.057910 -0.043468
Ni1   Ni    Ni4+2 0.934150 0.565840 0.869060 0.230265
Ni2   Ni    Ni4+2 0.065850 0.434160 0.130940 0.217109
Ni3   Ni    Ni4+2 0.065850 0.565840 0.130940 0.232708
Ni4   Ni    Ni4+2 0.934150 0.434160 0.869060 0.224874
Ni5   Ni    Ni4+2 0.434150 0.065840 0.869060 0.233090
Ni6   Ni    Ni4+2 0.565850 0.934160 0.130940 0.225042
Ni7   Ni    Ni4+2 0.565850 0.065840 0.130940 0.231155
Ni8   Ni    Ni4+2 0.434150 0.934160 0.869060 0.217271
O1    O     O_2   0.680099 0.392289 0.547358 -0.588335
O2    O     O_2   0.402780 0.590358 0.266533 -0.574216
O3    O     O_2   0.449933 0.405965 0.285940 -0.549135
O4    O     O_2   0.597566 0.586008 0.741761 -0.570131
O5    O     O_2   0.087514 0.912759 0.735950 -0.569140
O6    O     O_2   0.902463 0.087132 0.259677 -0.570263
O7    O     O_2   0.903500 0.910295 0.263692 -0.573156
O8    O     O_2   0.096929 0.089701 0.735055 -0.569493
O9    O     O_2   0.897296 0.237339 0.896620 -0.585393
O10   O     O_2   0.066112 0.748995 0.086050 -0.566905
O11   O     O_2   0.164983 0.207336 0.125972 -0.548613
O12   O     O_2   0.317687 0.607837 0.452856 -0.600856
O13   O     O_2   0.885568 0.758686 0.881902 -0.554346
O14   O     O_2   0.336317 0.706252 0.875618 -0.547904
O15   O     O_2   0.614527 0.258629 0.118212 -0.552294
O16   O     O_2   0.602745 0.737336 0.103410 -0.585728
O17   O     O_2   0.434153 0.248848 0.913864 -0.567369
O18   O     O_2   0.312869 0.393488 0.454205 -0.596161
O19   O     O_2   0.677695 0.608382 0.548474 -0.609149
O20   O     O_2   0.181909 0.892157 0.547508 -0.602254
O21   O     O_2   0.821271 0.108258 0.451806 -0.608590
O22   O     O_2   0.820402 0.892137 0.452399 -0.605981
O23   O     O_2   0.181044 0.108169 0.547800 -0.601968
O24   O     O_2   0.596701 0.408608 0.734627 -0.574060

loop_
_geom_bond_atom_site_label_1
_geom_bond_atom_site_label_2
_ccdc_geom_bond_type
C51   C97   S    
C2    C109  S    
C93   N24   A    
C60   H61   S    
C12   O24   D    
C116  C123  S    
C9    C93   S    
C59   C99   A    
C32   C45   A    
C86   C107  A    
N14   N17   A    
C78   N9    A    
C22   O10   D    
C39   H49   S    
N22   Ni8   S    
N24   Ni7   S    
C72   N3    A    
C37   C97   A    
C114  C115  S    
C36   C41   A    
N6    Ni5   S    
N26   Ni5   S    
C4    C87   S    
C81   C101  A    
C2    C123  S    
C25   H43   S    
C117  C122  S    
C26   H44   S    
C47   C98   S    
N28   Ni5   S    
C78   C105  A    
C59   H34   S    
C64   C68   A    
C46   H57   S    
C74   C104  A    
N6    N30   A    
C70   H45   S    
C1    H1    S    
C15   H33   S    
C13   C112  S    
C19   O7    D    
C10   H25   S    
C4    H18   S    
C18   H37   S    
C56   C66   A    
N15   Ni8   S    
C5    H19   S    
C80   N11   A    
C10   C94   S    
C53   C104  S    
C14   C115  S    
C48   H23   S    
C80   C106  A    
C95   N26   A    
C77   C100  A    
C58   H60   S    
C78   H9    S    
C4    O1    D    
C82   C105  A    
C91   C111  A    
C61   C63   A    
C17   H36   S    
C23   O11   D    
C24   C121  S    
C121  C124  S    
C62   C64   A    
C28   H47   S    
C103  N31   A    
N27   N32   A    
C22   H41   S    
C44   C53   A    
C26   C34   S    
C43   H53   S    
C113  C122  S    
C84   H15   S    
C70   C100  A    
C115  C117  S    
C88   N19   A    
C29   C38   S    
C75   C102  A    
C11   O23   D    
C86   N17   A    
C71   H2    S    
N7    N29   A    
N8    Ni7   S    
N27   Ni4   S    
C17   O5    D    
C85   C108  A    
C103  C104  A    
C110  C114  S    
C8    H22   S    
C75   H6    S    
C92   C102  A    
N16   Ni5   S    
N17   Ni6   S    
C113  C116  S    
N20   Ni2   S    
N1    N4    A    
C41   H51   S    
C48   N23   A    
C60   C66   A    
C5    O12   D    
C21   H40   S    
N19   Ni3   S    
C124  H29   S    
C16   H35   S    
C33   C46   A    
C5    C88   S    
C54   C100  S    
C3    C24   S    
C24   C111  S    
C66   C106  S    
C73   H4    S    
C69   H68   S    
C65   C105  S    
C56   C58   A    
C13   C119  S    
C2    C117  S    
C92   H66   S    
C64   H65   S    
C89   N20   A    
C72   C97   A    
C119  C121  S    
C71   C98   A    
C63   C67   A    
C115  C123  S    
N10   N11   A    
C6    O18   D    
C72   H3    S    
N15   N16   A    
C95   C111  A    
N24   N25   A    
C48   C98   A    
C31   C44   A    
C44   H54   S    
N2    N23   A    
C13   C124  S    
C83   H14   S    
C57   C60   A    
N10   Ni4   S    
N3    N12   A    
C27   C35   S    
C33   C50   A    
C20   O8    D    
C7    C90   S    
C89   C110  A    
C76   N7    A    
C94   N25   A    
C70   N28   A    
C34   C39   A    
C79   C106  A    
C7    O19   D    
C77   H8    S    
C29   O17   D    
N29   Ni6   S    
C1    N1    A    
N7    Ni8   S    
C32   C51   A    
C27   O15   D    
N25   Ni6   S    
C49   C99   S    
C23   H42   S    
C85   N16   A    
C58   C65   A    
N19   N20   A    
C38   C54   A    
C74   N5    A    
C46   C55   A    
C79   N10   A    
C52   C102  S    
C22   C31   S    
C37   H12   S    
C59   N27   A    
N13   Ni2   S    
C8    C91   S    
C118  C124  S    
C19   C120  S    
C80   H11   S    
C27   H46   S    
C20   C121  S    
C3    C119  S    
C17   C118  S    
C62   C67   A    
C67   C107  S    
C30   C49   A    
N30   Ni7   S    
N22   N26   A    
N8    N28   A    
C87   N18   A    
C61   H62   S    
C30   C43   A    
C73   N4    A    
C103  H67   S    
C12   H31   S    
C6    H20   S    
N18   N21   A    
C69   C99   A    
C41   C50   A    
C14   O2    D    
C13   C120  S    
C81   N29   A    
N31   Ni8   S    
N2    Ni1   S    
C39   C47   A    
C12   C113  S    
C75   N6    A    
C11   C95   S    
C76   C101  A    
N9    Ni3   S    
C79   H10   S    
C55   C101  S    
C123  H28   S    
C8    O20   D    
N9    N13   A    
C26   O14   D    
C14   H32   S    
N14   Ni7   S    
C10   O22   D    
N18   Ni4   S    
C9    O21   D    
C81   H56   S    
C57   C65   A    
N5    N31   A    
N11   Ni1   S    
N32   Ni2   S    
C45   C54   A    
C114  C116  S    
C28   O16   D    
C87   C109  A    
C83   N14   A    
C6    C89   S    
N3    Ni4   S    
C21   C30   S    
C42   C51   A    
C9    H24   S    
C24   C118  S    
C73   C96   A    
C82   H13   S    
C69   N32   A    
C2    C113  S    
C23   C32   S    
C92   N30   A    
C35   C40   A    
C88   C110  A    
C84   N15   A    
C36   C55   A    
C42   H52   S    
C16   C117  S    
C122  H27   S    
C40   H50   S    
C20   H39   S    
C61   C68   A    
C50   C96   S    
C11   H26   S    
C56   H58   S    
C91   N22   A    
C1    C96   A    
N5    Ni6   S    
C94   C112  A    
C85   H16   S    
C76   H7    S    
C37   N12   A    
C83   C107  A    
C57   H59   S    
N23   Ni3   S    
C71   N2    A    
C3    H30   S    
C29   H48   S    
C43   C52   A    
C77   N8    A    
C118  C120  S    
N4    Ni3   S    
N21   Ni1   S    
C3    C120  S    
C45   H55   S    
C93   C112  A    
N1    Ni1   S    
C114  C122  S    
C38   C42   A    
C18   O6    D    
C84   C108  A    
C28   C36   S    
C34   C53   A    
C82   N13   A    
C63   H64   S    
C74   H5    S    
C15   O3    D    
C35   C52   A    
C16   O4    D    
C15   C116  S    
C31   C47   A    
C68   C108  S    
C90   C109  A    
C21   O9    D    
N12   Ni2   S    
C18   C119  S    
C19   H38   S    
C90   N21   A    
C40   C49   A    
C86   H17   S    
C25   C33   S    
C62   H63   S    
C7    H21   S    
C25   O13   D    
