data_mof_unit_15167.cif
_audit_creation_date              2012-12-10T19:27:31-0500
_audit_creation_method            fapswitch 2.2
_symmetry_space_group_name_H-M    P1
_symmetry_Int_Tables_number       1
_space_group_crystal_system       triclinic
_cell_length_a                    23.116196
_cell_length_b                    10.561226
_cell_length_c                    9.788573
_cell_angle_alpha                 90.280979
_cell_angle_beta                  91.959244
_cell_angle_gamma                 90.837631
_cell_volume                      2388.04971297

loop_
_atom_site_label
_atom_site_type_symbol
_atom_type_description
_atom_site_fract_x
_atom_site_fract_y
_atom_site_fract_z
_atom_type_partial_charge
C1    C     C_R   0.507397 0.259456 0.500548 0.951311
C2    C     C_R   0.701390 0.532735 0.640467 -0.261168
C3    C     C_R   0.248953 0.324504 0.575593 0.477547
C4    C     C_R   0.761052 0.535944 0.660376 0.455658
C5    C     C_R   0.208232 0.414250 0.531741 0.058750
C6    C     C_R   0.795996 0.508631 0.549991 0.129350
C7    C     C_3   0.552877 0.038887 0.591171 0.481053
C8    C     C_3   0.470208 0.964027 0.408160 0.482398
C9    C     C_3   0.561749 0.955256 0.465222 0.090473
C10   C     C_3   0.461126 0.044638 0.535277 0.069322
C11   C     C_3   0.507909 0.877360 0.498537 -0.279180
C12   C     C_R   0.502384 0.742344 0.499990 0.964659
C13   C     C_3   0.514022 0.124657 0.501532 -0.274595
C14   C     C_3   0.499091 0.959166 0.627206 -0.256698
C15   C     C_3   0.524515 0.042867 0.373738 -0.247210
C16   C     C_R   0.388515 0.496491 0.497982 0.904190
C17   C     C_R   0.611242 0.499615 0.502597 0.923605
C18   C     C_3   0.464822 0.416491 0.042723 0.473630
C19   C     C_3   0.534978 0.584475 0.957172 0.526664
C20   C     C_3   0.515468 0.391326 0.951319 -0.193903
C21   C     C_3   0.484280 0.608454 0.048818 -0.155869
C22   C     C_3   0.448972 0.524219 0.946667 -0.263785
C23   C     C_R   0.224351 0.492883 0.422671 0.242619
C24   C     C_3   0.551043 0.476517 0.053183 -0.206409
C25   C     C_R   0.891008 0.607186 0.568331 0.549278
C26   C     C_R   0.120614 0.339040 0.650513 0.569953
C27   C     C_R   0.880140 0.383534 0.599180 0.612216
C28   C     C_R   0.131841 0.556303 0.600744 0.561866
C29   C     C_R   0.939771 0.371388 0.622122 -0.045192
C30   C     C_R   0.072076 0.574423 0.606703 -0.026952
C31   C     C_R   0.975534 0.479639 0.611129 -0.023423
C32   C     C_R   0.035954 0.467817 0.622293 -0.022675
C33   C     C_R   0.951162 0.599112 0.586255 -0.041892
C34   C     C_R   0.771015 0.476832 0.420646 0.122186
C35   C     C_R   0.060412 0.349456 0.650213 -0.050334
C36   C     C_R   0.964453 0.254147 0.654853 -0.135342
C37   C     C_R   0.047502 0.694297 0.588462 -0.140126
C38   C     C_R   0.024330 0.243732 0.671180 -0.133762
C39   C     C_R   0.987469 0.706531 0.578274 -0.144488
C40   C     C_3   0.142684 0.450182 0.264534 -0.694319
C41   C     C_3   0.827671 0.549783 0.232947 -0.630728
C42   C     C_3   0.288425 0.750281 0.373252 -0.587635
C43   C     C_3   0.668631 0.295345 0.271378 -0.734045
C44   C     C_3   0.657978 0.977508 0.370266 -0.634456
C45   C     C_R   0.283429 0.525771 0.410910 0.128798
C46   C     C_3   0.371740 0.023070 0.661209 -0.555633
C47   C     C_R   0.710053 0.470105 0.402481 0.144296
C48   C     C_R   0.325521 0.465371 0.496061 -0.139634
C49   C     C_R   0.675120 0.501107 0.513174 -0.157391
C50   C     C_R   0.307416 0.361715 0.574831 -0.339136
H1    H     H_    0.937713 0.170063 0.666411 0.201245
H2    H     H_    0.675263 0.553390 0.726823 0.260811
H3    H     H_    0.489769 0.921871 0.729899 0.239002
H4    H     H_    0.536507 0.079791 0.272395 0.227904
H5    H     H_    0.366259 0.297964 0.896351 0.342064
H6    H     H_    0.664759 0.784629 0.991447 0.404972
H7    H     H_    0.194603 0.610879 0.263389 0.263287
H8    H     H_    0.110374 0.498970 0.197632 0.235802
H9    H     H_    0.118692 0.394618 0.340701 0.249011
H10   H     H_    0.167944 0.385077 0.200820 0.266968
H11   H     H_    0.793327 0.368472 0.252899 0.257625
H12   H     H_    0.074475 0.778076 0.577233 0.200074
H13   H     H_    0.856741 0.515560 0.153206 0.263134
H14   H     H_    0.852377 0.618754 0.298482 0.251242
H15   H     H_    0.790374 0.598242 0.182825 0.273060
H16   H     H_    0.336353 0.613124 0.270942 0.304605
H17   H     H_    0.291010 0.819542 0.289006 0.284926
H18   H     H_    0.321169 0.774078 0.455238 0.239476
H19   H     H_    0.244656 0.757646 0.415581 0.255810
H20   H     H_    0.705158 0.458103 0.190088 0.274028
H21   H     H_    0.707933 0.236799 0.284639 0.241062
H22   H     H_    0.647197 0.271364 0.171181 0.249522
H23   H     H_    0.526980 0.299361 0.906075 0.234787
H24   H     H_    0.638045 0.271959 0.352967 0.248418
H25   H     H_    0.226671 0.986968 0.644777 0.387153
H26   H     H_    0.879468 0.524461 0.880019 0.357007
H27   H     H_    0.631148 0.834652 0.501203 0.274900
H28   H     H_    0.695994 0.921007 0.342434 0.247263
H29   H     H_    0.672383 0.051189 0.445714 0.271150
H30   H     H_    0.640249 0.022746 0.276010 0.237831
H31   H     H_    0.386429 0.147728 0.498960 0.295893
H32   H     H_    0.338388 0.083045 0.705618 0.279978
H33   H     H_    0.396881 0.983429 0.748968 0.241405
H34   H     H_    0.471792 0.699994 0.093678 0.245353
H35   H     H_    0.350983 0.945395 0.599764 0.235209
H36   H     H_    0.686848 0.008056 0.797169 0.399134
H37   H     H_    0.344051 0.007301 0.181510 0.411242
H38   H     H_    0.405923 0.543527 0.898093 0.178362
H39   H     H_    0.594200 0.459075 0.100907 0.208623
H40   H     H_    0.042297 0.151664 0.693540 0.195738
H41   H     H_    0.969719 0.799640 0.560815 0.194799
H42   H     H_    0.339477 0.301772 0.623112 0.179526
N1    N     N_R   0.857220 0.499881 0.572193 -0.325570
N2    N     N_2   0.407875 0.100501 0.576629 -0.288694
N3    N     N_R   0.153746 0.435665 0.599410 -0.344178
N4    N     N_3   0.499960 0.500030 0.863290 -0.145141
N5    N     N_3   0.500040 0.499970 0.136710 -0.143869
N6    N     N_2   0.180941 0.543184 0.330917 -0.291810
N7    N     N_2   0.807873 0.443724 0.312700 -0.313741
N8    N     N_2   0.298344 0.624377 0.320528 -0.328131
N9    N     N_2   0.684097 0.428640 0.275670 -0.285078
N10   N     N_2   0.614850 0.895187 0.427614 -0.266167
O1    O     O_R   0.500000 0.313960 0.616610 -0.590991
O2    O     O_2   0.144924 0.235964 0.705827 -0.464617
O3    O     O_2   0.845095 0.280450 0.604774 -0.514607
O4    O     O_2   0.167595 0.657945 0.592895 -0.570210
O5    O     O_2   0.441438 0.204543 0.180481 -0.215132
O6    O     O_2   0.365086 0.362944 0.168332 -0.291922
O7    O     O_3   0.384045 0.229359 0.951340 -0.520219
O8    O     O_2   0.598131 0.709359 0.766922 -0.294152
O9    O     O_2   0.551830 0.835916 0.940644 -0.265494
O10   O     O_3   0.642202 0.707508 0.014034 -0.534856
O11   O     O_2   0.176993 0.149594 0.457377 -0.275068
O12   O     O_R   0.500000 0.686040 0.383390 -0.573811
O13   O     O_2   0.280361 0.113960 0.444657 -0.284991
O14   O     O_3   0.232680 0.075320 0.677299 -0.513308
O15   O     O_2   0.814665 0.705987 0.825056 -0.274115
O16   O     O_2   0.744649 0.564243 0.929812 -0.280880
O17   O     O_3   0.843726 0.471922 0.869602 -0.553861
O18   O     O_2   0.635252 0.211164 0.664385 -0.337577
O19   O     O_2   0.582922 0.107916 0.848573 -0.278545
O20   O     O_3   0.659508 0.977478 0.723746 -0.510485
O21   O     O_2   0.449997 0.942272 0.137345 -0.245712
O22   O     O_2   0.403876 0.785695 0.280823 -0.378146
O23   O     O_R   0.500030 0.313950 0.383350 -0.583987
O24   O     O_3   0.361806 0.012596 0.274941 -0.487391
O25   O     O_R   0.499970 0.686050 0.616650 -0.586493
O26   O     O_R   0.416140 0.499970 0.616650 -0.632413
O27   O     O_R   0.583860 0.500030 0.383350 -0.607910
O28   O     O_R   0.416170 0.499960 0.383400 -0.557169
O29   O     O_R   0.583830 0.500040 0.616600 -0.578625
O30   O     O_2   0.866422 0.720611 0.545695 -0.526593
S1    S     S_3+6 0.412581 0.301623 0.092034 0.082185
S2    S     S_3+6 0.581872 0.713577 0.913604 0.061694
S3    S     S_3+6 0.234232 0.162801 0.534306 0.047556
S4    S     S_3+6 0.790698 0.572881 0.825475 0.043021
S5    S     S_3+6 0.608496 0.089025 0.711158 0.045771
S6    S     S_3+6 0.420846 0.922184 0.270658 0.034396
Zn1   Zn    Zn3+2 0.499980 0.500010 0.655740 1.035064
Zn2   Zn    Zn3+2 0.500020 0.499990 0.344260 1.058729

loop_
_geom_bond_atom_site_label_1
_geom_bond_atom_site_label_2
_ccdc_geom_bond_type
C25   N1    A    
C43   H22   S    
C23   C45   A    
C17   O29   A    
C32   C35   A    
O28   Zn2   S    
C24   H39   S    
C16   C48   S    
N4    Zn1   S    
C37   H12   S    
H20   N9    S    
C47   C49   A    
O14   S3    S    
C19   S2    S    
O21   S6    D    
C33   C39   A    
C28   N3    A    
C47   N9    S    
O22   S6    D    
C19   C21   S    
O26   Zn1   S    
C1    O23   A    
O1    Zn1   S    
C40   N6    S    
C8    C10   S    
C11   C14   S    
C27   C29   A    
C10   N2    S    
H16   N8    S    
C18   S1    S    
C8    S6    S    
O19   S5    D    
C26   O2    S    
C46   H32   S    
C7    C14   S    
C20   C24   S    
C28   O4    S    
C9    N10   S    
C5    C23   A    
H36   O20   S    
C41   N7    S    
C18   N5    S    
O12   Zn2   S    
C16   O28   A    
C1    O1    A    
N5    Zn2   S    
C3    S3    S    
C4    S4    S    
C46   H35   S    
C43   H24   S    
C48   C50   A    
C20   N4    S    
C40   H9    S    
C21   C22   S    
H5    O7    S    
C42   H18   S    
H27   N10   S    
H11   N7    S    
O25   Zn1   S    
C39   H41   S    
C5    N3    S    
C3    C50   A    
C12   O12   A    
O23   Zn2   S    
C37   C39   A    
H26   O17   S    
C40   H8    S    
O7    S1    S    
C24   N5    S    
C15   H4    S    
C44   H30   S    
C35   C38   A    
C4    C6    A    
C10   C14   S    
C17   C49   S    
C7    S5    S    
C44   N10   S    
C41   H15   S    
C17   O27   A    
C45   N8    S    
C42   H19   S    
C6    C34   A    
C30   C37   A    
C2    C4    A    
C44   H28   S    
C43   N9    S    
C12   O25   A    
C2    C49   A    
C42   N8    S    
C21   N5    S    
C31   C32   A    
C46   N2    S    
C21   H34   S    
C7    C13   S    
C6    N1    S    
C14   H3    S    
C31   C33   A    
C34   N7    S    
C16   O26   A    
C36   H1    S    
C2    H2    S    
C50   H42   S    
C8    C15   S    
C22   H38   S    
C9    C11   S    
C42   H17   S    
C27   N1    A    
C1    C13   S    
C41   H13   S    
C34   C47   A    
O16   S4    D    
C45   C48   A    
C26   N3    A    
C7    C9    S    
O8    S2    D    
O24   S6    S    
C43   H21   S    
C18   C22   S    
C22   N4    S    
C44   H29   S    
C29   C36   A    
O20   S5    S    
O10   S2    S    
C3    C5    A    
C10   C13   S    
C11   C12   S    
O9    S2    D    
O18   S5    D    
C38   H40   S    
O17   S4    S    
C13   C15   S    
C19   C24   S    
C9    C15   S    
C28   C30   A    
O5    S1    D    
C30   C32   A    
H31   N2    S    
C25   O30   S    
O27   Zn2   S    
O13   S3    D    
C8    C11   S    
H7    N6    S    
C36   C38   A    
C20   H23   S    
C18   C20   S    
O29   Zn1   S    
C46   H33   S    
C26   C35   A    
O6    S1    D    
C23   N6    S    
C29   C31   A    
O11   S3    D    
C40   H10   S    
C27   O3    S    
H25   O14   S    
C41   H14   S    
O15   S4    D    
H6    O10   S    
H37   O24   S    
C19   N4    S    
C25   C33   A    
