data_mof_unit_57553.cif
_audit_creation_date              2012-12-10T17:22:30-0500
_audit_creation_method            fapswitch 2.2
_symmetry_space_group_name_H-M    P1
_symmetry_Int_Tables_number       1
_space_group_crystal_system       triclinic
_cell_length_a                    18.915999
_cell_length_b                    19.124098
_cell_length_c                    18.147354
_cell_angle_alpha                 108.280412
_cell_angle_beta                  108.334501
_cell_angle_gamma                 110.143515
_cell_volume                      5152.91846045

loop_
_atom_site_label
_atom_site_type_symbol
_atom_type_description
_atom_site_fract_x
_atom_site_fract_y
_atom_site_fract_z
_atom_type_partial_charge
C1    C     C_R   0.382914 0.381768 0.505002 0.812798
C2    C     C_R   0.317883 0.320433 0.587309 -0.017970
C3    C     C_3   0.554482 0.995241 0.402172 -0.399139
C4    C     C_3   0.469431 0.991393 0.355617 -0.888205
C5    C     C_3   0.745532 0.980999 0.434194 0.181890
C6    C     C_3   0.688419 0.908235 0.338229 -0.431393
C7    C     C_3   0.686702 0.940957 0.271290 -0.917295
C8    C     C_2   0.961231 0.766630 0.489199 0.464656
C9    C     C_2   0.973225 0.444226 0.748989 0.581662
C10   C     C_2   0.001184 0.451113 0.604981 0.424303
C11   C     C_2   0.051926 0.336659 0.516096 0.384175
C12   C     C_2   0.941402 0.024268 0.708791 0.415650
C13   C     C_R   0.179981 0.191111 0.498821 -0.173810
C14   C     C_2   0.157675 0.671194 0.267606 0.540970
C15   C     C_2   0.311535 0.832884 0.404925 0.487438
C16   C     C_3   0.335388 0.008208 0.522322 0.019139
C17   C     C_3   0.303839 0.065182 0.565178 -0.342904
C18   C     C_3   0.350889 0.106185 0.665782 -0.883250
C19   C     C_2   0.141237 0.974390 0.350858 0.410963
C20   C     C_2   0.804917 0.757803 0.287640 0.464302
C21   C     C_3   0.621112 0.648742 0.065499 0.102229
C22   C     C_3   0.572768 0.628303 0.969681 -0.327850
C23   C     C_3   0.476251 0.583598 0.935607 -0.896846
C24   C     C_R   0.624308 0.504819 0.621120 0.813929
C25   C     C_2   0.812903 0.513064 0.108819 0.074443
C26   C     C_3   0.744599 0.696223 0.786304 0.193149
C27   C     C_3   0.838794 0.762898 0.847745 -0.418794
C28   C     C_3   0.869954 0.822910 0.811892 -0.868835
C29   C     C_2   0.715697 0.488429 0.886361 0.339880
C30   C     C_R   0.171708 0.195496 0.420008 0.101424
C31   C     C_R   0.237216 0.263347 0.425201 0.057414
C32   C     C_R   0.313249 0.320124 0.506611 -0.189776
C33   C     C_R   0.099185 0.135668 0.336165 -0.060500
C34   C     C_R   0.089997 0.145391 0.261528 -0.231847
C35   C     C_R   0.151981 0.215183 0.267304 0.050868
C36   C     C_R   0.224883 0.273739 0.348573 -0.136428
C37   C     C_3   0.809674 0.502293 0.810358 -0.044336
C38   C     C_R   0.223693 0.466785 0.384825 -0.128939
C39   C     C_R   0.151533 0.458753 0.393820 -0.103234
C40   C     C_R   0.089259 0.464665 0.335154 -0.150740
C41   C     C_R   0.620194 0.618124 0.499122 0.822371
C42   C     C_R   0.097804 0.476174 0.265787 -0.163442
C43   C     C_R   0.170114 0.482732 0.253480 0.118517
C44   C     C_R   0.235608 0.481720 0.316582 0.117606
C45   C     C_R   0.178961 0.489548 0.180431 -0.139429
C46   C     C_R   0.247871 0.487356 0.166758 0.047620
C47   C     C_R   0.317434 0.496554 0.234834 0.120077
C48   C     C_3   0.849541 0.553664 0.768317 -0.420065
C49   C     C_R   0.311027 0.494597 0.309807 -0.110345
C50   C     C_R   0.247586 0.473419 0.085159 -0.130800
C51   C     C_R   0.317443 0.474112 0.073472 0.060988
C52   C     C_R   0.390430 0.493732 0.145031 -0.242734
C53   C     C_R   0.380488 0.499994 0.378496 0.830766
C54   C     C_R   0.391112 0.505941 0.225106 -0.125238
C55   C     C_R   0.583233 0.728851 0.447666 -0.212841
C56   C     C_R   0.569291 0.797127 0.463880 -0.178817
C57   C     C_R   0.632918 0.873804 0.479505 0.341257
C58   C     C_R   0.712497 0.880572 0.485461 0.434290
C59   C     C_3   0.764966 0.545063 0.855557 -0.123181
C60   C     C_R   0.732463 0.813269 0.486896 -0.047518
C61   C     C_R   0.666455 0.740027 0.473499 -0.023367
C62   C     C_R   0.813484 0.814127 0.501669 -0.132484
C63   C     C_R   0.828926 0.748511 0.514682 -0.014308
C64   C     C_R   0.765232 0.687247 0.519208 0.084877
C65   C     C_3   0.668104 0.415148 0.671816 -0.457715
C66   C     C_R   0.684427 0.681040 0.493743 -0.113969
C67   C     C_R   0.905853 0.741805 0.528559 0.020171
C68   C     C_R   0.923399 0.692104 0.566252 -0.101933
C69   C     C_R   0.862380 0.637944 0.576771 -0.188734
C70   C     C_R   0.388965 0.379690 0.673935 -0.004478
C71   C     C_R   0.782919 0.632290 0.549474 -0.207700
C72   C     C_R   0.996909 0.381741 0.874580 0.790673
C73   C     C_R   0.877351 0.499717 0.875716 0.878367
C74   C     C_R   0.995920 0.618127 0.118825 0.899705
C75   C     C_R   0.116541 0.497802 0.117455 0.851318
C76   C     C_R   0.998143 0.879234 0.379017 0.841916
C77   C     C_3   0.742421 0.410394 0.731446 0.320263
C78   C     C_R   0.118485 0.118702 0.496840 0.826662
C79   C     C_R   0.998572 0.118144 0.620490 0.830208
C80   C     C_R   0.880280 0.881959 0.503038 0.881324
C81   C     C_R   0.383144 0.380221 0.749124 -0.130623
C82   C     C_R   0.997280 0.384544 0.705805 -0.034253
C83   C     C_R   0.011412 0.389046 0.634428 -0.072444
C84   C     C_R   0.034994 0.333929 0.590439 -0.054593
C85   C     C_R   0.036583 0.271001 0.612761 -0.127978
C86   C     C_R   0.014545 0.260047 0.677552 0.055543
C87   C     C_R   0.004150 0.322346 0.731994 -0.022964
C88   C     C_R   0.002846 0.187102 0.688076 -0.178428
C89   C     C_3   0.779782 0.546530 0.690699 -0.509426
C90   C     C_R   0.000733 0.183780 0.764545 -0.023929
C91   C     C_R   0.015060 0.257274 0.831139 0.112679
C92   C     C_R   0.308158 0.326210 0.742230 -0.169053
C93   C     C_R   0.004302 0.319770 0.810536 -0.163334
C94   C     C_R   0.989173 0.112571 0.780322 0.004735
C95   C     C_R   0.013578 0.124215 0.866622 -0.118019
C96   C     C_R   0.041658 0.201842 0.935093 -0.186417
C97   C     C_R   0.039873 0.266851 0.917534 -0.114641
C98   C     C_R   0.153081 0.749969 0.295533 -0.100121
C99   C     C_R   0.228632 0.827996 0.360328 -0.063493
C100  C     C_R   0.225342 0.903566 0.384309 0.344735
C101  C     C_3   0.703606 0.557564 0.785452 0.342689
C102  C     C_R   0.145634 0.899423 0.353364 -0.070708
C103  C     C_R   0.240039 0.266590 0.659846 -0.118730
C104  C     C_R   0.070211 0.820069 0.309764 0.058826
C105  C     C_R   0.072407 0.747601 0.264780 -0.073006
C106  C     C_R   0.993008 0.812492 0.307809 -0.066661
C107  C     C_R   0.913264 0.740961 0.239362 -0.136494
C108  C     C_R   0.913645 0.671101 0.182543 0.063495
C109  C     C_R   0.994094 0.677046 0.192103 -0.149157
C110  C     C_R   0.832553 0.738200 0.219795 -0.038228
C111  C     C_R   0.765807 0.685984 0.133755 0.569416
C112  C     C_R   0.762154 0.611048 0.085143 -0.422461
C113  C     C_3   0.693667 0.508798 0.691489 -0.069608
C114  C     C_R   0.245888 0.258894 0.581838 0.100273
C115  C     C_R   0.831768 0.598417 0.118544 -0.018270
C116  C     C_2   0.827789 0.630374 0.938613 0.359491
C117  C     C_2   0.139519 0.225839 0.187710 0.384960
C118  C     C_2   0.471981 0.440897 0.691761 0.498580
C119  C     C_2   0.314386 0.452691 0.986515 0.382986
C120  C     C_3   0.744396 0.294668 0.751716 0.165997
C121  C     C_3   0.696489 0.218220 0.660063 -0.447005
C122  C     C_3   0.741318 0.165101 0.657214 -0.889932
C123  C     C_2   0.493333 0.788793 0.476401 0.472909
C124  C     C_3   0.543802 0.930768 0.436845 0.041023
H1    H     H_    0.649566 0.374025 0.602391 0.185435
H2    H     H_    0.270648 0.328298 0.351142 0.177521
H3    H     H_    0.446484 0.497746 0.138457 0.136403
H4    H     H_    0.268906 0.459708 0.431530 0.148932
H5    H     H_    0.144260 0.448267 0.446818 0.147576
H6    H     H_    0.033372 0.459271 0.342704 0.140059
H7    H     H_    0.045965 0.479246 0.223261 0.158896
H8    H     H_    0.191752 0.458107 0.028762 0.171941
H9    H     H_    0.449500 0.521085 0.278190 0.149256
H10   H     H_    0.875201 0.596350 0.600990 0.187114
H11   H     H_    0.530227 0.668583 0.426968 0.193774
H12   H     H_    0.801740 0.609258 0.694479 0.184024
H13   H     H_    0.982024 0.688976 0.580020 0.175286
H14   H     H_    0.735749 0.584638 0.553597 0.148403
H15   H     H_    0.060632 0.210428 0.001430 0.167432
H16   H     H_    0.772739 0.391016 0.690840 0.071398
H17   H     H_    0.054644 0.229399 0.577584 0.183710
H18   H     H_    0.008015 0.072192 0.880845 0.176669
H19   H     H_    0.059517 0.325153 0.972866 0.143443
H20   H     H_    0.703048 0.560404 0.027807 0.191403
H21   H     H_    0.773411 0.503891 0.627941 0.212353
H22   H     H_    0.886582 0.529312 0.742679 0.225389
H23   H     H_    0.895249 0.620709 0.817608 0.245940
H24   H     H_    0.639229 0.521116 0.774561 0.195615
H25   H     H_    0.802735 0.663600 0.973670 0.141287
H26   H     H_    0.081732 0.179605 0.125819 0.044778
H27   H     H_    0.503050 0.420367 0.655880 -0.004872
H28   H     H_    0.365603 0.445154 0.977127 0.035807
H29   H     H_    0.740611 0.271507 0.800112 0.173807
H30   H     H_    0.813165 0.328001 0.770236 0.123758
H31   H     H_    0.629527 0.179105 0.644598 0.238214
H32   H     H_    0.695291 0.239460 0.609524 0.217885
H33   H     H_    0.808583 0.203563 0.673056 0.252778
H34   H     H_    0.437699 0.422930 0.813971 0.177877
H35   H     H_    0.708409 0.110751 0.590719 0.296118
H36   H     H_    0.740806 0.140688 0.705215 0.271046
H37   H     H_    0.495012 0.843857 0.519888 0.075622
H38   H     H_    0.509144 0.939881 0.474849 0.158687
H39   H     H_    0.504384 0.866511 0.378376 0.142044
H40   H     H_    0.600461 0.060347 0.456966 0.232559
H41   H     H_    0.578691 0.981584 0.354232 0.222642
H42   H     H_    0.420617 0.926195 0.301895 0.268456
H43   H     H_    0.478282 0.034959 0.326646 0.266494
H44   H     H_    0.446399 0.011339 0.403433 0.281860
H45   H     H_    0.303310 0.329331 0.800930 0.165355
H46   H     H_    0.803104 0.024486 0.435997 0.191394
H47   H     H_    0.716641 0.020643 0.451685 0.152370
H48   H     H_    0.713123 0.863617 0.327046 0.299140
H49   H     H_    0.621958 0.872933 0.325916 0.209225
H50   H     H_    0.665103 0.988640 0.282064 0.248572
H51   H     H_    0.641973 0.887457 0.203560 0.282983
H52   H     H_    0.751438 0.970133 0.277040 0.261508
H53   H     H_    0.933793 0.748625 0.420148 -0.018479
H54   H     H_    0.916118 0.420620 0.755355 -0.089874
H55   H     H_    0.049642 0.488978 0.593095 0.051502
H56   H     H_    0.182414 0.227019 0.658459 0.155610
H57   H     H_    0.041033 0.377901 0.489970 0.032193
H58   H     H_    0.896573 0.008214 0.644053 0.090462
H59   H     H_    0.103206 0.612762 0.247590 -0.018328
H60   H     H_    0.368577 0.880655 0.412739 0.038049
H61   H     H_    0.406126 0.045430 0.551384 0.172362
H62   H     H_    0.322020 0.955009 0.538735 0.147040
H63   H     H_    0.313394 0.116036 0.545700 0.226443
H64   H     H_    0.234613 0.025731 0.541648 0.241220
H65   H     H_    0.341562 0.056478 0.686889 0.261190
H66   H     H_    0.325383 0.145787 0.694000 0.272244
H67   H     H_    0.047023 0.080623 0.325019 0.210133
H68   H     H_    0.420460 0.147319 0.691379 0.262446
H69   H     H_    0.194498 0.037616 0.396840 0.079325
H70   H     H_    0.847564 0.779405 0.354142 0.007712
H71   H     H_    0.593279 0.676679 0.103738 0.198343
H72   H     H_    0.611880 0.589778 0.070144 0.113260
H73   H     H_    0.591882 0.687907 0.964773 0.255149
H74   H     H_    0.589715 0.587632 0.928051 0.268003
H75   H     H_    0.455834 0.524311 0.940495 0.241569
H76   H     H_    0.442792 0.568135 0.865562 0.301577
H77   H     H_    0.458022 0.624940 0.974501 0.264493
H78   H     H_    0.033214 0.098592 0.199107 0.144836
H79   H     H_    0.748189 0.460057 0.071446 -0.037768
H80   H     H_    0.707728 0.730573 0.784619 0.168769
H81   H     H_    0.731388 0.665812 0.717789 0.122501
H82   H     H_    0.847272 0.799830 0.913910 0.245838
H83   H     H_    0.878611 0.732335 0.855262 0.253124
H84   H     H_    0.863919 0.787330 0.746618 0.278693
H85   H     H_    0.938233 0.870894 0.857999 0.281456
H86   H     H_    0.832146 0.856023 0.804999 0.262807
H87   H     H_    0.749181 0.471387 0.931689 0.145154
H88   H     H_    0.611321 0.387301 0.680830 0.198585
O1    O     O_R   0.408690 0.356690 0.448570 -0.610641
O2    O     O_R   0.052500 0.908420 0.460860 -0.603302
O3    O     O_R   0.039610 0.091640 0.448030 -0.611159
O4    O     O_R   0.408090 0.460090 0.551440 -0.604080
O5    O     O_R   0.143600 0.091610 0.551990 -0.648230
O6    O     O_R   0.947500 0.091600 0.539170 -0.632330
O7    O     O_R   0.051490 0.091570 0.643140 -0.615078
O8    O     O_R   0.856400 0.908420 0.448030 -0.599092
O9    O     O_R   0.960390 0.908390 0.552000 -0.584117
O10   O     O_R   0.592400 0.448300 0.540670 -0.627358
O11   O     O_R   0.591800 0.551700 0.643540 -0.597453
O12   O     O_R   0.049540 0.460090 0.906170 -0.585530
O13   O     O_R   0.591910 0.539910 0.448560 -0.629261
O14   O     O_R   0.591310 0.643310 0.551430 -0.623602
O15   O     O_R   0.408200 0.448300 0.356460 -0.615163
O16   O     O_R   0.407600 0.551700 0.459330 -0.589281
O17   O     O_R   0.946100 0.356720 0.906240 -0.642160
O18   O     O_2   0.905074 0.663780 0.966957 -0.578402
O19   O     O_2   0.193249 0.285779 0.189978 -0.588107
O20   O     O_2   0.504879 0.515056 0.745454 -0.566446
O21   O     O_2   0.254444 0.441945 0.924282 -0.561963
O22   O     O_3   0.708473 0.349065 0.757546 -0.619190
O23   O     O_R   0.853530 0.448360 0.905250 -0.652616
O24   O     O_2   0.429476 0.719765 0.440596 -0.507794
O25   O     O_3   0.624257 0.946193 0.496233 -0.655753
O26   O     O_3   0.773373 0.957190 0.500787 -0.642605
O27   O     O_2   0.038999 0.801390 0.532923 -0.541251
O28   O     O_2   0.018838 0.520237 0.779786 -0.550460
O29   O     O_2   0.937564 0.458850 0.591830 -0.591682
O30   O     O_2   0.077293 0.291777 0.482118 -0.577294
O31   O     O_2   0.949506 0.968066 0.722208 -0.573182
O32   O     O_2   0.221484 0.670897 0.265732 -0.538070
O33   O     O_2   0.316874 0.787383 0.438296 -0.525033
O34   O     O_R   0.956970 0.551730 0.905180 -0.550505
O35   O     O_3   0.299816 0.981182 0.430473 -0.673465
O36   O     O_2   0.079353 0.965161 0.292341 -0.593330
O37   O     O_2   0.731631 0.743018 0.268707 -0.609519
O38   O     O_3   0.707146 0.711020 0.101988 -0.616858
O39   O     O_2   0.740038 0.453375 0.066744 0.008555
O40   O     O_3   0.714704 0.641674 0.820320 -0.643677
O41   O     O_2   0.639520 0.462739 0.863893 -0.620588
O42   O     O_R   0.945170 0.540000 0.088470 -0.654758
O43   O     O_R   0.048600 0.643370 0.088400 -0.568128
O44   O     O_R   0.037740 0.448360 0.089460 -0.657793
O45   O     O_R   0.141170 0.551730 0.089390 -0.581127
O46   O     O_R   0.948510 0.908450 0.356890 -0.609758
Zn1   Zn    Zn3+2 0.500400 0.430960 0.431310 0.972319
Zn2   Zn    Zn3+2 0.499600 0.569040 0.568690 1.024949
Zn3   Zn    Zn3+2 0.928290 0.431030 0.997370 0.921839
Zn4   Zn    Zn3+2 0.066410 0.569060 0.997270 1.091009
Zn5   Zn    Zn3+2 0.930570 0.000030 0.430590 0.972574
Zn6   Zn    Zn3+2 0.069430 0.999990 0.569430 1.025506

loop_
_geom_bond_atom_site_label_1
_geom_bond_atom_site_label_2
_ccdc_geom_bond_type
C44   C49   A    
C55   C56   A    
C7    H50   S    
C18   H65   S    
C69   H10   S    
O1    Zn1   S    
C121  H32   S    
C2    C70   A    
C95   C96   A    
C101  C113  S    
C6    C7    S    
C22   H73   S    
C104  C105  A    
O46   Zn5   S    
C11   H57   S    
C77   H16   S    
C26   O40   S    
O9    Zn6   S    
C96   H15   S    
C104  C106  A    
C14   H59   S    
C90   C91   A    
C101  H24   S    
C6    H48   S    
C85   C86   A    
C120  C121  S    
C111  O38   S    
C89   H21   S    
C18   H68   S    
C26   C27   S    
C98   C105  A    
C23   H77   S    
C10   H55   S    
C2    C32   A    
O2    Zn6   S    
C17   H63   S    
C34   C35   A    
C16   H61   S    
C25   C115  S    
C53   O16   A    
O11   Zn2   S    
C123  H37   S    
C19   C102  S    
C86   C88   A    
C24   O11   A    
O8    Zn5   S    
C106  C107  A    
C17   H64   S    
C58   C60   A    
C82   C87   A    
C72   O12   A    
C48   H23   S    
C23   H75   S    
C10   C83   S    
C89   C113  S    
C108  C109  A    
C60   C62   A    
C103  H56   S    
C64   C71   A    
C69   C71   A    
C70   C81   A    
C110  C111  A    
C116  H25   S    
C65   H88   S    
C40   H6    S    
C92   C103  A    
C120  O22   S    
C80   O9    A    
C68   C69   A    
C81   C92   A    
C61   C66   A    
C119  O21   D    
C12   H58   S    
C29   C59   S    
O42   Zn3   S    
C118  O20   D    
C59   C116  S    
C48   H22   S    
C51   C119  S    
C122  H35   S    
C3    H41   S    
C90   C94   A    
C42   H7    S    
C29   O41   D    
C121  H31   S    
C13   C114  A    
O34   Zn4   S    
O15   Zn1   S    
C9    C82   S    
C55   H11   S    
C124  H39   S    
C40   C42   A    
C24   C113  S    
O23   Zn3   S    
C89   H12   S    
O44   Zn3   S    
C96   C97   A    
C77   O22   S    
O6    Zn5   S    
C12   C94   S    
C68   H13   S    
C118  H27   S    
C10   O29   D    
C9    O28   D    
C8    H53   S    
C20   H70   S    
C79   C88   S    
C52   H3    S    
C52   C54   A    
C19   O36   D    
C14   C98   S    
C71   H14   S    
C124  H38   S    
C38   C39   A    
C63   C67   A    
C25   O39   D    
C65   C77   S    
C72   O17   A    
C5    H46   S    
C67   C68   A    
C59   C101  S    
C56   C123  S    
C15   O33   D    
C13   C30   A    
C103  C114  A    
C84   C85   A    
O13   Zn1   S    
C47   C49   A    
C75   O44   A    
C5    O26   S    
O14   Zn2   S    
C39   C40   A    
C75   O45   A    
C86   C87   A    
C16   C17   S    
C79   O6    A    
O12   Zn4   S    
C73   O34   A    
C39   H5    S    
C50   C51   A    
C28   H85   S    
C45   C46   A    
C54   H9    S    
C76   O46   A    
C23   H76   S    
C117  O19   D    
C1    C32   S    
C21   H71   S    
C4    H44   S    
C7    H51   S    
C60   C61   A    
C35   C36   A    
C64   C66   A    
C26   H80   S    
C43   C44   A    
C4    H43   S    
C38   C44   A    
C62   C63   A    
O3    Zn5   S    
C91   C93   A    
C79   O7    A    
C83   C84   A    
O43   Zn4   S    
C92   H45   S    
C107  C108  A    
C12   O31   D    
C15   H60   S    
C1    O4    A    
C120  H30   S    
C17   C18   S    
C5    H47   S    
C74   O42   A    
C91   C97   A    
C37   C48   S    
C102  C104  A    
C58   O26   S    
C43   C45   A    
C121  C122  S    
C37   C59   S    
C50   H8    S    
C3    H40   S    
C95   H18   S    
C47   C54   A    
C20   C110  S    
C72   C93   S    
C88   C90   A    
C19   H69   S    
C24   O10   A    
C48   C89   S    
C1    O1    A    
C41   O13   A    
C28   H84   S    
C107  C110  A    
C14   O32   D    
C35   C117  S    
C26   H81   S    
C42   C43   A    
O4    Zn2   S    
C85   H17   S    
C3    C4    S    
O10   Zn1   S    
C21   O38   S    
C74   C109  S    
C3    C124  S    
C108  C115  A    
C20   O37   D    
C100  C102  A    
C8    O27   D    
C62   C80   S    
C119  H28   S    
C56   C57   A    
C105  C109  A    
C46   C47   A    
C18   H66   S    
C76   C106  S    
C81   H34   S    
C16   O35   S    
C111  C112  A    
C116  O18   D    
C22   C23   S    
C65   C113  S    
C22   H74   S    
C31   C32   A    
C36   H2    S    
O7    Zn6   S    
C74   O43   A    
C41   O14   A    
C15   C99   S    
C25   H79   S    
C78   O3    A    
C80   O8    A    
C38   H4    S    
O45   Zn4   S    
O16   Zn2   S    
C97   H19   S    
C41   C66   S    
C6    H49   S    
O17   Zn3   S    
C11   C84   S    
C46   C50   A    
C37   C73   S    
C7    H52   S    
C99   C100  A    
C45   C75   S    
C33   H67   S    
C27   H82   S    
C112  H20   S    
C51   C52   A    
C78   O5    A    
C100  O35   S    
C16   H62   S    
C53   O15   A    
C117  H26   S    
C124  O25   S    
C2    C114  A    
C30   C31   A    
C57   C58   A    
C5    C6    S    
C37   C77   S    
C34   H78   S    
C49   C53   S    
C55   C61   A    
C120  H29   S    
C122  H33   S    
C33   C34   A    
C4    H42   S    
C30   C33   A    
C27   H83   S    
C21   H72   S    
C94   C95   A    
C29   H87   S    
C73   O23   A    
C13   C78   S    
C63   C64   A    
C101  O40   S    
C76   O2    A    
C70   C118  S    
C8    C67   S    
C98   C99   A    
C27   C28   S    
O5    Zn6   S    
C11   O30   D    
C122  H36   S    
C31   C36   A    
C123  O24   D    
C82   C83   A    
C21   C22   S    
C28   H86   S    
C87   C93   A    
C112  C115  A    
C57   O25   S    
C9    H54   S    
C65   H1    S    
