data_mof_unit_14931.cif
_audit_creation_date              2012-10-26T19:49:59-0400
_audit_creation_method            fapswitch 2.2
_symmetry_space_group_name_H-M    P1
_symmetry_Int_Tables_number       1
_space_group_crystal_system       triclinic
_cell_length_a                    15.22803
_cell_length_b                    13.896665
_cell_length_c                    10.850087
_cell_angle_alpha                 90.217675
_cell_angle_beta                  92.531852
_cell_angle_gamma                 91.401492
_cell_volume                      2293.12777326

loop_
_atom_site_label
_atom_site_type_symbol
_atom_type_description
_atom_site_fract_x
_atom_site_fract_y
_atom_site_fract_z
_atom_type_partial_charge
C1    C     C_R   0.329760 0.498982 0.502797 0.560848
C2    C     C_R   0.949688 0.497403 0.485031 -0.042491
C3    C     C_R   0.526279 0.108779 0.609014 0.218601
C4    C     C_R   0.470755 0.106716 0.395126 0.184610
C5    C     C_R   0.527306 0.211131 0.603869 0.015894
C6    C     C_R   0.470063 0.208363 0.398288 0.014001
C7    C     C_R   0.497177 0.055514 0.502595 0.063217
C8    C     C_R   0.423173 0.889765 0.463165 -0.042171
C9    C     C_R   0.573598 0.895724 0.541266 -0.045594
C10   C     C_R   0.429801 0.788979 0.447836 0.338540
C11   C     C_R   0.569794 0.793372 0.553029 0.333267
C12   C     C_R   0.669459 0.500908 0.491289 0.576890
C13   C     C_R   0.497604 0.945953 0.502834 -0.034477
C14   C     C_R   0.507250 0.500318 0.262972 0.526061
C15   C     C_R   0.494231 0.500749 0.737650 0.522001
C16   C     C_R   0.560873 0.674652 0.120095 -0.108167
C17   C     C_R   0.475927 0.683120 0.888829 -0.104572
C18   C     C_R   0.550164 0.763286 0.062387 -0.158073
C19   C     C_R   0.501884 0.767855 0.950990 -0.154484
C20   C     C_R   0.496148 0.592089 0.939754 0.016940
C21   C     C_R   0.524763 0.589298 0.064627 0.024703
C22   C     C_R   0.514812 0.501580 0.129135 -0.007247
C23   C     C_R   0.232770 0.497141 0.506608 -0.046810
C24   C     C_R   0.489751 0.503811 0.872358 -0.018519
C25   C     C_R   0.499335 0.415492 0.063408 -0.161194
C26   C     C_R   0.491162 0.416315 0.936025 -0.165503
C27   C     C_R   0.096101 0.582689 0.491303 -0.195934
C28   C     C_R   0.906264 0.577744 0.528438 -0.200763
C29   C     C_R   0.186897 0.584134 0.510325 0.203242
C30   C     C_R   0.816178 0.585194 0.508034 0.192678
C31   C     C_1   0.337664 0.931703 0.446240 0.266762
C32   C     C_1   0.656690 0.947675 0.559697 0.203503
C33   C     C_3   0.358164 0.756403 0.261816 0.017878
C34   C     C_R   0.765251 0.502118 0.477798 -0.031616
C35   C     C_3   0.305095 0.676795 0.194116 -0.347301
C36   C     C_3   0.665212 0.775243 0.724651 0.022895
C37   C     C_3   0.699476 0.690673 0.799701 -0.344042
C38   C     C_3   0.231376 0.686613 0.664093 0.012544
C39   C     C_3   0.272676 0.784849 0.695463 -0.347202
C40   C     C_3   0.791084 0.705341 0.373325 0.017561
C41   C     C_3   0.754878 0.805098 0.353315 -0.347206
C42   C     C_3   0.221785 0.284398 0.386528 0.003599
C43   C     C_3   0.234790 0.176743 0.392131 -0.321287
C44   C     C_3   0.762224 0.262735 0.425120 0.033397
C45   C     C_R   0.184009 0.409189 0.506873 0.205039
C46   C     C_3   0.712981 0.187187 0.345212 -0.370557
C47   C     C_3   0.036783 0.316309 0.664810 0.001712
C48   C     C_3   0.983817 0.224897 0.690116 -0.361202
C49   C     C_3   0.947678 0.395362 0.231229 0.005492
C50   C     C_3   0.975167 0.316363 0.144625 -0.368996
C51   C     C_3   0.608883 0.105442 0.797178 -0.010174
C52   C     C_3   0.653578 0.032054 0.881277 -0.375070
C53   C     C_3   0.485235 0.073072 0.189533 -0.027430
C54   C     C_3   0.438314 0.023713 0.079013 -0.376699
C55   C     C_R   0.806984 0.421368 0.429856 0.196639
C56   C     C_R   0.092319 0.409656 0.514747 0.296677
C57   C     C_R   0.899167 0.423991 0.422454 0.294741
C58   C     C_R   0.047150 0.496000 0.495193 -0.049516
Cu1   Cu    Cu3+1 0.500000 0.596430 0.500000 1.037475
Cu2   Cu    Cu3+1 0.500000 0.403570 0.500000 0.945510
H1    H     H_    0.493670 0.347078 0.110299 0.124442
H2    H     H_    0.443628 0.247091 0.319490 0.128819
H3    H     H_    0.424703 0.759773 0.224395 0.132031
H4    H     H_    0.325487 0.825643 0.242465 0.140347
H5    H     H_    0.236891 0.673922 0.226467 0.159950
H6    H     H_    0.303004 0.690889 0.093343 0.086069
H7    H     H_    0.335704 0.606176 0.211491 0.165048
H8    H     H_    0.610427 0.807904 0.773120 0.115692
H9    H     H_    0.720272 0.828697 0.721110 0.151035
H10   H     H_    0.759695 0.663062 0.759182 0.166155
H11   H     H_    0.715673 0.714079 0.896186 0.086419
H12   H     H_    0.484520 0.348050 0.887532 0.130876
H13   H     H_    0.649361 0.631647 0.800346 0.177967
H14   H     H_    0.271303 0.630973 0.712630 0.115546
H15   H     H_    0.163708 0.684779 0.699516 0.108119
H16   H     H_    0.234668 0.842072 0.647985 0.176643
H17   H     H_    0.272527 0.797289 0.796623 0.077892
H18   H     H_    0.341634 0.788384 0.666891 0.155957
H19   H     H_    0.754751 0.655139 0.307608 0.112597
H20   H     H_    0.861774 0.708687 0.350450 0.112950
H21   H     H_    0.787549 0.856439 0.420153 0.186468
H22   H     H_    0.767871 0.829572 0.258376 0.071599
H23   H     H_    0.597319 0.673937 0.207827 0.132974
H24   H     H_    0.682834 0.803450 0.363676 0.157331
H25   H     H_    0.275237 0.318000 0.333460 0.128127
H26   H     H_    0.157655 0.296133 0.335747 0.138988
H27   H     H_    0.177235 0.141121 0.433871 0.181276
H28   H     H_    0.241661 0.147536 0.297712 0.120384
H29   H     H_    0.294766 0.161239 0.449595 0.192311
H30   H     H_    0.731107 0.266334 0.515911 0.132002
H31   H     H_    0.831218 0.239382 0.439739 0.175886
H32   H     H_    0.745970 0.178583 0.256701 0.144288
H33   H     H_    0.711752 0.117052 0.393332 0.122528
H34   H     H_    0.438199 0.690557 0.803154 0.139509
H35   H     H_    0.644442 0.209542 0.325101 0.159425
H36   H     H_    0.000427 0.378518 0.700445 0.106276
H37   H     H_    0.101800 0.312135 0.715574 0.143065
H38   H     H_    0.018144 0.161213 0.655644 0.170448
H39   H     H_    0.976061 0.217230 0.790927 0.085894
H40   H     H_    0.917640 0.228173 0.643289 0.144453
H41   H     H_    0.999268 0.453595 0.233935 0.113906
H42   H     H_    0.884626 0.424522 0.192755 0.136474
H43   H     H_    0.924127 0.257823 0.139301 0.160907
H44   H     H_    0.983155 0.346172 0.050844 0.078985
H45   H     H_    0.575334 0.828667 0.107230 0.100355
H46   H     H_    0.038542 0.286221 0.178464 0.146389
H47   H     H_    0.575423 0.157783 0.855821 0.116807
H48   H     H_    0.661396 0.143061 0.745846 0.128961
H49   H     H_    0.696212 0.985789 0.827317 0.157103
H50   H     H_    0.694979 0.069894 0.953992 0.088900
H51   H     H_    0.604202 0.985452 0.925821 0.142911
H52   H     H_    0.551554 0.041943 0.204309 0.125802
H53   H     H_    0.492484 0.150886 0.167505 0.109072
H54   H     H_    0.370018 0.049630 0.067665 0.164484
H55   H     H_    0.472899 0.040668 0.993780 0.118736
H56   H     H_    0.487450 0.836972 0.910168 0.114958
H57   H     H_    0.436060 0.944586 0.092850 0.141108
H58   H     H_    0.064735 0.651095 0.478564 0.141021
H59   H     H_    0.941773 0.639286 0.568637 0.134583
H60   H     H_    0.548181 0.253180 0.683958 0.119230
N1    N     N_R   0.500000 0.258690 0.500000 -0.273247
N2    N     N_R   0.500000 0.741330 0.500000 -0.236977
N3    N     N_1   0.268462 0.963516 0.432869 -0.325928
N4    N     N_1   0.723108 0.989315 0.574480 -0.370202
O1    O     O_R   0.371460 0.581430 0.500010 -0.410796
O2    O     O_3   0.640233 0.743454 0.603862 -0.472489
O3    O     O_3   0.229355 0.671573 0.534903 -0.482570
O4    O     O_3   0.781432 0.675787 0.497199 -0.492724
O5    O     O_3   0.225168 0.321798 0.508067 -0.522641
O6    O     O_3   0.757127 0.352170 0.364354 -0.541969
O7    O     O_3   0.047676 0.324053 0.536714 -0.493897
O8    O     O_3   0.938337 0.356542 0.350141 -0.507321
O9    O     O_3   0.545950 0.057758 0.717140 -0.570692
O10   O     O_3   0.434626 0.057029 0.293572 -0.574105
O11   O     O_R   0.628540 0.581430 0.499990 -0.414898
O12   O     O_R   0.371470 0.418560 0.500010 -0.470344
O13   O     O_R   0.628530 0.418560 0.499990 -0.488478
O14   O     O_R   0.500000 0.581450 0.319650 -0.513323
O15   O     O_R   0.500000 0.581450 0.680350 -0.511276
O16   O     O_R   0.500010 0.418580 0.319650 -0.521118
O17   O     O_R   0.499990 0.418580 0.680350 -0.520621
O18   O     O_3   0.361366 0.736915 0.389569 -0.471481

loop_
_geom_bond_atom_site_label_1
_geom_bond_atom_site_label_2
_ccdc_geom_bond_type
C28   H59   S    
C7    C13   S    
Cu1   Cu2   S    
C45   O5    S    
C16   C21   A    
C23   C45   A    
C27   C29   A    
C26   H12   S    
C32   N4    T    
C57   O8    S    
C38   O3    S    
C2    C57   A    
C37   H11   S    
C53   C54   S    
C50   H44   S    
C8    C13   A    
C43   H28   S    
C39   H17   S    
C36   C37   S    
C24   C26   A    
C3    C7    A    
C49   H41   S    
C38   C39   S    
C46   H32   S    
C35   H5    S    
C44   O6    S    
C40   O4    S    
C5    N1    A    
C17   C20   A    
C18   C19   A    
C10   O18   S    
C9    C13   A    
C9    C32   S    
C17   C19   A    
C15   O17   A    
C46   H35   S    
C14   O14   A    
C45   C56   A    
C44   C46   S    
C51   H48   S    
C12   O11   A    
Cu1   O14   S    
C47   H36   S    
C40   H20   S    
C19   H56   S    
C42   H26   S    
C52   H50   S    
C1    O12   A    
Cu2   O12   S    
Cu2   O13   S    
Cu1   N2    S    
C34   C55   A    
C21   C22   A    
C4    C7    A    
C53   H53   S    
C15   O15   A    
C38   H15   S    
C48   H40   S    
C49   O8    S    
C30   O4    S    
C30   C34   A    
C5    H60   S    
C51   C52   S    
C39   H18   S    
C20   C24   A    
C11   O2    S    
C4    C6    A    
C49   H42   S    
C52   H51   S    
C3    C5    A    
C25   C26   A    
C41   H24   S    
C22   C25   A    
C16   H23   S    
C47   O7    S    
C3    O9    S    
Cu2   O17   S    
C47   C48   S    
Cu1   O15   S    
C33   H3    S    
C55   O6    S    
C41   H21   S    
C54   H55   S    
C36   H8    S    
C40   H19   S    
C42   H25   S    
C25   H1    S    
C39   H16   S    
C9    C11   A    
C44   H31   S    
Cu2   O16   S    
C53   H52   S    
C8    C10   A    
C40   C41   S    
C14   O16   A    
C1    C23   S    
C29   O3    S    
C11   N2    A    
C42   C43   S    
C12   C34   S    
C23   C29   A    
C44   H30   S    
C36   H9    S    
C4    O10   S    
C38   H14   S    
C27   H58   S    
C48   H39   S    
C37   H13   S    
C15   C24   S    
C8    C31   S    
C16   C18   A    
C36   O2    S    
C53   O10   S    
C1    O1    A    
C10   N2    A    
C27   C58   A    
C47   H37   S    
C2    C58   S    
C33   O18   S    
Cu1   O1    S    
C48   H38   S    
C35   H6    S    
C43   H27   S    
C14   C22   S    
C55   C57   A    
C18   H45   S    
C31   N3    T    
C28   C30   A    
C51   O9    S    
C6    H2    S    
C46   H33   S    
C52   H49   S    
C33   H4    S    
C41   H22   S    
C54   H54   S    
Cu1   O11   S    
C33   C35   S    
C56   C58   A    
C42   O5    S    
C43   H29   S    
Cu2   N1    S    
C56   O7    S    
C35   H7    S    
C50   H43   S    
C20   C21   A    
C51   H47   S    
C49   C50   S    
C54   H57   S    
C50   H46   S    
C12   O13   A    
C2    C28   A    
C17   H34   S    
C6    N1    A    
C37   H10   S    
