data_mof_unit_54170.cif
_audit_creation_date              2012-12-10T17:53:12-0500
_audit_creation_method            fapswitch 2.2
_symmetry_space_group_name_H-M    P1
_symmetry_Int_Tables_number       1
_space_group_crystal_system       triclinic
_cell_length_a                    14.666461
_cell_length_b                    14.624156
_cell_length_c                    27.763062
_cell_angle_alpha                 77.281917
_cell_angle_beta                  102.459668
_cell_angle_gamma                 114.738779
_cell_volume                      5223.95076071

loop_
_atom_site_label
_atom_site_type_symbol
_atom_type_description
_atom_site_fract_x
_atom_site_fract_y
_atom_site_fract_z
_atom_type_partial_charge
C1    C     C_R   0.880281 0.311981 0.508612 0.819342
C2    C     C_R   0.119682 0.687990 0.492343 0.817177
C3    C     C_R   0.985664 0.504124 0.896214 -0.086181
C4    C     C_R   0.014258 0.496034 0.103751 -0.086163
C5    C     C_R   0.915383 0.419661 0.872728 -0.023466
C6    C     C_R   0.084554 0.580486 0.127240 -0.023445
C7    C     C_R   0.841452 0.340718 0.900302 0.161129
C8    C     C_R   0.158496 0.659425 0.099668 0.161124
C9    C     C_R   0.049954 0.589947 0.867799 -0.059754
C10   C     C_R   0.949959 0.410213 0.132164 -0.059795
C11   C     C_R   0.997270 0.500599 0.645216 -0.077076
C12   C     C_R   0.002711 0.499437 0.354775 -0.078199
C13   C     C_R   0.941759 0.409095 0.029560 0.044867
C14   C     C_R   0.058164 0.591069 0.970404 0.044845
C15   C     C_R   0.071547 0.583931 0.023261 0.012461
C16   C     C_R   0.928379 0.416231 0.976704 0.012465
C17   C     C_R   0.008430 0.496667 0.051933 0.032793
C18   C     C_R   0.991491 0.503495 0.948032 0.032778
C19   C     C_R   0.895036 0.316992 0.061795 0.150721
C20   C     C_R   0.104890 0.683172 0.938169 0.150746
C21   C     C_R   0.892486 0.321206 0.111191 -0.143080
C22   C     C_R   0.107426 0.678957 0.888771 -0.143228
C23   C     C_R   0.999286 0.500226 0.592449 0.814339
C24   C     C_R   0.000713 0.499782 0.407549 0.815926
C25   C     C_R   0.847130 0.342987 0.950977 -0.202533
C26   C     C_R   0.152807 0.657166 0.048991 -0.202498
C27   C     C_R   0.812976 0.203633 0.514947 -0.100908
C28   C     C_R   0.187028 0.795653 0.492949 -0.100921
C29   C     C_R   0.785718 0.024717 0.527693 0.184393
C30   C     C_R   0.216257 0.968731 0.500234 0.182087
C31   C     C_R   0.851137 0.127624 0.523387 -0.171974
C32   C     C_R   0.149712 0.868668 0.494128 -0.172186
C33   C     C_R   0.709124 0.176891 0.512256 -0.249277
C34   C     C_R   0.291099 0.822937 0.496801 -0.242746
C35   C     C_R   0.641140 0.074791 0.518372 0.054833
C36   C     C_R   0.360754 0.920330 0.506001 0.054857
C37   C     C_R   0.679836 0.997845 0.524547 0.145250
C38   C     C_R   0.322592 0.994985 0.506413 0.142687
C39   C     C_R   0.535168 0.047852 0.516461 0.081688
C40   C     C_R   0.467321 0.945242 0.514140 0.083461
C41   C     C_R   0.508218 0.870325 0.521481 -0.213004
C42   C     C_R   0.495090 0.119824 0.517877 -0.214360
C43   C     C_R   0.611858 0.896036 0.527128 -0.207617
C44   C     C_R   0.391484 0.093693 0.513378 -0.200944
C45   C     C_R   0.920226 0.420457 0.822159 0.537689
C46   C     C_R   0.079721 0.579679 0.177813 0.537707
C47   C     C_R   0.717783 0.671513 0.418059 0.042414
C48   C     C_R   0.281102 0.327167 0.581585 0.037519
C49   C     C_R   0.800307 0.643012 0.432455 0.049252
C50   C     C_R   0.199217 0.356704 0.567447 0.052932
C51   C     C_R   0.712597 0.507181 0.491232 0.004885
C52   C     C_R   0.287264 0.492101 0.508606 0.002083
C53   C     C_R   0.630031 0.538038 0.482261 -0.045114
C54   C     C_R   0.369189 0.460296 0.517419 -0.043376
C55   C     C_R   0.630151 0.616075 0.441666 0.056529
C56   C     C_R   0.368662 0.381970 0.557885 0.059302
C57   C     C_R   0.545316 0.490445 0.509911 0.033434
C58   C     C_R   0.453681 0.507237 0.489666 0.031819
C59   C     C_R   0.450572 0.569541 0.442343 0.136813
C60   C     C_R   0.548027 0.427456 0.557090 0.134515
C61   C     C_R   0.540481 0.630997 0.422638 -0.164518
C62   C     C_R   0.457912 0.366081 0.576664 -0.178660
C63   C     C_R   0.050633 0.587271 0.817810 0.545632
C64   C     C_R   0.949283 0.412883 0.182154 0.545938
C65   C     C_R   0.060266 0.467124 0.733284 0.204214
C66   C     C_R   0.940024 0.533407 0.266699 0.204378
C67   C     C_R   0.062180 0.467426 0.683011 -0.208491
C68   C     C_R   0.938125 0.533072 0.316979 -0.208438
C69   C     C_R   0.930182 0.534002 0.658195 -0.214145
C70   C     C_R   0.069445 0.465594 0.341788 -0.213643
C71   C     C_R   0.927775 0.534060 0.708013 -0.144732
C72   C     C_R   0.071857 0.465589 0.291963 -0.143986
C73   C     C_R   0.992296 0.500961 0.745678 0.371767
C74   C     C_R   0.007666 0.499156 0.254298 0.371393
Cu1   Cu    Cu3+1 0.081740 0.475690 0.513040 0.943944
Cu2   Cu    Cu3+1 0.918260 0.524310 0.486960 0.943737
H1    H     H_    0.879970 0.560806 0.629860 0.165127
H2    H     H_    0.119347 0.438375 0.370122 0.165782
H3    H     H_    0.315916 0.766290 0.491986 0.151542
H4    H     H_    0.682398 0.237644 0.503612 0.157036
H5    H     H_    0.068681 0.847175 0.491173 0.161425
H6    H     H_    0.931927 0.148611 0.525581 0.161854
H7    H     H_    0.462249 0.789931 0.524883 0.146488
H8    H     H_    0.542126 0.196836 0.524358 0.144543
H9    H     H_    0.536564 0.682757 0.388525 0.191373
H10   H     H_    0.461454 0.313711 0.610579 0.193190
H11   H     H_    0.288992 0.560218 0.483653 0.151596
H12   H     H_    0.711227 0.439089 0.516073 0.151339
H13   H     H_    0.131476 0.314963 0.585075 0.150205
H14   H     H_    0.868060 0.685142 0.414870 0.151068
H15   H     H_    0.875745 0.560193 0.717499 0.144758
H16   H     H_    0.123619 0.439119 0.282472 0.145336
H17   H     H_    0.886347 0.559648 0.326447 0.171231
H18   H     H_    0.114222 0.441183 0.673548 0.171375
H19   H     H_    0.851163 0.251854 0.134377 0.195503
H20   H     H_    0.148750 0.748309 0.865584 0.195464
H21   H     H_    0.785296 0.287632 0.970043 0.167237
H22   H     H_    0.214649 0.712515 0.029925 0.167229
H23   H     H_    0.637698 0.834669 0.532755 0.162925
H24   H     H_    0.366278 0.152523 0.515110 0.169054
N1    N     N_R   0.988172 0.502612 0.796592 -0.468403
N2    N     N_R   0.011766 0.497527 0.203378 -0.468441
N3    N     N_R   0.795430 0.560780 0.467350 -0.197396
N4    N     N_R   0.204570 0.439220 0.532650 -0.196888
O1    O     O_R   0.977900 0.338120 0.517190 -0.589434
O2    O     O_R   0.022100 0.661880 0.482810 -0.589042
O3    O     O_R   0.839850 0.379180 0.495160 -0.587292
O4    O     O_R   0.160150 0.620820 0.504840 -0.586147
O5    O     O_R   0.069030 0.479490 0.580750 -0.580745
O6    O     O_R   0.930970 0.520510 0.419250 -0.579970
O7    O     O_R   0.930970 0.520550 0.558720 -0.584247
O8    O     O_R   0.069030 0.479450 0.441280 -0.583328
O9    O     O_2   0.859397 0.340095 0.798550 -0.540039
O10   O     O_2   0.140574 0.660024 0.201428 -0.540028
O11   O     O_2   0.886402 0.331717 0.209448 -0.528594
O12   O     O_2   0.113495 0.668444 0.790511 -0.529007
C75   C     C_3   0.830513 0.945757 0.534938 -0.868485
H25   H     H_    0.914321 0.980874 0.536578 0.236897
H26   H     H_    0.812604 0.893961 0.570481 0.235528
H27   H     H_    0.799091 0.901095 0.503360 0.244454
C76   C     C_3   0.172121 0.044927 0.500981 -0.863955
H28   H     H_    0.087901 0.010847 0.495560 0.234670
H29   H     H_    0.197932 0.073577 0.537447 0.256196
H30   H     H_    0.196608 0.109587 0.470526 0.234593
I1    I     I_    0.733146 0.798455 0.360904 -0.398982
I2    I     I_    0.264919 0.199665 0.638475 -0.420215
C77   C     C_3   0.354115 0.561762 0.407131 -0.875860
H31   H     H_    0.363998 0.561811 0.368537 0.245347
H32   H     H_    0.290183 0.488917 0.416417 0.231276
H33   H     H_    0.335162 0.627959 0.406663 0.233288
C78   C     C_3   0.644180 0.434177 0.592351 -0.877883
H34   H     H_    0.633957 0.432704 0.631080 0.246555
H35   H     H_    0.663063 0.368211 0.592218 0.231131
H36   H     H_    0.708237 0.507293 0.583630 0.231278
C79   C     C_3   0.753772 0.254745 0.877373 -0.739541
H37   H     H_    0.700132 0.205486 0.904185 0.199329
H38   H     H_    0.709990 0.285896 0.845279 0.253682
H39   H     H_    0.782257 0.205149 0.865367 0.262625
C80   C     C_3   0.246206 0.745376 0.122602 -0.739372
H40   H     H_    0.299861 0.794627 0.095792 0.199310
H41   H     H_    0.217750 0.794992 0.134614 0.262620
H42   H     H_    0.289975 0.714192 0.154693 0.253705
C81   C     C_3   0.869602 0.570707 0.227680 -0.810538
H43   H     H_    0.885637 0.650572 0.230806 0.236965
H44   H     H_    0.877639 0.568497 0.189197 0.233875
H45   H     H_    0.789911 0.522563 0.233657 0.237488
C82   C     C_3   0.131010 0.430279 0.772305 -0.810524
H46   H     H_    0.115405 0.350509 0.769205 0.236992
H47   H     H_    0.210620 0.478775 0.766307 0.237486
H48   H     H_    0.122875 0.432391 0.810786 0.233871
C83   C     C_3   0.863124 0.211471 0.049057 -0.875889
H49   H     H_    0.890317 0.163651 0.080816 0.242219
H50   H     H_    0.779181 0.174182 0.041895 0.231488
H51   H     H_    0.897764 0.212447 0.017076 0.246780
C84   C     C_3   0.136838 0.788700 0.950912 -0.875924
H52   H     H_    0.109671 0.836546 0.919154 0.242155
H53   H     H_    0.102198 0.787732 0.982892 0.246778
H54   H     H_    0.220787 0.825962 0.958080 0.231498

loop_
_geom_bond_atom_site_label_1
_geom_bond_atom_site_label_2
_ccdc_geom_bond_type
C79   H39   S    
C66   C68   A    
C50   N4    A    
C20   C84   S    
C70   H2    S    
C8    C26   A    
C14   C18   A    
C69   H1    S    
C82   H46   S    
C24   O8    A    
C48   C56   A    
C49   H14   S    
C63   N1    A    
C78   H36   S    
C79   H37   S    
C47   C49   A    
C27   C33   A    
C64   N2    A    
C32   H5    S    
C12   C68   A    
Cu1   O8    S    
C31   H6    S    
C8    C80   S    
C82   H47   S    
C43   H23   S    
C75   H26   S    
C72   H16   S    
C80   H42   S    
C9    C22   A    
C84   H53   S    
C59   C77   S    
C81   H43   S    
C41   H7    S    
C81   H44   S    
C65   C73   A    
C30   C38   A    
C3    C18   A    
C60   C62   A    
C83   H51   S    
C11   C23   S    
C69   C71   A    
C76   H30   S    
C52   C54   A    
C65   C67   A    
C67   H18   S    
C19   C83   S    
C83   H49   S    
C65   C82   S    
C74   N2    S    
Cu2   N3    S    
C48   C50   A    
C28   C34   A    
Cu1   O4    S    
C64   O11   S    
C84   H54   S    
C41   C43   A    
C42   C44   A    
C60   C78   S    
C11   C67   A    
C47   I1    S    
C39   C42   A    
C53   C55   A    
C10   C21   A    
C23   O5    A    
C54   C56   A    
C59   C61   A    
Cu1   O5    S    
C46   O10   S    
C27   C31   A    
C14   C20   A    
C28   C32   A    
C82   H48   S    
C24   O6    A    
C4    C6    A    
C81   H45   S    
C39   C40   A    
C5    C7    A    
C53   C57   A    
C15   C26   A    
C6    C8    A    
C66   C81   S    
C21   H19   S    
C3    C5    A    
C58   C59   A    
C5    C45   A    
C2    O2    A    
C51   C53   A    
C37   C43   A    
C35   C39   A    
Cu1   Cu2   S    
C77   H32   S    
C38   C44   A    
C3    C9    A    
C34   H3    S    
C62   H10   S    
C50   H13   S    
C30   C76   S    
C36   C40   A    
C42   H8    S    
C80   H41   S    
C76   H28   S    
C45   N1    A    
C26   H22   S    
C4    C17   A    
C72   C74   A    
C40   C41   A    
C1    O3    A    
Cu1   O1    S    
Cu2   O3    S    
Cu1   N4    S    
C29   C37   A    
C56   C62   A    
C75   H27   S    
C63   O12   S    
C4    C10   A    
C77   H31   S    
C35   C37   A    
C47   C55   A    
C54   C58   A    
C25   H21   S    
C16   C25   A    
C79   H38   S    
C12   C70   A    
C52   N4    A    
Cu2   O2    S    
C73   N1    S    
C6    C46   A    
C19   C21   A    
C9    C63   A    
C22   H20   S    
C52   H11   S    
C10   C64   A    
C20   C22   A    
C78   H35   S    
C51   H12   S    
C49   N3    A    
C70   C72   A    
C80   H40   S    
C11   C69   A    
C33   H4    S    
C15   C17   A    
C23   O7    A    
C12   C24   S    
C68   H17   S    
C7    C25   A    
Cu2   O6    S    
C13   C17   A    
C36   C38   A    
C61   H9    S    
C77   H33   S    
C29   C31   A    
C75   H25   S    
C30   C32   A    
C44   H24   S    
C57   C58   A    
C29   C75   S    
Cu2   O7    S    
C55   C61   A    
C2    O4    A    
C33   C35   A    
C34   C36   A    
C83   H50   S    
C76   H29   S    
C7    C79   S    
C48   I2    S    
C45   O9    S    
C57   C60   A    
C71   H15   S    
C16   C18   A    
C13   C16   A    
C71   C73   A    
C84   H52   S    
C1    C27   S    
C13   C19   A    
C14   C15   A    
C2    C28   S    
C51   N3    A    
C78   H34   S    
C1    O1    A    
C46   N2    A    
C66   C74   A    
