data_mof_unit_38187.cif
_audit_creation_date              2012-12-11T15:34:11-0500
_audit_creation_method            fapswitch 2.2
_symmetry_space_group_name_H-M    P1
_symmetry_Int_Tables_number       1
_space_group_crystal_system       triclinic
_cell_length_a                    15.035737
_cell_length_b                    15.046897
_cell_length_c                    34.918267
_cell_angle_alpha                 90.91742
_cell_angle_beta                  90.110763
_cell_angle_gamma                 60.115039
_cell_volume                      6848.43000005

loop_
_atom_site_label
_atom_site_type_symbol
_atom_type_description
_atom_site_fract_x
_atom_site_fract_y
_atom_site_fract_z
_atom_type_partial_charge
C1    C     C_R   0.301935 0.608611 0.555702 0.570135
C2    C     C_R   0.644083 0.650637 0.672119 0.020588
C3    C     C_R   0.250587 0.657722 0.268728 0.206463
C4    C     C_R   0.175328 0.652801 0.291589 0.018107
C5    C     C_R   0.094898 0.644509 0.274356 0.196883
C6    C     C_R   0.089656 0.640927 0.233870 0.244138
C7    C     C_R   0.161932 0.651055 0.211629 -0.021344
C8    C     C_R   0.215327 0.559468 0.351632 -0.083167
C9    C     C_R   0.245683 0.547605 0.389608 -0.132240
C10   C     C_R   0.198328 0.726676 0.393673 -0.133936
C11   C     C_R   0.167517 0.740296 0.355175 -0.006483
C12   C     C_R   0.181313 0.653361 0.333657 0.063027
C13   C     C_R   0.549565 0.705808 0.653769 -0.128926
C14   C     C_R   0.242660 0.629711 0.410242 0.005325
C15   C     C_R   0.735861 0.025906 0.943492 0.545006
C16   C     C_R   0.745398 0.722244 0.945336 0.544440
C17   C     C_R   0.039127 0.733259 0.948325 0.534081
C18   C     C_R   0.723039 0.038884 0.053090 0.535398
C19   C     C_R   0.733691 0.735154 0.054901 0.542060
C20   C     C_R   0.027386 0.745210 0.057903 0.544373
C21   C     C_R   0.541821 0.692131 0.614722 -0.146172
C22   C     C_R   0.659257 0.659538 0.791617 0.351518
C23   C     C_R   0.649899 0.654798 0.714122 0.344908
C24   C     C_R   0.750382 0.588049 0.852984 -0.119605
C25   C     C_R   0.770513 0.602932 0.890780 -0.134916
C26   C     C_R   0.623737 0.774729 0.890678 -0.132042
C27   C     C_R   0.602988 0.759555 0.853007 -0.123012
C28   C     C_R   0.668956 0.667826 0.833284 0.036438
C29   C     C_R   0.610787 0.588956 0.555244 0.533337
C30   C     C_R   0.710428 0.698156 0.909283 0.022002
C31   C     C_R   0.722079 0.076883 0.906514 -0.009879
C32   C     C_R   0.628624 0.115616 0.887061 -0.142284
C33   C     C_R   0.621570 0.144436 0.849020 -0.178532
C34   C     C_R   0.707492 0.135501 0.829881 0.046469
C35   C     C_R   0.800154 0.102434 0.849520 0.246443
C36   C     C_R   0.806556 0.073996 0.888033 -0.126998
C37   C     C_R   0.706862 0.232764 0.771207 0.296267
C38   C     C_R   0.701763 0.240709 0.731339 -0.045084
C39   C     C_R   0.691327 0.169063 0.708266 -0.019261
C40   C     C_R   0.590697 0.299795 0.553481 0.531217
C41   C     C_R   0.688322 0.087146 0.725439 -0.115144
C42   C     C_R   0.693884 0.077846 0.765044 -0.133307
C43   C     C_R   0.702481 0.150126 0.788249 0.058392
C44   C     C_R   0.599004 0.174658 0.648087 -0.117846
C45   C     C_R   0.574651 0.202646 0.609730 -0.015790
C46   C     C_R   0.711993 0.243994 0.607771 -0.139126
C47   C     C_R   0.735536 0.215258 0.645715 -0.120302
C48   C     C_R   0.676761 0.184236 0.666590 0.020945
C49   C     C_R   0.628486 0.243175 0.589749 0.008521
C50   C     C_R   0.093971 0.695919 0.911005 0.007912
C51   C     C_R   0.299411 0.610233 0.446305 0.549200
C52   C     C_R   0.108009 0.766051 0.889282 -0.134080
C53   C     C_R   0.127790 0.750436 0.850211 -0.122427
C54   C     C_R   0.135391 0.663728 0.831768 0.017863
C55   C     C_R   0.133906 0.587228 0.853717 -0.111538
C56   C     C_R   0.114249 0.601523 0.893405 -0.016240
C57   C     C_R   0.206763 0.565761 0.770174 -0.125382
C58   C     C_R   0.212382 0.562625 0.730271 -0.139447
C59   C     C_R   0.149567 0.650404 0.708990 0.020086
C60   C     C_R   0.076003 0.741210 0.728244 0.257493
C61   C     C_R   0.072225 0.743545 0.768211 -0.040992
C62   C     C_R   0.609377 0.590419 0.445676 0.540470
C63   C     C_R   0.138563 0.657051 0.789476 -0.019034
C64   C     C_R   0.202547 0.716679 0.654207 -0.134313
C65   C     C_R   0.238240 0.707104 0.616819 -0.177755
C66   C     C_R   0.207838 0.564541 0.605000 0.239101
C67   C     C_R   0.172681 0.574511 0.643063 -0.120728
C68   C     C_R   0.172135 0.648903 0.667843 -0.019053
C69   C     C_R   0.244912 0.629020 0.592266 0.062125
C70   C     C_R   0.694650 0.723153 0.091930 0.022442
C71   C     C_R   0.617783 0.809793 0.111581 -0.128394
C72   C     C_R   0.597485 0.803832 0.150109 -0.119983
C73   C     C_R   0.588492 0.300931 0.444209 0.540614
C74   C     C_R   0.652768 0.710979 0.169376 0.040382
C75   C     C_R   0.724290 0.622844 0.149037 -0.107038
C76   C     C_R   0.745194 0.628889 0.110642 -0.120404
C77   C     C_R   0.636771 0.624529 0.226938 -0.106698
C78   C     C_R   0.635588 0.614732 0.266786 0.254394
C79   C     C_R   0.639252 0.688844 0.290879 0.055713
C80   C     C_R   0.643140 0.771836 0.275059 -0.155941
C81   C     C_R   0.644046 0.781011 0.235418 -0.125560
C82   C     C_R   0.641929 0.706808 0.211123 -0.003664
C83   C     C_R   0.557885 0.747192 0.356490 -0.007090
C84   C     C_R   0.628442 0.623053 0.593020 0.009565
C85   C     C_R   0.554318 0.721261 0.394654 -0.143507
C86   C     C_R   0.719384 0.564775 0.386576 -0.017834
C87   C     C_R   0.721463 0.590569 0.348477 -0.078147
C88   C     C_R   0.639731 0.677704 0.332748 0.050837
C89   C     C_R   0.631000 0.627424 0.409503 -0.006306
C90   C     C_R   0.702021 0.097380 0.089691 0.003772
C91   C     C_R   0.786908 0.087648 0.110366 -0.143022
C92   C     C_R   0.777478 0.115581 0.148870 -0.130905
C93   C     C_R   0.682736 0.155606 0.167401 0.067272
C94   C     C_R   0.595681 0.174946 0.146451 -0.078043
C95   C     C_R   0.726180 0.575328 0.610632 -0.019896
C96   C     C_R   0.603605 0.147179 0.107549 -0.026769
C97   C     C_R   0.607247 0.259527 0.227575 0.230063
C98   C     C_R   0.602593 0.265001 0.268246 0.246522
C99   C     C_R   0.663493 0.175627 0.289197 0.033565
C100  C     C_R   0.729492 0.083123 0.270633 -0.199772
C101  C     C_R   0.737437 0.078760 0.230996 -0.192818
C102  C     C_R   0.676979 0.166208 0.209348 0.035282
C103  C     C_R   0.731231 0.196409 0.351303 -0.098038
C104  C     C_R   0.713075 0.226977 0.389761 -0.126640
C105  C     C_R   0.557298 0.216311 0.388213 -0.124374
C106  C     C_R   0.732450 0.588612 0.650207 -0.122220
C107  C     C_R   0.575282 0.186187 0.349869 -0.085628
C108  C     C_R   0.659701 0.180683 0.330981 0.078883
C109  C     C_R   0.622967 0.242691 0.407850 0.022725
C110  C     C_R   0.082259 0.711159 0.094319 0.010492
C111  C     C_R   0.112604 0.612957 0.107995 -0.126963
C112  C     C_R   0.147699 0.586849 0.145674 0.046321
C113  C     C_R   0.149837 0.662309 0.169859 0.062427
C114  C     C_R   0.127459 0.757026 0.154974 -0.135961
C115  C     C_R   0.094435 0.781158 0.117522 -0.131613
C116  C     C_R   0.241158 0.659359 0.229119 -0.133349
Cr1   Cr    Cr6+3 0.421670 0.426920 0.499620 1.060489
Cr2   Cr    Cr6+3 0.427030 0.651190 0.500980 1.004449
Cr3   Cr    Cr6+3 0.651280 0.421870 0.499380 1.029916
Cr4   Cr    Cr6+3 0.910810 0.908010 0.001130 1.006355
Cr5   Cr    Cr6+3 0.682800 0.909890 0.998370 1.021222
Cr6   Cr    Cr6+3 0.908370 0.682300 0.002180 1.027583
H1    H     H_    0.879177 0.044002 0.902732 0.112622
H2    H     H_    0.797482 0.220958 0.659212 0.117890
H3    H     H_    0.702262 0.305500 0.718454 0.140809
H4    H     H_    0.550118 0.169731 0.833912 0.116760
H5    H     H_    0.681342 0.030457 0.708209 0.129860
H6    H     H_    0.691352 0.013893 0.777757 0.128068
H7    H     H_    0.554398 0.148876 0.663957 0.103687
H8    H     H_    0.466105 0.730699 0.602149 0.135004
H9    H     H_    0.755853 0.272967 0.593346 0.138831
H10   H     H_    0.095826 0.837646 0.901777 0.133043
H11   H     H_    0.148067 0.522876 0.653684 0.096291
H12   H     H_    0.269452 0.492814 0.716014 0.118129
H13   H     H_    0.258519 0.498107 0.785965 0.118519
H14   H     H_    0.132483 0.808800 0.834014 0.121711
H15   H     H_    0.016540 0.813593 0.782751 0.151888
H16   H     H_    0.203267 0.774075 0.673140 0.150153
H17   H     H_    0.836297 0.541797 0.904775 0.131230
H18   H     H_    0.266003 0.757589 0.607867 0.131993
H19   H     H_    0.143997 0.518064 0.839649 0.105572
H20   H     H_    0.577770 0.883674 0.097952 0.134078
H21   H     H_    0.804860 0.561004 0.096237 0.123930
H22   H     H_    0.786458 0.540388 0.330339 0.130980
H23   H     H_    0.634112 0.567759 0.208225 0.107778
H24   H     H_    0.541072 0.872407 0.165190 0.101237
H25   H     H_    0.646602 0.828703 0.293440 0.123505
H26   H     H_    0.806702 0.550106 0.663954 0.131788
H27   H     H_    0.649645 0.844310 0.223732 0.123004
H28   H     H_    0.488078 0.772138 0.412057 0.128498
H29   H     H_    0.768324 0.550464 0.163390 0.108564
H30   H     H_    0.862930 0.051073 0.097672 0.134195
H31   H     H_    0.519864 0.173849 0.334273 0.108392
H32   H     H_    0.480302 0.755487 0.669883 0.137314
H33   H     H_    0.845265 0.101149 0.164742 0.107912
H34   H     H_    0.775144 0.014452 0.286947 0.121994
H35   H     H_    0.789164 0.006144 0.217020 0.132978
H36   H     H_    0.796944 0.191994 0.336757 0.105302
H37   H     H_    0.765584 0.244892 0.404553 0.132564
H38   H     H_    0.522076 0.207839 0.160886 0.130034
H39   H     H_    0.487860 0.226222 0.401531 0.121159
H40   H     H_    0.107071 0.557376 0.089515 0.111791
H41   H     H_    0.072117 0.857288 0.107630 0.128314
H42   H     H_    0.801319 0.515708 0.838717 0.143807
H43   H     H_    0.296860 0.666347 0.211672 0.149479
H44   H     H_    0.225389 0.493069 0.335369 0.137387
H45   H     H_    0.278604 0.472051 0.401825 0.133851
H46   H     H_    0.129366 0.815067 0.173184 0.108993
H47   H     H_    0.191459 0.790890 0.410517 0.123983
H48   H     H_    0.575248 0.848625 0.904376 0.130233
H49   H     H_    0.538970 0.822096 0.838689 0.133930
H50   H     H_    0.562303 0.118858 0.900607 0.139080
N1    N     N_R   0.738309 0.585467 0.770781 -0.214779
N2    N     N_R   0.733628 0.582997 0.732784 -0.225355
N3    N     N_R   0.570361 0.728255 0.734962 -0.233770
N4    N     N_R   0.575224 0.730966 0.772962 -0.235122
O1    O     O_R   0.502070 0.323090 0.541280 -0.489907
O2    O     O_R   0.520720 0.641670 0.461580 -0.503220
O3    O     O_R   0.674120 0.502090 0.457500 -0.499769
O4    O     O_R   0.640110 0.338380 0.459630 -0.496773
O5    O     O_3   0.499990 0.499990 0.499990 -0.245505
O6    O     O_R   0.017640 0.822070 0.960410 -0.523909
O7    O     O_R   0.822000 0.989470 0.960340 -0.503215
O8    O     O_R   0.666920 0.007430 0.955290 -0.518068
O9    O     O_R   0.694410 0.812480 0.959650 -0.503324
O10   O     O_R   0.831550 0.656950 0.958960 -0.509219
O11   O     O_R   0.998590 0.685540 0.963930 -0.484275
O12   O     O_R   0.338340 0.520690 0.539540 -0.432067
O13   O     O_R   0.008220 0.831200 0.045060 -0.523010
O14   O     O_R   0.813270 0.997930 0.038810 -0.505657
O15   O     O_R   0.657500 0.016560 0.039940 -0.503388
O16   O     O_R   0.685680 0.820940 0.038120 -0.501969
O17   O     O_R   0.822130 0.666070 0.043610 -0.517949
O18   O     O_R   0.989860 0.694000 0.042400 -0.500445
O19   O     O_3   0.833990 0.833400 0.000560 -0.236801
O20   O     O_R   0.324760 0.674070 0.543580 -0.541174
O21   O     O_R   0.522400 0.640310 0.540110 -0.510011
O22   O     O_R   0.675940 0.500630 0.542210 -0.502224
O23   O     O_R   0.641790 0.337020 0.538150 -0.508336
O24   O     O_R   0.500260 0.324550 0.456580 -0.525793
O25   O     O_R   0.336660 0.522040 0.461020 -0.500325
O26   O     O_R   0.322940 0.675540 0.458880 -0.519235
C117  C     C_R   0.822902 0.513630 0.588695 0.054239
C118  C     C_R   0.845424 0.556001 0.557128 -0.067820
C119  C     C_R   0.939454 0.500602 0.537934 -0.101613
C120  C     C_R   0.011380 0.402369 0.549892 -0.107544
C121  C     C_R   0.989286 0.359277 0.581035 -0.123220
C122  C     C_R   0.895598 0.414655 0.600486 -0.091707
H51   H     H_    0.790989 0.632560 0.547853 0.094033
H52   H     H_    0.956787 0.534158 0.513924 0.105766
H53   H     H_    0.084298 0.359713 0.535081 0.110840
H54   H     H_    0.045053 0.283197 0.590260 0.101729
H55   H     H_    0.879775 0.380552 0.624738 0.102757
O27   O     O_3   0.713413 0.308255 0.791953 -0.677369
H56   H     H_    0.707723 0.299187 0.819650 0.336875
C123  C     C_R   0.491570 0.190450 0.592027 0.056684
C124  C     C_R   0.511154 0.128847 0.558945 -0.065115
C125  C     C_R   0.432686 0.117446 0.542276 -0.106830
C126  C     C_R   0.334521 0.166667 0.558640 -0.102165
C127  C     C_R   0.314704 0.227179 0.591760 -0.097218
C128  C     C_R   0.392806 0.239144 0.608455 -0.065360
H57   H     H_    0.586974 0.090093 0.546061 0.096956
H58   H     H_    0.448015 0.070355 0.516685 0.098308
H59   H     H_    0.273851 0.157811 0.545704 0.097204
H60   H     H_    0.238724 0.264991 0.604454 0.094198
H61   H     H_    0.376139 0.286987 0.633939 0.102639
O28   O     O_3   0.884189 0.093496 0.830039 -0.681177
H62   H     H_    0.943121 0.068113 0.847791 0.314014
C129  C     C_R   0.112384 0.518402 0.915181 0.050797
C130  C     C_R   0.056371 0.472450 0.901638 -0.088658
C131  C     C_R   0.052062 0.396671 0.922882 -0.109879
C132  C     C_R   0.102732 0.366753 0.957905 -0.104296
C133  C     C_R   0.159055 0.411474 0.971454 -0.113570
C134  C     C_R   0.165717 0.485392 0.949905 -0.065668
H63   H     H_    0.014494 0.496506 0.875018 0.102529
H64   H     H_    0.008300 0.362089 0.912414 0.104848
H65   H     H_    0.098064 0.309216 0.974607 0.099457
H66   H     H_    0.196684 0.389769 0.998855 0.092661
H67   H     H_    0.210166 0.518902 0.960761 0.093200
O29   O     O_3   0.007454 0.829016 0.709428 -0.699545
H68   H     H_    0.005651 0.812466 0.681994 0.331612
O30   O     O_3   0.208369 0.491618 0.580309 -0.689578
H69   H     H_    0.177041 0.455825 0.593419 0.311954
O31   O     O_3   0.630648 0.533940 0.282818 -0.690847
H70   H     H_    0.633304 0.486985 0.262045 0.327784
C135  C     C_R   0.475342 0.846095 0.341914 0.014217
C136  C     C_R   0.461379 0.938517 0.357867 -0.111375
C137  C     C_R   0.390539 0.032174 0.341979 -0.120626
C138  C     C_R   0.333210 0.034188 0.310120 -0.118105
C139  C     C_R   0.345105 0.942681 0.294573 -0.109062
C140  C     C_R   0.415052 0.848988 0.310621 -0.081178
H71   H     H_    0.507278 0.937863 0.381925 0.102662
H72   H     H_    0.380968 0.103115 0.354092 0.101526
H73   H     H_    0.278872 0.106687 0.297693 0.106909
H74   H     H_    0.299886 0.944370 0.270149 0.124406
H75   H     H_    0.423795 0.778719 0.298181 0.176212
C141  C     C_R   0.810035 0.470095 0.400216 0.060707
C142  C     C_R   0.869448 0.474547 0.430498 -0.056841
C143  C     C_R   0.958285 0.385797 0.441703 -0.102420
C144  C     C_R   0.988472 0.292377 0.422810 -0.104629
C145  C     C_R   0.930270 0.287506 0.392483 -0.131191
C146  C     C_R   0.841614 0.375988 0.381092 -0.096791
H76   H     H_    0.847474 0.546701 0.445100 0.095799
H77   H     H_    0.004448 0.389417 0.464771 0.101033
H78   H     H_    0.057313 0.223898 0.431518 0.104059
H79   H     H_    0.953931 0.215239 0.377728 0.105487
H80   H     H_    0.797527 0.371268 0.357368 0.130353
C147  C     C_R   0.508525 0.168935 0.087041 0.054500
C148  C     C_R   0.441330 0.138974 0.102513 -0.091232
C149  C     C_R   0.352023 0.159289 0.083036 -0.105390
C150  C     C_R   0.329289 0.209115 0.047959 -0.108306
C151  C     C_R   0.395281 0.239770 0.032506 -0.109884
C152  C     C_R   0.483929 0.220866 0.052119 -0.054747
H81   H     H_    0.458595 0.098928 0.129403 0.086397
H82   H     H_    0.300774 0.135797 0.095031 0.101944
H83   H     H_    0.260648 0.223720 0.032755 0.097791
H84   H     H_    0.378162 0.277920 0.005263 0.100849
H85   H     H_    0.534006 0.245627 0.039914 0.099598
O32   O     O_3   0.541624 0.355173 0.288487 -0.693938
H86   H     H_    0.526670 0.414312 0.272351 0.347862
O33   O     O_3   0.546210 0.342527 0.205059 -0.732330
H87   H     H_    0.480695 0.386494 0.218726 0.317226
C153  C     C_R   0.125375 0.844150 0.338269 0.043665
C154  C     C_R   0.166465 0.907419 0.348488 -0.086054
C155  C     C_R   0.122620 0.007318 0.334899 -0.115254
C156  C     C_R   0.040256 0.044075 0.309691 -0.117668
C157  C     C_R   0.000006 0.981774 0.298733 -0.123660
C158  C     C_R   0.040508 0.883374 0.313543 -0.087112
H88   H     H_    0.232328 0.879979 0.367097 0.110309
H89   H     H_    0.152947 0.056145 0.343773 0.115943
H90   H     H_    0.007369 0.120953 0.298764 0.105817
H91   H     H_    0.936684 0.010316 0.279015 0.113763
H92   H     H_    0.004116 0.839092 0.306161 0.135042
O34   O     O_3   0.334058 0.661380 0.283532 -0.702475
H93   H     H_    0.340693 0.646434 0.311175 0.340821
C159  C     C_R   0.180800 0.481569 0.159050 0.060974
C160  C     C_R   0.120878 0.435422 0.151469 -0.073314
C161  C     C_R   0.153222 0.335802 0.163591 -0.115151
C162  C     C_R   0.245304 0.281449 0.183431 -0.107749
C163  C     C_R   0.305329 0.326534 0.191122 -0.110532
C164  C     C_R   0.273733 0.425775 0.178769 -0.084537
H94   H     H_    0.048696 0.476783 0.136514 0.112552
H95   H     H_    0.106705 0.300830 0.157684 0.099557
H96   H     H_    0.270157 0.204399 0.192833 0.099790
H97   H     H_    0.376504 0.284434 0.206578 0.113466
H98   H     H_    0.322046 0.458883 0.184264 0.115344
O35   O     O_3   0.021023 0.644523 0.297873 -0.723189
H99   H     H_    0.955080 0.674789 0.284012 0.329677
O36   O     O_3   0.013966 0.630597 0.215353 -0.706401
H100  H     H_    0.994798 0.588945 0.231371 0.330404

loop_
_geom_bond_atom_site_label_1
_geom_bond_atom_site_label_2
_ccdc_geom_bond_type
C55   C56   A    
Cr5   O16   S    
C114  C115  A    
C39   C41   A    
C64   H16   S    
C136  H71   S    
C44   C45   A    
C156  H90   S    
C35   O28   S    
C154  C155  A    
C98   O32   S    
C5    C6    A    
C54   C63   S    
C150  C151  A    
C124  H57   S    
O31   H70   S    
C34   C35   A    
C129  C134  A    
C61   C63   A    
C110  C111  A    
C17   O6    A    
C151  C152  A    
C50   C52   A    
C160  H94   S    
C131  H64   S    
C60   O29   S    
C4    C12   S    
C91   C92   A    
C42   H6    S    
C83   C88   A    
C32   H50   S    
C59   C60   A    
C24   H42   S    
Cr3   O3    S    
Cr6   O18   S    
Cr1   O1    S    
C52   H10   S    
C20   O13   A    
C120  C121  A    
C58   H12   S    
C75   C76   A    
C86   C141  S    
C129  C130  A    
N3    N4    A    
C15   O8    A    
C13   C21   A    
C123  C124  A    
C94   C96   A    
C159  C160  A    
C131  C132  A    
C161  C162  A    
C104  H37   S    
C90   C91   A    
C37   O27   S    
C146  H80   S    
C163  C164  A    
C18   O14   A    
C153  C158  A    
O27   H56   S    
C3    O34   S    
C4    C5    A    
C6    C7    A    
C40   O23   A    
C152  H85   S    
C145  H79   S    
Cr4   O13   S    
C64   C65   A    
C140  H75   S    
O34   H93   S    
C77   C82   A    
C81   H27   S    
C56   C129  S    
C115  H41   S    
C13   H32   S    
C26   H48   S    
C98   C99   A    
C145  C146  A    
C31   C36   A    
C57   H13   S    
Cr4   O6    S    
C44   C48   A    
C132  C133  A    
C163  H97   S    
C96   C147  S    
C62   C89   S    
C122  H55   S    
Cr3   O22   S    
C41   H5    S    
C111  C112  A    
C97   C98   A    
C47   H2    S    
C125  H58   S    
C23   N2    A    
C53   C54   A    
C10   H47   S    
C99   C108  S    
C105  C107  A    
C138  C139  A    
C148  H81   S    
C64   C68   A    
C3    C116  A    
C38   C39   A    
C72   H24   S    
Cr6   O10   S    
C6    O36   S    
C95   C117  S    
C40   C49   S    
C141  C142  A    
C33   H4    S    
C126  H59   S    
C85   H28   S    
C99   C100  A    
C75   H29   S    
C107  C108  A    
C162  H96   S    
C51   O26   A    
C66   C67   A    
N1    N2    A    
Cr2   O26   S    
C127  C128  A    
C57   C63   A    
C135  C140  A    
C150  H83   S    
C29   C84   S    
C10   C14   A    
C62   O3    A    
C137  H72   S    
C124  C125  A    
C2    C106  A    
C50   C56   A    
C84   C95   A    
C7    C116  A    
C95   C106  A    
C97   O33   S    
C31   C32   A    
C8    C12   A    
C107  H31   S    
Cr5   O8    S    
C20   C110  S    
Cr2   O2    S    
C26   C30   A    
C132  H65   S    
C105  H39   S    
C3    C4    A    
C22   N1    A    
C52   C53   A    
C105  C109  A    
C135  C136  A    
C94   H38   S    
C149  H82   S    
C34   C43   S    
C24   C28   A    
C144  C145  A    
Cr1   O12   S    
Cr5   O15   S    
C15   C31   S    
C117  C122  A    
C142  C143  A    
C71   C72   A    
C57   C58   A    
C119  H52   S    
O29   H68   S    
C92   H33   S    
C161  H95   S    
C10   C11   A    
C40   O1    A    
C118  C119  A    
C29   O22   A    
C153  C154  A    
C157  H91   S    
C87   C88   A    
C101  C102  A    
C55   H19   S    
C27   H49   S    
C41   C42   A    
C35   C36   A    
C11   C153  S    
Cr6   O19   S    
C121  C122  A    
C77   C78   A    
C46   C49   A    
C26   C27   A    
C151  H84   S    
Cr3   O23   S    
C25   H17   S    
C16   O9    A    
C91   H30   S    
C23   N3    A    
C73   O24   A    
Cr3   O5    S    
C123  C128  A    
C54   C55   A    
C73   O4    A    
C15   O7    A    
C118  H51   S    
O32   H86   S    
C70   C71   A    
C87   H22   S    
Cr2   O20   S    
C97   C102  A    
C100  H34   S    
C101  H35   S    
C138  H73   S    
C22   C28   S    
C148  C149  A    
C111  H40   S    
C74   C82   S    
C79   C88   S    
C18   O15   A    
Cr4   O19   S    
C67   C68   A    
C112  C159  S    
C36   H1    S    
C72   C74   A    
C143  H77   S    
C126  C127  A    
C85   C89   A    
C86   C87   A    
C44   H7    S    
C119  C120  A    
C128  H61   S    
C1    C69   S    
O35   H99   S    
C60   C61   A    
C18   C90   S    
C37   C43   A    
C133  H66   S    
C155  C156  A    
Cr4   O14   S    
C14   C51   S    
C21   C84   A    
C45   C49   A    
C136  C137  A    
O30   H69   S    
C130  H63   S    
C158  H92   S    
C90   C96   A    
Cr1   O24   S    
C83   C85   A    
C154  H88   S    
C116  H43   S    
C42   C43   A    
Cr6   O17   S    
C137  C138  A    
C113  C114  A    
Cr2   O5    S    
C25   C30   A    
C46   C47   A    
C86   C89   A    
C93   C102  S    
C22   N4    A    
C141  C146  A    
C103  H36   S    
C114  H46   S    
C32   C33   A    
C58   C59   A    
C61   H15   S    
Cr6   O11   S    
C104  C109  A    
C164  H98   S    
C17   O11   A    
C65   C69   A    
C92   C93   A    
C73   C109  S    
C130  C131  A    
C78   O31   S    
C76   H21   S    
C147  C148  A    
C103  C104  A    
C149  C150  A    
C144  H78   S    
C16   C30   S    
C110  C115  A    
Cr5   O19   S    
C51   O25   A    
C39   C48   S    
C117  C118  A    
C93   C94   A    
C160  C161  A    
C142  H76   S    
C9    C14   A    
C81   C82   A    
O36   H100  S    
C37   C38   A    
C67   H11   S    
C156  C157  A    
Cr1   O5    S    
C66   C69   A    
C45   C123  S    
C106  H26   S    
C2    C13   A    
C100  C101  A    
C65   H18   S    
C120  H53   S    
C80   H25   S    
O28   H62   S    
C8    C9    A    
C147  C152  A    
C103  C108  A    
C19   O16   A    
C53   H14   S    
Cr1   O25   S    
C20   O18   A    
C112  C113  A    
C159  C164  A    
C74   C75   A    
C9    H45   S    
C1    O20   A    
C24   C25   A    
C46   H9    S    
C162  C163  A    
C78   C79   A    
C5    O35   S    
C66   O30   S    
O33   H87   S    
C155  H89   S    
C59   C68   S    
C47   C48   A    
C33   C34   A    
C8    H44   S    
C71   H20   S    
C19   O17   A    
C29   O21   A    
C157  C158  A    
C70   C76   A    
C121  H54   S    
C143  C144  A    
C77   H23   S    
C2    C23   S    
C38   H3    S    
C133  C134  A    
C1    O12   A    
C139  H74   S    
C80   C81   A    
C17   C50   S    
C62   O2    A    
C11   C12   A    
C7    C113  S    
C16   O10   A    
C125  C126  A    
C83   C135  S    
C127  H60   S    
C134  H67   S    
Cr4   O7    S    
C21   H8    S    
C139  C140  A    
Cr5   O9    S    
C79   C80   A    
Cr3   O4    S    
C27   C28   A    
C19   C70   S    
Cr2   O21   S    
