data_mof_unit_10346.cif
_audit_creation_date              2012-12-11T15:36:58-0500
_audit_creation_method            fapswitch 2.2
_symmetry_space_group_name_H-M    P1
_symmetry_Int_Tables_number       1
_space_group_crystal_system       triclinic
_cell_length_a                    15.060657
_cell_length_b                    15.06482
_cell_length_c                    34.911195
_cell_angle_alpha                 91.313264
_cell_angle_beta                  91.65514
_cell_angle_gamma                 60.09688
_cell_volume                      6863.16008792

loop_
_atom_site_label
_atom_site_type_symbol
_atom_type_description
_atom_site_fract_x
_atom_site_fract_y
_atom_site_fract_z
_atom_type_partial_charge
C1    C     C_R   0.610552 0.303201 0.443887 0.539961
C2    C     C_R   0.599744 0.095357 0.762806 -0.114291
C3    C     C_R   0.088318 0.768213 0.885237 -0.121269
C4    C     C_R   0.115627 0.756155 0.846968 -0.121439
C5    C     C_R   0.121047 0.674114 0.825314 0.031108
C6    C     C_R   0.106190 0.600131 0.843156 -0.120433
C7    C     C_R   0.079209 0.611946 0.881498 -0.119689
C8    C     C_R   0.198111 0.576827 0.765191 -0.118472
C9    C     C_R   0.207016 0.572980 0.725572 -0.114857
C10   C     C_R   0.151932 0.662351 0.703871 0.030039
C11   C     C_R   0.087724 0.755637 0.722258 -0.117219
C12   C     C_R   0.078547 0.759450 0.761891 -0.115592
C13   C     C_R   0.598689 0.168816 0.788725 0.028146
C14   C     C_R   0.645578 0.754195 0.161733 -0.131029
C15   C     C_R   0.133979 0.670120 0.783641 0.028795
C16   C     C_R   0.190172 0.727802 0.645594 -0.098416
C17   C     C_R   0.224687 0.712714 0.607848 0.096721
C18   C     C_R   0.203667 0.562555 0.603015 -0.144879
C19   C     C_R   0.169585 0.578548 0.640385 -0.134732
C20   C     C_R   0.167307 0.658240 0.662416 0.008980
C21   C     C_R   0.237155 0.625401 0.587025 0.050991
C22   C     C_R   0.673756 0.078332 0.906045 0.024525
C23   C     C_R   0.599681 0.063067 0.886354 -0.125611
C24   C     C_R   0.548149 0.196442 0.640980 -0.119789
C25   C     C_R   0.570680 0.097103 0.848684 -0.120036
C26   C     C_R   0.818195 0.609550 0.158508 -0.089922
C27   C     C_R   0.549990 0.220714 0.602727 -0.123468
C28   C     C_R   0.692280 0.248837 0.617735 -0.123845
C29   C     C_R   0.689389 0.226046 0.655982 -0.121891
C30   C     C_R   0.615185 0.203024 0.668090 0.028568
C31   C     C_R   0.619851 0.250538 0.591042 0.023279
C32   C     C_R   0.046853 0.738447 0.047956 0.589515
C33   C     C_R   0.731144 0.673588 0.179769 0.040431
C34   C     C_R   0.746897 0.746256 0.063846 0.542912
C35   C     C_R   0.751139 0.040511 0.050651 0.541753
C36   C     C_R   0.017119 0.722342 0.939794 0.557716
C37   C     C_R   0.717354 0.730116 0.954852 0.540716
C38   C     C_R   0.821478 0.629383 0.119879 -0.129182
C39   C     C_R   0.721537 0.024256 0.942044 0.545093
C40   C     C_R   0.743053 0.570492 0.237090 0.108055
C41   C     C_R   0.735183 0.565369 0.276825 -0.069153
C42   C     C_R   0.715697 0.649308 0.300648 0.022864
C43   C     C_R   0.706113 0.738152 0.284751 -0.131910
C44   C     C_R   0.614810 0.147463 0.830326 0.031282
C45   C     C_R   0.713673 0.744053 0.245401 -0.146632
C46   C     C_R   0.730825 0.661313 0.221348 0.053049
C47   C     C_R   0.601912 0.724747 0.356073 -0.147593
C48   C     C_R   0.593367 0.609920 0.449355 0.539695
C49   C     C_R   0.571539 0.716395 0.392448 -0.141098
C50   C     C_R   0.731105 0.557160 0.401615 -0.099658
C51   C     C_R   0.762291 0.564791 0.364968 0.106955
C52   C     C_R   0.695097 0.647412 0.341500 0.059265
C53   C     C_R   0.634030 0.630470 0.414884 0.000717
C54   C     C_R   0.103950 0.728851 0.083945 0.013201
C55   C     C_R   0.683523 0.168593 0.851114 -0.116785
C56   C     C_R   0.181035 0.632877 0.097981 0.265144
C57   C     C_R   0.207882 0.623364 0.137036 -0.091457
C58   C     C_R   0.159833 0.707922 0.161916 -0.020858
C59   C     C_R   0.091725 0.804550 0.147032 -0.140649
C60   C     C_R   0.304060 0.591528 0.442482 0.587521
C61   C     C_R   0.064596 0.815049 0.108351 -0.176354
C62   C     C_R   0.273049 0.637192 0.219825 -0.114580
C63   C     C_R   0.286001 0.624181 0.259355 -0.111442
C64   C     C_R   0.200524 0.667024 0.283181 0.032682
C65   C     C_R   0.101818 0.721947 0.266980 -0.111351
C66   C     C_R   0.712600 0.134457 0.888526 -0.119430
C67   C     C_R   0.088892 0.735932 0.227453 -0.108203
C68   C     C_R   0.174478 0.694150 0.203652 0.034251
C69   C     C_R   0.163596 0.622350 0.347236 -0.091908
C70   C     C_R   0.185568 0.605426 0.386651 0.261214
C71   C     C_R   0.307475 0.665970 0.381379 -0.175316
C72   C     C_R   0.605358 0.300906 0.553818 0.540879
C73   C     C_R   0.285425 0.681953 0.342537 -0.141333
C74   C     C_R   0.215656 0.657702 0.324981 -0.025094
C75   C     C_R   0.260982 0.624453 0.403658 0.010517
C76   C     C_R   0.723602 0.099732 0.086752 0.024204
C77   C     C_R   0.594254 0.257282 0.774312 -0.118839
C78   C     C_R   0.797787 0.112152 0.107701 -0.127613
C79   C     C_R   0.781800 0.143227 0.146002 -0.121091
C80   C     C_R   0.690985 0.163558 0.163708 0.027533
C81   C     C_R   0.612905 0.160742 0.141775 -0.102802
C82   C     C_R   0.629207 0.128741 0.103581 -0.101906
C83   C     C_R   0.591660 0.251607 0.222236 -0.116156
C84   C     C_R   0.587271 0.606394 0.559137 0.545221
C85   C     C_R   0.582369 0.258500 0.261974 -0.115888
C86   C     C_R   0.663356 0.189088 0.285715 0.029132
C87   C     C_R   0.753841 0.112972 0.269011 -0.115161
C88   C     C_R   0.597517 0.268947 0.735002 -0.117854
C89   C     C_R   0.763314 0.106500 0.229336 -0.115050
C90   C     C_R   0.682365 0.175771 0.205648 0.027408
C91   C     C_R   0.737889 0.192287 0.350117 -0.115335
C92   C     C_R   0.725858 0.217670 0.388957 -0.117383
C93   C     C_R   0.550795 0.251596 0.384525 -0.124008
C94   C     C_R   0.562914 0.226134 0.345625 -0.119920
C95   C     C_R   0.655323 0.200048 0.327804 0.027408
C96   C     C_R   0.297715 0.589447 0.551765 0.569855
C97   C     C_R   0.630885 0.251691 0.406158 0.018290
C98   C     C_R   0.692291 0.690094 0.919661 0.022785
C99   C     C_R   0.603847 0.193122 0.709307 0.025637
C100  C     C_R   0.766975 0.598074 0.902871 -0.124902
C101  C     C_R   0.754940 0.573818 0.864962 -0.121978
C102  C     C_R   0.668093 0.641099 0.843176 0.031867
C103  C     C_R   0.589251 0.728178 0.861105 -0.118876
C104  C     C_R   0.601075 0.752271 0.899030 -0.123638
C105  C     C_R   0.571923 0.652487 0.781950 -0.119495
C106  C     C_R   0.566466 0.651680 0.741999 -0.118402
C107  C     C_R   0.653654 0.625483 0.720430 0.027100
C108  C     C_R   0.737565 0.713489 0.102187 0.018186
C109  C     C_R   0.747158 0.597004 0.739474 -0.116654
C110  C     C_R   0.601696 0.107775 0.723338 -0.116625
C111  C     C_R   0.752525 0.598445 0.779444 -0.114150
C112  C     C_R   0.664616 0.627552 0.801102 0.028611
C113  C     C_R   0.718683 0.545518 0.656243 -0.122153
C114  C     C_R   0.704139 0.542235 0.616656 -0.127177
C115  C     C_R   0.549203 0.707630 0.620009 -0.116914
C116  C     C_R   0.563466 0.710505 0.659551 -0.121426
C117  C     C_R   0.646326 0.627929 0.678151 0.030384
C118  C     C_R   0.617142 0.621579 0.598352 0.022317
C119  C     C_R   0.066230 0.698225 0.902385 0.030203
C120  C     C_R   0.648491 0.773779 0.123200 -0.121856
Cr1   Cr    Cr6+3 0.426010 0.422500 0.497000 1.065583
Cr2   Cr    Cr6+3 0.651300 0.426310 0.501970 1.016010
Cr3   Cr    Cr6+3 0.422670 0.651170 0.501050 1.038012
Cr4   Cr    Cr6+3 0.905130 0.911420 0.992650 1.021730
Cr5   Cr    Cr6+3 0.911860 0.682710 0.002320 1.062140
Cr6   Cr    Cr6+3 0.682710 0.906840 0.004710 1.021441
H1    H     H_    0.582514 0.838897 0.110368 0.136831
H2    H     H_    0.035135 0.755753 0.284954 0.113514
H3    H     H_    0.891244 0.581832 0.104422 0.150375
H4    H     H_    0.012005 0.778710 0.215392 0.107877
H5    H     H_    0.108490 0.604902 0.333608 0.161368
H6    H     H_    0.055562 0.871122 0.165722 0.118342
H7    H     H_    0.365661 0.681131 0.393565 0.143041
H8    H     H_    0.871131 0.090727 0.095448 0.127923
H9    H     H_    0.570433 0.120530 0.087991 0.135456
H10   H     H_    0.498789 0.230585 0.329154 0.115705
H11   H     H_    0.512568 0.319321 0.274152 0.107463
H12   H     H_    0.496515 0.774136 0.401996 0.136021
H13   H     H_    0.528421 0.305873 0.204458 0.115112
H14   H     H_    0.842352 0.146547 0.162337 0.111788
H15   H     H_    0.816944 0.057916 0.286623 0.106078
H16   H     H_    0.833139 0.045816 0.217094 0.100942
H17   H     H_    0.809879 0.172761 0.337108 0.111433
H18   H     H_    0.789104 0.216686 0.404903 0.135139
H19   H     H_    0.542230 0.176091 0.154867 0.116876
H20   H     H_    0.476762 0.277208 0.396998 0.149997
H21   H     H_    0.837784 0.548058 0.918125 0.125637
H22   H     H_    0.542014 0.823658 0.911119 0.128030
H23   H     H_    0.884951 0.547169 0.172205 0.146960
H24   H     H_    0.507819 0.775864 0.675816 0.103110
H25   H     H_    0.739968 0.497588 0.289026 0.136343
H26   H     H_    0.493948 0.671693 0.727900 0.108950
H27   H     H_    0.503343 0.673845 0.797865 0.105506
H28   H     H_    0.815857 0.504949 0.852111 0.101072
H29   H     H_    0.815278 0.576834 0.723430 0.105722
H30   H     H_    0.824644 0.580718 0.793334 0.104435
H31   H     H_    0.783284 0.480991 0.669983 0.101524
H32   H     H_    0.757736 0.474739 0.600816 0.124994
H33   H     H_    0.521585 0.781842 0.845058 0.101588
H34   H     H_    0.780758 0.491308 0.419001 0.127104
H35   H     H_    0.481512 0.770121 0.606833 0.141611
H36   H     H_    0.080001 0.834807 0.900860 0.126672
H37   H     H_    0.062528 0.556884 0.894023 0.130020
H38   H     H_    0.149736 0.525566 0.652748 0.112744
H39   H     H_    0.258759 0.500573 0.711941 0.110063
H40   H     H_    0.242174 0.507254 0.781453 0.107671
H41   H     H_    0.129030 0.812861 0.833913 0.103294
H42   H     H_    0.044402 0.825228 0.705937 0.104873
H43   H     H_    0.026932 0.831925 0.775490 0.107111
H44   H     H_    0.187067 0.790329 0.662599 0.097509
H45   H     H_    0.005717 0.889436 0.098326 0.136505
H46   H     H_    0.109570 0.536408 0.826932 0.102459
H47   H     H_    0.577534 0.803692 0.177827 0.111685
H48   H     H_    0.209856 0.496638 0.587530 0.143203
H49   H     H_    0.568773 0.019665 0.899172 0.125242
H50   H     H_    0.769564 0.147632 0.903079 0.129239
H51   H     H_    0.742765 0.230031 0.676459 0.106017
H52   H     H_    0.596665 0.336606 0.724621 0.112811
H53   H     H_    0.591290 0.316139 0.793520 0.107963
H54   H     H_    0.516589 0.080903 0.833473 0.102278
H55   H     H_    0.606154 0.048687 0.703889 0.107815
H56   H     H_    0.324879 0.711123 0.325925 0.124274
H57   H     H_    0.604428 0.025810 0.773037 0.106395
H58   H     H_    0.490579 0.178470 0.649803 0.105298
H59   H     H_    0.690789 0.803603 0.302755 0.121590
H60   H     H_    0.493241 0.221444 0.582760 0.124372
H61   H     H_    0.719930 0.206039 0.837734 0.104786
H62   H     H_    0.746691 0.271943 0.609717 0.126769
H63   H     H_    0.704633 0.813995 0.233525 0.115360
H64   H     H_    0.549598 0.788659 0.338340 0.112443
H65   H     H_    0.208717 0.405306 0.048831 0.362684
H66   H     H_    0.969343 0.571162 0.408713 0.365584
H67   H     H_    0.362831 0.580760 0.271419 0.107111
H68   H     H_    0.899999 0.431886 0.371771 0.232410
H69   H     H_    0.903140 0.522358 0.345730 0.269533
H70   H     H_    0.770871 0.423517 0.228873 0.227694
H71   H     H_    0.691532 0.508842 0.196536 0.235678
H72   H     H_    0.246531 0.836954 0.611918 0.208096
H73   H     H_    0.197952 0.822519 0.569975 0.230913
H74   H     H_    0.339895 0.604127 0.201945 0.110192
H75   H     H_    0.261953 0.548789 0.148444 0.148633
N1    N     N_3   0.859818 0.487292 0.350886 -0.636037
N2    N     N_3   0.759055 0.486017 0.212573 -0.632293
N3    N     N_3   0.252040 0.782433 0.591598 -0.597848
O1    O     O_R   0.324990 0.503440 0.453910 -0.444654
O2    O     O_R   0.675430 0.831160 0.051290 -0.517558
O3    O     O_R   0.698870 0.998880 0.039560 -0.500317
O4    O     O_R   0.522030 0.339050 0.458320 -0.503196
O5    O     O_R   0.811290 0.006780 0.950620 -0.516961
O6    O     O_R   0.980960 0.812920 0.953200 -0.503346
O7    O     O_R   0.001480 0.656720 0.955830 -0.507169
O8    O     O_R   0.809240 0.683250 0.968050 -0.504685
O9    O     O_R   0.652500 0.818540 0.967340 -0.518494
O10   O     O_R   0.677620 0.987170 0.961730 -0.499324
O11   O     O_3   0.833240 0.833660 0.999890 -0.252275
O12   O     O_R   0.639980 0.519500 0.542640 -0.504104
O13   O     O_R   0.676180 0.324490 0.458320 -0.517223
O14   O     O_R   0.643570 0.521510 0.464260 -0.502119
O15   O     O_R   0.504630 0.675350 0.460920 -0.521132
O16   O     O_R   0.339850 0.642450 0.459830 -0.517347
O17   O     O_R   0.321120 0.501280 0.538470 -0.514910
O18   O     O_R   0.518440 0.337050 0.536710 -0.502394
O19   O     O_R   0.672300 0.322330 0.542880 -0.518911
O20   O     O_2   0.251179 0.552961 0.028335 -0.277904
O21   O     O_2   0.347574 0.450583 0.084099 -0.295986
O22   O     O_3   0.172609 0.463712 0.066809 -0.518100
O23   O     O_R   0.500750 0.673190 0.545480 -0.501412
O24   O     O_2   0.179154 0.447034 0.416227 -0.276113
O25   O     O_2   0.098171 0.608156 0.452978 -0.279343
O26   O     O_3   0.004306 0.594649 0.391407 -0.556584
O27   O     O_R   0.336260 0.640450 0.538210 -0.465056
O28   O     O_3   0.499990 0.499990 0.500010 -0.255136
O29   O     O_R   0.834210 0.019400 0.034570 -0.520100
O30   O     O_R   0.002210 0.824620 0.031030 -0.514797
O31   O     O_R   0.024400 0.669340 0.039790 -0.440103
O32   O     O_R   0.830490 0.694950 0.045870 -0.500919
S1    S     S_3+6 0.242364 0.522823 0.068202 0.012078
S2    S     S_3+6 0.117219 0.561664 0.413396 0.005432

loop_
_geom_bond_atom_site_label_1
_geom_bond_atom_site_label_2
_ccdc_geom_bond_type
C105  H27   S    
Cr3   O16   S    
C93   C94   A    
Cr2   O13   S    
C101  C102  A    
C24   H58   S    
C18   C21   A    
O21   S1    D    
C41   C42   A    
C104  H22   S    
C102  C112  S    
C111  C112  A    
C24   C27   A    
Cr1   O1    S    
C34   O32   A    
C14   C33   A    
C116  H24   S    
C81   C82   A    
Cr5   O7    S    
C120  H1    S    
C47   C49   A    
H69   N1    S    
C32   O30   A    
C85   C86   A    
C34   O2    A    
C23   H49   S    
C40   C46   A    
C77   H53   S    
C48   O15   A    
C28   C29   A    
C76   C78   A    
C14   H47   S    
C69   C70   A    
C60   O16   A    
C5    C6    A    
C80   C81   A    
C14   C120  A    
C49   C53   A    
C60   O1    A    
Cr3   O23   S    
Cr4   O5    S    
C43   H59   S    
C100  H21   S    
C115  C116  A    
H68   N1    S    
C2    C110  A    
C116  C117  A    
C39   O5    A    
C18   C19   A    
C73   C74   A    
C96   O27   A    
C32   C54   S    
C82   H9    S    
C1    O4    A    
C2    C13   A    
C108  C120  A    
C114  H32   S    
Cr6   O10   S    
C3    H36   S    
C84   O12   A    
C22   C66   A    
Cr3   O28   S    
C19   C20   A    
C77   C88   A    
C10   C20   S    
C8    C9    A    
C65   C67   A    
C94   H10   S    
Cr1   O18   S    
C63   H67   S    
C107  C117  S    
C35   O29   A    
C55   H61   S    
C9    C10   A    
C51   N1    S    
C16   C20   A    
C19   H38   S    
Cr4   O30   S    
C79   H14   S    
C10   C11   A    
Cr1   O28   S    
C29   H51   S    
C49   H12   S    
C80   C90   S    
C33   C46   S    
C107  C109  A    
C66   H50   S    
C102  C103  A    
C92   H18   S    
C25   C44   A    
C37   O9    A    
C37   C98   S    
Cr5   O8    S    
C92   C97   A    
C6    C7    A    
C91   H17   S    
C26   H23   S    
C48   C53   S    
C35   C76   S    
C13   C77   A    
C59   H6    S    
C25   H54   S    
C50   C53   A    
C59   C61   A    
C12   H43   S    
C27   C31   A    
C67   C68   A    
C38   H3    S    
C7    C119  A    
C56   S1    S    
C93   H20   S    
C106  H26   S    
C110  H55   S    
Cr6   O11   S    
C76   C82   A    
C91   C92   A    
C71   C73   A    
C86   C87   A    
C26   C38   A    
C48   O14   A    
C50   H34   S    
C58   C59   A    
C45   C46   A    
C72   O19   A    
C7    H37   S    
C30   C99   S    
C17   C21   A    
C51   C52   A    
C27   H60   S    
C115  H35   S    
C17   N3    S    
H66   O26   S    
C65   H2    S    
C37   O8    A    
O24   S2    D    
C29   C30   A    
Cr5   O31   S    
Cr6   O9    S    
C78   H8    S    
C26   C33   A    
C40   N2    S    
Cr6   O3    S    
C69   H5    S    
C115  C118  A    
C72   O18   A    
C62   C63   A    
C50   C51   A    
C69   C74   A    
C106  C107  A    
C87   H15   S    
H70   N2    S    
C43   C45   A    
C114  C118  A    
C8    H40   S    
C61   H45   S    
Cr4   O29   S    
C18   H48   S    
C45   H63   S    
C40   C41   A    
C83   C85   A    
C105  C112  A    
C8    C15   A    
C81   H19   S    
Cr2   O19   S    
C87   C89   A    
C83   H13   S    
H72   N3    S    
H73   N3    S    
C113  C117  A    
O26   S2    S    
C67   H4    S    
C56   C57   A    
C1    C97   S    
C3    C4    A    
C16   C17   A    
C93   C97   A    
C70   C75   A    
C55   C66   A    
C113  C114  A    
C111  H30   S    
C85   H11   S    
C58   C68   S    
C83   C90   A    
Cr3   O15   S    
C31   C72   S    
Cr1   O17   S    
Cr2   O14   S    
C39   O10   A    
C78   C79   A    
C28   C31   A    
C4    C5    A    
C54   C61   A    
C71   H7    S    
C3    C119  A    
C54   C56   A    
C88   H52   S    
C47   C52   A    
C41   H25   S    
C21   C96   S    
C36   C119  S    
Cr2   O28   S    
C105  C106  A    
C60   C75   S    
C98   C100  A    
O20   S1    D    
C4    H41   S    
C62   C68   A    
Cr5   O11   S    
C34   C108  S    
C64   C65   A    
C47   H64   S    
C9    H39   S    
C12   C15   A    
C89   C90   A    
C62   H74   S    
Cr5   O32   S    
C71   C75   A    
C73   H56   S    
C99   C110  A    
C44   C55   A    
C103  H33   S    
C57   C58   A    
C11   H42   S    
Cr4   O6    S    
C101  H28   S    
Cr6   O2    S    
C98   C104  A    
C22   C39   S    
C109  C111  A    
C63   C64   A    
C100  C101  A    
C28   H62   S    
Cr2   O12   S    
H71   N2    S    
C2    H57   S    
C23   C25   A    
C38   C108  A    
C94   C95   A    
C109  H29   S    
C24   C30   A    
C5    C15   S    
C88   C99   A    
C86   C95   S    
C36   O7    A    
C91   C95   A    
C79   C80   A    
C16   H44   S    
C35   O3    A    
Cr3   O27   S    
C84   C118  S    
C96   O17   A    
C42   C43   A    
C57   H75   S    
C103  C104  A    
O22   S1    S    
C64   C74   S    
C22   C23   A    
C6    H46   S    
C1    O13   A    
H65   O22   S    
C70   S2    S    
Cr1   O4    S    
C113  H31   S    
O25   S2    D    
C84   O23   A    
Cr4   O11   S    
C13   C44   S    
C89   H16   S    
C11   C12   A    
C42   C52   S    
C32   O31   A    
C36   O6    A    
