data_mof_unit_24914.cif
_audit_creation_date              2012-12-10T19:03:04-0500
_audit_creation_method            fapswitch 2.2
_symmetry_space_group_name_H-M    P1
_symmetry_Int_Tables_number       1
_space_group_crystal_system       triclinic
_cell_length_a                    10.775666
_cell_length_b                    10.807366
_cell_length_c                    9.534304
_cell_angle_alpha                 90.130438
_cell_angle_beta                  90.303592
_cell_angle_gamma                 90.336647
_cell_volume                      1110.2945975

loop_
_atom_site_label
_atom_site_type_symbol
_atom_type_description
_atom_site_fract_x
_atom_site_fract_y
_atom_site_fract_z
_atom_type_partial_charge
C1    C     C_R   0.507053 0.262524 0.499641 0.806864
C2    C     C_3   0.877345 0.498702 0.500903 0.095637
C3    C     C_3   0.926780 0.615940 0.425546 -0.505007
C4    C     C_3   0.924458 0.382147 0.420281 -0.051590
C5    C     C_R   0.487539 0.063687 0.619664 0.132207
C6    C     C_R   0.522951 0.129248 0.500093 -0.164572
C7    C     C_R   0.575718 0.062694 0.386054 -0.013119
C8    C     C_R   0.568959 0.932665 0.387372 -0.199245
C9    C     C_R   0.516748 0.870251 0.501894 -0.131691
C10   C     C_R   0.487336 0.936873 0.621798 0.082896
C11   C     C_3   0.375596 0.929574 0.713352 -0.443600
C12   C     C_R   0.259794 0.498341 0.499819 0.833337
C13   C     C_3   0.374482 0.070481 0.710511 -0.049992
C14   C     C_R   0.559716 0.591767 0.074388 0.278100
C15   C     C_R   0.430846 0.416935 0.073848 -0.060731
C16   C     C_R   0.430756 0.416999 0.924853 -0.067627
C17   C     C_R   0.559829 0.591658 0.926882 0.268363
C18   C     C_3   0.694963 0.621254 0.922590 -0.512768
C19   C     C_3   0.694641 0.622158 0.081513 -0.521005
C20   C     C_R   0.502721 0.737531 0.500232 0.801180
C21   C     C_R   0.739891 0.500518 0.500432 0.827056
C22   C     C_3   0.071491 0.498688 0.654572 -0.077175
C23   C     C_3   0.928568 0.500693 0.653741 -0.439969
C24   C     C_3   0.070849 0.618125 0.428785 -0.027113
C25   C     C_3   0.069231 0.377242 0.425771 -0.033389
C26   C     C_3   0.121515 0.496932 0.499430 0.112951
Cu1   Cu    Cu3+1 0.499990 0.499980 0.640670 0.942577
Cu2   Cu    Cu3+1 0.500010 0.500020 0.359330 0.955680
H1    H     H_    0.104425 0.586245 0.705151 0.152428
H2    H     H_    0.892743 0.391271 0.309439 0.152494
H3    H     H_    0.890406 0.618969 0.316391 0.174734
H4    H     H_    0.603424 0.880075 0.298985 0.187630
H5    H     H_    0.295033 0.884519 0.659977 0.193936
H6    H     H_    0.398335 0.891548 0.818561 0.179309
H7    H     H_    0.391530 0.115060 0.814231 0.148554
H8    H     H_    0.376860 0.348182 0.129292 0.157970
H9    H     H_    0.376510 0.348485 0.868423 0.147207
H10   H     H_    0.750223 0.543875 0.879461 0.210827
H11   H     H_    0.713832 0.713574 0.875904 0.200651
H12   H     H_    0.750897 0.546192 0.127043 0.206639
H13   H     H_    0.712378 0.715287 0.127351 0.201080
H14   H     H_    0.889436 0.422619 0.715395 0.187242
H15   H     H_    0.897997 0.587143 0.706590 0.157690
H16   H     H_    0.099863 0.697112 0.497376 0.117445
H17   H     H_    0.891188 0.700413 0.478595 0.155827
H18   H     H_    0.098032 0.297242 0.490953 0.148976
N1    N     N_R   0.500800 0.500930 0.147930 -0.192806
N2    N     N_R   0.500800 0.500890 0.852020 -0.189913
O1    O     O_R   0.500000 0.319640 0.618810 -0.580851
O2    O     O_R   0.500010 0.319680 0.381230 -0.598829
O3    O     O_R   0.317690 0.499960 0.618790 -0.583265
O4    O     O_R   0.317700 0.500000 0.381210 -0.523729
O5    O     O_R   0.499990 0.680320 0.618770 -0.582951
O6    O     O_R   0.500000 0.680360 0.381190 -0.581695
O7    O     O_R   0.682300 0.500000 0.618790 -0.590481
O8    O     O_R   0.682310 0.500040 0.381210 -0.604973
N3    N     N_3   0.123928 0.641797 0.289477 -0.548030
H19   H     H_    0.121798 0.737158 0.271109 0.213578
H20   H     H_    0.069974 0.601795 0.210175 0.220629
C27   C     C_2   0.638712 0.124642 0.266648 0.351661
H21   H     H_    0.672570 0.218889 0.275837 0.115183
O9    O     O_2   0.656266 0.069702 0.156504 -0.572973
N4    N     N_3   0.266494 0.118279 0.635392 -0.585010
H22   H     H_    0.188454 0.100767 0.697079 0.214735
H23   H     H_    0.275641 0.214407 0.630684 0.233068
N5    N     N_3   0.118953 0.395915 0.740200 -0.600982
H24   H     H_    0.104594 0.417370 0.845913 0.220145
H25   H     H_    0.069450 0.314368 0.720301 0.204608
N6    N     N_3   0.123179 0.355685 0.286470 -0.577494
H26   H     H_    0.074441 0.402330 0.208315 0.213960
H27   H     H_    0.114048 0.261546 0.262504 0.208124
N7    N     N_3   0.868308 0.267793 0.474525 -0.636975
H28   H     H_    0.902057 0.248732 0.574969 0.219564
H29   H     H_    0.894956 0.194364 0.409905 0.216809

loop_
_geom_bond_atom_site_label_1
_geom_bond_atom_site_label_2
_ccdc_geom_bond_type
Cu1   N2    S    
C8    C9    A    
N5    H25   S    
N4    H23   S    
Cu2   N1    S    
C22   H1    S    
Cu2   O4    S    
C15   H8    S    
C17   N2    A    
C15   N1    A    
C16   N2    A    
C4    C25   S    
Cu2   O8    S    
C7    C8    A    
C23   H14   S    
C24   C26   S    
C13   H7    S    
C5    C6    A    
Cu1   O7    S    
N3    H20   S    
C15   C16   A    
C23   H15   S    
C27   O9    D    
C18   C19   S    
N6    H27   S    
C22   N5    S    
Cu2   O2    S    
C24   N3    S    
C1    O2    A    
C5    C13   S    
C16   H9    S    
N5    H24   S    
C14   C17   A    
C3    C24   S    
C12   O4    A    
Cu1   O3    S    
C1    C6    S    
C8    H4    S    
C11   H5    S    
N7    H29   S    
C10   C11   S    
C21   O7    A    
Cu2   O6    S    
C20   O5    A    
C25   C26   S    
C3    H17   S    
C12   C26   S    
C27   H21   S    
C2    C4    S    
C18   H11   S    
C9    C20   S    
C13   N4    S    
C2    C21   S    
C17   C18   S    
C3    H3    S    
C6    C7    A    
C20   O6    A    
C24   H16   S    
C25   N6    S    
C7    C27   S    
C4    N7    S    
C12   O3    A    
C9    C10   A    
C14   C19   S    
C11   H6    S    
N7    H28   S    
C21   O8    A    
Cu1   O5    S    
C14   N1    A    
C2    C3    S    
C18   H10   S    
C5    C10   A    
C11   C13   S    
N3    H19   S    
N6    H26   S    
C19   H12   S    
N4    H22   S    
Cu1   O1    S    
C22   C26   S    
C2    C23   S    
C22   C23   S    
C1    O1    A    
C25   H18   S    
C4    H2    S    
C19   H13   S    
Cu1   Cu2   S    
