data_mof_unit_40580.cif
_audit_creation_date              2013-03-05T15:52:47-0500
_audit_creation_method            fapswitch 2.2
_symmetry_space_group_name_H-M    P1
_symmetry_Int_Tables_number       1
_space_group_crystal_system       triclinic
_cell_length_a                    6.942534
_cell_length_b                    14.802173
_cell_length_c                    21.322611
_cell_angle_alpha                 74.933903
_cell_angle_beta                  90.360817
_cell_angle_gamma                 90.509482
_cell_volume                      2115.78838333

loop_
_atom_site_label
_atom_site_type_symbol
_atom_site_description
_atom_site_fract_x
_atom_site_fract_y
_atom_site_fract_z
_atom_type_partial_charge
O1    O     O_R   0.648150 0.130050 0.214300 -0.591263
O2    O     O_R   0.351850 0.869950 0.785700 -0.574290
O3    O     O_R   0.320490 0.006660 0.340150 -0.605372
O4    O     O_R   0.679510 0.993340 0.659850 -0.603879
O5    O     O_R   0.146100 0.869940 0.285700 -0.603798
O6    O     O_R   0.853900 0.130060 0.714300 -0.598070
C1    C     C_R   0.489347 0.001694 0.367150 0.884444
C2    C     C_R   0.510747 0.998767 0.632800 0.883786
O7    O     O_R   0.318690 0.137980 0.218120 -0.582686
O8    O     O_R   0.681310 0.862020 0.781880 -0.593194
O9    O     O_R   0.144280 0.002190 0.162800 -0.573074
O10   O     O_R   0.855720 0.997810 0.837200 -0.587253
C3    C     C_R   0.488092 0.175283 0.205349 1.048395
C4    C     C_R   0.512404 0.824364 0.793520 1.046544
O11   O     O_R   0.649960 0.997790 0.337200 -0.601648
O12   O     O_R   0.350040 0.002210 0.662800 -0.604923
O13   O     O_3   0.479300 0.955290 0.231990 -0.272004
O14   O     O_3   0.520700 0.044710 0.768010 -0.272999
V1    V     V_3+5 0.206040 0.008290 0.253340 1.188783
V2    V     V_3+5 0.793960 0.991710 0.746660 1.180839
O15   O     O_R   0.814320 0.993320 0.159850 -0.592059
O16   O     O_R   0.185680 0.006680 0.840150 -0.575719
C5    C     C_R   0.982552 0.999366 0.132703 0.959804
C6    C     C_R   0.017079 0.002219 0.867101 0.963626
O17   O     O_R   0.816120 0.862000 0.281880 -0.599518
O18   O     O_R   0.183880 0.138000 0.718120 -0.606942
C7    C     C_R   0.984239 0.824508 0.294083 0.921999
C8    C     C_R   0.015359 0.175376 0.705668 0.918888
V3    V     V_3+5 0.705540 0.991700 0.246660 1.183137
V4    V     V_3+5 0.294460 0.008300 0.753340 1.191222
O19   O     O_3   0.982150 0.044700 0.268010 -0.281554
O20   O     O_3   0.017850 0.955300 0.731990 -0.280905
C9    C     C_R   0.987745 0.723255 0.322254 -0.126485
C10   C     C_R   0.004511 0.276251 0.677010 -0.124147
C11   C     C_R   0.932975 0.568133 0.308962 -0.173936
C12   C     C_R   0.930801 0.429346 0.689749 -0.173761
C13   C     C_R   0.944405 0.664211 0.282585 -0.187400
C14   C     C_R   0.953131 0.333950 0.716413 -0.190683
C15   C     C_R   0.016086 0.686190 0.389618 -0.061542
C16   C     C_R   0.030207 0.313670 0.609595 -0.065736
C17   C     C_R   0.979026 0.589409 0.418345 0.082125
C18   C     C_R   0.984075 0.409167 0.580582 0.082264
C19   C     C_R   0.949551 0.530301 0.376187 0.169706
C20   C     C_R   0.946134 0.467401 0.622543 0.169609
C21   C     C_R   0.969196 0.548793 0.486980 0.067154
C22   C     C_R   0.973731 0.449441 0.511875 0.067298
C23   C     C_R   0.945815 0.394020 0.467752 -0.189570
C24   C     C_R   0.932771 0.603299 0.530897 -0.190142
C25   C     C_R   0.931459 0.433886 0.401427 -0.243999
C26   C     C_R   0.918869 0.563091 0.597142 -0.243963
H1    H     H_    0.904511 0.388684 0.369581 0.131920
H2    H     H_    0.885423 0.607453 0.628809 0.131282
H3    H     H_    0.932988 0.305103 0.768144 0.112855
H4    H     H_    0.922113 0.692630 0.230872 0.112493
H5    H     H_    0.905955 0.523376 0.276868 0.119823
H6    H     H_    0.896967 0.473284 0.721634 0.121517
H7    H     H_    0.917243 0.319946 0.483560 0.140568
H8    H     H_    0.897370 0.676429 0.514882 0.142629
C27   C     C_3   0.819442 0.000903 0.976253 -0.077905
C28   C     C_3   0.178423 0.002994 0.023301 -0.048433
C29   C     C_3   0.906311 0.924357 0.032945 -0.151158
C30   C     C_3   0.091548 0.079582 0.966606 -0.104930
H9    H     H_    0.829922 0.860264 0.060560 0.126885
H10   H     H_    0.168184 0.143602 0.939010 0.137324
H11   H     H_    0.670952 0.000080 0.956734 0.151334
H12   H     H_    0.327065 0.003323 0.042758 0.155450
C31   C     C_3   0.991082 0.000962 0.061974 -0.117052
C32   C     C_3   0.007160 0.002700 0.937598 -0.145287
C33   C     C_3   0.904053 0.077679 0.006143 -0.092600
C34   C     C_3   0.093638 0.926299 0.993598 -0.117064
H13   H     H_    0.825598 0.140093 0.011821 0.148710
H14   H     H_    0.171787 0.863582 0.989330 0.213803
C35   C     C_3   0.681475 0.995659 0.479351 -0.098729
C36   C     C_3   0.319005 0.005493 0.520556 -0.098191
C37   C     C_3   0.602561 0.074212 0.507809 -0.134500
C38   C     C_3   0.397935 0.926949 0.492149 -0.136210
H15   H     H_    0.686835 0.135024 0.514760 0.098520
H16   H     H_    0.313550 0.866025 0.485703 0.103583
H17   H     H_    0.831059 0.991623 0.462173 0.109876
H18   H     H_    0.169430 0.009536 0.537741 0.110151
C39   C     C_3   0.502752 0.999656 0.562170 -0.070252
C40   C     C_3   0.497636 0.001412 0.437728 -0.072810
C41   C     C_3   0.581785 0.921162 0.534539 -0.139931
C42   C     C_3   0.418695 0.079987 0.465359 -0.142545
H19   H     H_    0.648744 0.855546 0.563477 0.099532
H20   H     H_    0.351677 0.145583 0.436426 0.105655
C43   C     C_R   0.501757 0.275851 0.175752 -0.252105
C44   C     C_R   0.507547 0.722964 0.821526 -0.257641
C45   C     C_R   0.581083 0.429503 0.187650 -0.143606
C46   C     C_R   0.559752 0.568062 0.807785 -0.147249
C47   C     C_R   0.560673 0.333945 0.214449 -0.225659
C48   C     C_R   0.551561 0.664369 0.781843 -0.224691
C49   C     C_R   0.466191 0.313089 0.108742 0.275208
C50   C     C_R   0.475775 0.685077 0.888495 0.289085
C51   C     C_R   0.511557 0.408967 0.079303 -0.046220
C52   C     C_R   0.511169 0.588278 0.916910 -0.045710
C53   C     C_R   0.557557 0.467450 0.120734 0.163347
C54   C     C_R   0.540392 0.529553 0.874812 0.161832
C55   C     C_R   0.518151 0.448820 0.010539 0.088706
C56   C     C_R   0.524257 0.547984 0.985433 0.088487
C57   C     C_R   0.567093 0.602969 0.028799 -0.085290
C58   C     C_R   0.542516 0.393224 0.966537 -0.088666
C59   C     C_R   0.585917 0.563196 0.094962 -0.227401
C60   C     C_R   0.556509 0.433077 0.900123 -0.230788
H21   H     H_    0.624674 0.607833 0.126204 0.128628
H22   H     H_    0.581916 0.387944 0.868337 0.129428
H23   H     H_    0.576280 0.693305 0.730360 0.118761
H24   H     H_    0.587086 0.305305 0.265920 0.118648
H25   H     H_    0.620367 0.473646 0.219126 0.115981
H26   H     H_    0.587439 0.523771 0.775618 0.117583
H27   H     H_    0.602527 0.676334 0.012029 0.166711
H28   H     H_    0.567724 0.319023 0.982757 0.161049
N1    N     N_R   0.387150 0.742191 0.925106 0.206285
O21   O     O_R   0.232556 0.712403 0.958583 -0.437642
O22   O     O_R   0.461088 0.823051 0.925808 -0.471951
N2    N     N_R   0.365267 0.256495 0.073441 0.210772
O23   O     O_R   0.208707 0.287472 0.041463 -0.420128
O24   O     O_R   0.427155 0.173612 0.073840 -0.467848
N3    N     N_3   0.117499 0.256931 0.572384 -0.220536
H29   H     H_    0.032674 0.197012 0.576164 0.082251
H30   H     H_    0.253325 0.236142 0.592079 0.125690
N4    N     N_3   0.097094 0.744988 0.427121 -0.223387
H31   H     H_    0.007050 0.802455 0.423350 0.083220
H32   H     H_    0.231251 0.769470 0.407561 0.121423

loop_
_geom_bond_atom_site_label_1
_geom_bond_atom_site_label_2
_geom_bond_distance
_ccdc_geom_bond_type
C29   C34   1.548099 S    
C43   C47   1.394968 A    
O13   V3    1.709311 S    
C58   H28   1.077850 S    
O4    C2    1.296514 A    
V1    O19   1.706756 S    
C60   H22   1.084341 S    
C23   C25   1.386956 A    
C21   C22   1.428376 A    
C7    C9    1.462923 S    
O9    V1    1.999631 S    
C9    C15   1.411240 A    
C15   N4    1.435510 S    
C36   C38   1.549350 S    
C52   C56   1.430044 A    
C10   C16   1.411567 A    
C11   C13   1.388489 A    
C42   H20   1.110336 S    
O3    C1    1.296980 A    
C36   C42   1.549881 S    
C51   C55   1.432002 A    
C37   C42   1.550230 S    
O12   V4    1.996124 S    
C45   H25   1.083633 S    
N2    O23   1.301378 A    
C28   C30   1.549483 S    
C18   C22   1.432561 A    
C5    C31   1.503677 S    
C33   H13   1.110323 S    
O7    C3    1.294802 A    
C30   H10   1.110144 S    
O5    C7    1.293658 A    
O7    V1    2.022887 S    
O6    C8    1.290491 A    
C44   C48   1.396825 A    
C28   C31   1.540264 S    
O8    V2    2.022887 S    
C25   H1    1.084503 S    
C52   C54   1.419006 A    
C26   H2    1.084539 S    
O3    V1    2.004191 S    
O14   V4    1.709309 S    
C45   C47   1.387299 A    
C11   C19   1.401175 A    
C2    O12   1.297524 A    
C24   C26   1.386503 A    
C28   H12   1.110240 S    
C49   C51   1.427860 A    
C36   H18   1.110618 S    
C17   C19   1.420851 A    
O10   V2    1.999631 S    
C18   C20   1.421576 A    
C38   C41   1.549400 S    
O1    V3    2.026108 S    
C39   C41   1.539292 S    
C50   N1    1.435647 S    
O11   V3    1.996124 S    
N3    H30   1.045581 S    
O17   V3    2.026959 S    
C44   C50   1.409852 A    
C27   C29   1.549091 S    
C11   H5    1.083637 S    
C2    C39   1.503315 S    
C15   C17   1.425791 A    
O8    C4    1.291311 A    
C38   C40   1.540182 S    
C19   C25   1.393027 A    
C1    O11   1.297620 A    
O15   V3    1.997848 S    
C9    C13   1.395069 A    
C30   C33   1.551360 S    
C45   C53   1.400030 A    
C31   C33   1.540177 S    
C49   N2    1.438737 S    
C58   C60   1.388988 A    
C12   H6    1.083991 S    
C27   C32   1.542726 S    
C23   H7    1.077048 S    
C29   C31   1.537436 S    
C48   H23   1.083796 S    
C46   C48   1.390143 A    
C55   C56   1.426052 A    
C28   C34   1.547130 S    
C3    C43   1.460532 S    
C29   H9    1.110231 S    
C35   H17   1.110616 S    
C59   H21   1.084498 S    
C50   C52   1.426022 A    
C37   H15   1.110609 S    
C53   C59   1.393147 A    
C27   C33   1.550073 S    
C13   H4    1.083801 S    
C41   H19   1.110423 S    
O18   V4    2.026959 S    
C40   C42   1.540081 S    
O15   C5    1.298815 A    
O16   C6    1.300798 A    
C12   C20   1.401186 A    
O1    C3    1.289816 A    
C1    C40   1.504569 S    
C35   C37   1.550055 S    
C36   C39   1.539472 S    
N4    H32   1.045492 S    
C35   C40   1.540212 S    
N1    O21   1.301337 A    
V2    O20   1.706758 S    
C21   C24   1.411089 A    
C20   C26   1.392865 A    
C22   C23   1.411298 A    
C17   C21   1.432136 A    
O16   V4    1.997843 S    
C10   C14   1.394552 A    
C47   H24   1.083886 S    
C37   C39   1.540491 S    
C38   H16   1.108788 S    
C16   C18   1.426318 A    
N3    H29   1.045988 S    
C51   C53   1.421570 A    
C24   H8    1.077157 S    
O5    V1    2.024093 S    
O17   C7    1.292522 A    
O6    V2    2.024093 S    
O10   C6    1.294995 A    
O18   C8    1.294847 A    
C57   C59   1.386093 A    
C30   C32   1.539610 S    
O2    V4    2.026110 S    
C12   C14   1.388033 A    
C4    C44   1.464216 S    
V3    O19   2.158334 S    
C27   H11   1.110455 S    
V4    O20   2.158333 S    
C14   H3    1.083796 S    
C54   C60   1.394460 A    
C57   H27   1.078036 S    
C43   C49   1.412407 A    
O9    C5    1.295500 A    
C56   C57   1.410447 A    
O13   V1    2.155173 S    
N2    O24   1.301443 A    
O14   V2    2.155171 S    
O2    C4    1.295421 A    
C6    C32   1.507060 S    
C8    C10   1.461398 S    
O4    V2    2.004194 S    
C55   C58   1.411390 A    
C32   C34   1.538262 S    
C16   N3    1.436567 S    
C46   H26   1.083905 S    
C34   H14   1.103626 S    
N4    H31   1.046001 S    
C35   C41   1.549788 S    
C46   C54   1.401125 A    
N1    O22   1.301766 A    
