data_mof_unit_49432.cif
_audit_creation_date              2013-03-05T16:30:35-0500
_audit_creation_method            fapswitch 2.2
_symmetry_space_group_name_H-M    P1
_symmetry_Int_Tables_number       1
_space_group_crystal_system       triclinic
_cell_length_a                    8.716024
_cell_length_b                    10.867975
_cell_length_c                    9.590764
_cell_angle_alpha                 90.894056
_cell_angle_beta                  96.95442
_cell_angle_gamma                 91.594404
_cell_volume                      901.292311341

loop_
_atom_site_label
_atom_site_type_symbol
_atom_site_description
_atom_site_fract_x
_atom_site_fract_y
_atom_site_fract_z
_atom_type_partial_charge
O1    O     O_R   0.500000 0.319640 0.618810 -0.520303
O2    O     O_R   0.500020 0.319680 0.381230 -0.584661
C1    C     C_R   0.497496 0.262652 0.498754 0.841525
O3    O     O_R   0.274830 0.499980 0.591380 -0.555802
O4    O     O_R   0.274850 0.500020 0.353800 -0.585633
C2    C     C_R   0.204280 0.496798 0.464576 0.892608
Cu1   Cu    Cu3+1 0.499990 0.499980 0.640670 1.048585
Cu2   Cu    Cu3+1 0.500010 0.500020 0.359330 1.009170
O5    O     O_R   0.499980 0.680320 0.618770 -0.597940
O6    O     O_R   0.500000 0.680360 0.381190 -0.585542
O7    O     O_R   0.725150 0.499980 0.646200 -0.562940
O8    O     O_R   0.725170 0.500020 0.408620 -0.558005
C3    C     C_R   0.497919 0.737764 0.500568 0.808067
C4    C     C_R   0.795706 0.501323 0.535419 0.895702
C5    C     C_2   0.038911 0.487152 0.445859 -0.282527
H1    H     H_    0.980799 0.462239 0.342162 0.206601
C6    C     C_2   0.961108 0.507788 0.554373 -0.267623
H2    H     H_    0.019127 0.533226 0.657640 0.207265
C7    C     C_R   0.493673 0.066989 0.622657 0.097414
C8    C     C_R   0.485210 0.129580 0.496506 -0.120406
C9    C     C_R   0.457702 0.061650 0.369677 -0.145652
H3    H     H_    0.442761 0.107341 0.269581 0.203484
C10   C     C_R   0.457633 0.933047 0.371247 -0.146672
H4    H     H_    0.442913 0.882882 0.271859 0.174881
C11   C     C_R   0.484153 0.871088 0.499659 -0.069915
C12   C     C_R   0.490296 0.940094 0.624689 0.045299
C13   C     C_3   0.601992 0.938879 0.755960 -0.540140
C14   C     C_3   0.609563 0.078480 0.751278 0.494109
H5    H     H_    0.544508 0.905611 0.845880 0.214560
H6    H     H_    0.711977 0.894176 0.740163 0.208854
C15   C     C_R   0.626766 0.542751 0.088084 0.249723
N1    N     N_R   0.500980 0.500930 0.148050 -0.248458
C16   C     C_R   0.381624 0.447777 0.062093 -0.063203
H7    H     H_    0.285949 0.405960 0.107975 0.191692
C17   C     C_R   0.379580 0.447505 0.913886 0.424359
N2    N     N_R   0.500990 0.500890 0.852140 -0.255146
C18   C     C_R   0.628220 0.539097 0.940796 0.225156
C19   C     C_3   0.701735 0.663033 0.939848 -0.511798
C20   C     C_3   0.691983 0.672099 0.096224 0.055721
H8    H     H_    0.820942 0.659648 0.910101 0.245278
H9    H     H_    0.624727 0.724729 0.877564 0.189155
H10   H     H_    0.607618 0.740391 0.124368 0.147557
N3    N     N_R   0.245944 0.392252 0.832496 0.135817
O9    O     O_R   0.260713 0.297511 0.751574 -0.272102
O10   O     O_R   0.110071 0.411812 0.870248 -0.367696
Br1   Br    Br    0.894346 0.691762 0.203557 -0.487790
N4    N     N_R   0.547904 0.137698 0.870549 0.150106
O11   O     O_R   0.630192 0.221150 0.947155 -0.321554
O12   O     O_R   0.413450 0.103615 0.905306 -0.335470
Br2   Br    Br    0.812651 0.143972 0.716399 -0.375712

loop_
_geom_bond_atom_site_label_1
_geom_bond_atom_site_label_2
_geom_bond_distance
_ccdc_geom_bond_type
O4    Cu2   1.956787 S    
Cu1   O7    1.956787 S    
C10   H4    1.082855 S    
C14   N4    1.468564 S    
C5    C6    1.328670 D    
C18   C19   1.476023 S    
C13   H5    1.108959 S    
C17   N3    1.432792 S    
Cu1   N2    2.026991 S    
C15   N1    1.368372 A    
Cu2   O8    1.962197 S    
N1    C16   1.356310 A    
C10   C11   1.410395 A    
C6    H2    1.084185 S    
C11   C12   1.399058 A    
Cu1   Cu2   2.698294 S    
N4    O12   1.302297 A    
C9    H3    1.083203 S    
C13   H6    1.112087 S    
C19   H8    1.111696 S    
C7    C14   1.498010 S    
N3    O10   1.301624 A    
C4    C6    1.430672 S    
C3    C11   1.457322 S    
C12   C13   1.495804 S    
C19   C20   1.514251 S    
C20   Br1   1.936183 S    
O3    C2    1.294115 A    
N2    C18   1.363880 A    
C16   C17   1.419319 A    
C15   C20   1.498911 S    
C16   H7    1.081485 S    
C20   H10   1.112026 S    
O2    C1    1.296959 A    
C9    C10   1.397960 A    
N3    O9    1.298352 A    
O4    C2    1.290945 A    
O7    C4    1.290529 A    
C5    H1    1.086708 S    
Cu2   N1    2.027554 S    
N4    O11   1.300838 A    
C15   C18   1.414151 A    
C1    C8    1.446840 S    
C8    C9    1.404853 A    
C19   H9    1.094248 S    
Cu2   O6    1.967859 S    
C13   C14   1.518379 S    
Cu1   O5    1.974411 S    
C7    C12   1.379082 A    
O5    C3    1.301150 A    
O3    Cu1   1.962198 S    
C2    C5    1.431460 S    
O1    Cu1   1.967859 S    
C14   Br2   1.957691 S    
O6    C3    1.297602 A    
O2    Cu2   1.974410 S    
C7    C8    1.392425 A    
O8    C4    1.294219 A    
O1    C1    1.296444 A    
C17   N2    1.391198 A    
