data_mof_unit_67752.cif
_audit_creation_date              2012-12-10T16:48:40-0500
_audit_creation_method            fapswitch 2.2
_symmetry_space_group_name_H-M    P1
_symmetry_Int_Tables_number       1
_space_group_crystal_system       triclinic
_cell_length_a                    7.806812
_cell_length_b                    8.628708
_cell_length_c                    10.524677
_cell_angle_alpha                 89.498243
_cell_angle_beta                  96.983111
_cell_angle_gamma                 93.038105
_cell_volume                      702.720573939

loop_
_atom_site_label
_atom_site_type_symbol
_atom_type_description
_atom_site_fract_x
_atom_site_fract_y
_atom_site_fract_z
_atom_type_partial_charge
C1    C     C_R   0.544578 0.794210 0.500256 0.830633
C2    C     C_2   0.430101 0.043382 0.487268 0.192369
C3    C     C_R   0.559006 0.237041 0.133760 0.056806
C4    C     C_R   0.450927 0.111872 0.167003 -0.174787
C5    C     C_R   0.520043 0.969223 0.201876 -0.105252
C6    C     C_R   0.697629 0.951599 0.206993 -0.056147
C7    C     C_R   0.806212 0.075954 0.174890 -0.168532
C8    C     C_R   0.737085 0.217714 0.136938 -0.125521
C9    C     C_R   0.363373 0.255159 0.858689 0.060364
C10   C     C_R   0.431300 0.117283 0.822007 -0.203528
C11   C     C_R   0.320333 0.991697 0.777922 -0.069421
C12   C     C_R   0.455527 0.205845 0.501297 0.873291
C13   C     C_R   0.141573 0.004058 0.768388 -0.033118
C14   C     C_R   0.073025 0.142261 0.801797 -0.143466
C15   C     C_R   0.183514 0.267213 0.847975 -0.099480
C16   C     C_R   0.568459 0.490087 0.737149 0.758665
C17   C     C_R   0.429928 0.499592 0.262786 0.758331
C18   C     C_2   0.595688 0.467594 0.875241 0.237749
C19   C     C_2   0.395920 0.481227 0.124192 0.240026
C20   C     C_2   0.479816 0.374788 0.929485 0.029331
C21   C     C_2   0.480916 0.373392 0.067490 0.025258
C22   C     C_2   0.568829 0.956738 0.517061 0.167272
H1    H     H_    0.312449 0.122587 0.159894 0.131400
H2    H     H_    0.129068 0.371567 0.878340 0.177138
H3    H     H_    0.248884 0.656198 0.108084 0.337191
H4    H     H_    0.789925 0.618329 0.893916 0.325933
H5    H     H_    0.808679 0.937609 0.592836 0.353371
H6    H     H_    0.191761 0.063145 0.405780 0.360813
H7    H     H_    0.888952 0.268033 0.388619 0.362577
H8    H     H_    0.937285 0.655170 0.638355 0.325657
H9    H     H_    0.435730 0.872063 0.224645 0.147079
H10   H     H_    0.750759 0.841238 0.234746 0.171561
H11   H     H_    0.943553 0.061851 0.177382 0.148722
H12   H     H_    0.821751 0.311151 0.107485 0.187269
H13   H     H_    0.569693 0.104878 0.832946 0.143229
H14   H     H_    0.372874 0.883939 0.753160 0.155770
H15   H     H_    0.056402 0.905621 0.737296 0.147471
H16   H     H_    0.934423 0.151214 0.795165 0.162956
N1    N     N_2   0.940600 0.458860 0.467170 0.160238
N2    N     N_2   0.059400 0.541140 0.532830 0.207385
O1    O     O_R   0.391630 0.738350 0.508060 -0.528015
O2    O     O_3   0.723633 0.552966 0.950876 -0.777234
O3    O     O_3   0.726974 0.020652 0.572818 -0.784914
O4    O     O_3   0.270970 0.979688 0.432527 -0.757334
O5    O     O_3   0.995679 0.330215 0.419015 -0.664832
O6    O     O_3   0.011912 0.678674 0.570469 -0.659307
O7    O     O_R   0.608370 0.261650 0.491940 -0.575368
O8    O     O_R   0.674540 0.711990 0.487010 -0.622132
O9    O     O_R   0.325460 0.288010 0.512990 -0.579144
O10   O     O_R   0.411370 0.508250 0.688780 -0.602640
O11   O     O_R   0.588630 0.491750 0.311220 -0.615049
O12   O     O_R   0.694270 0.481880 0.667740 -0.647872
O13   O     O_R   0.305730 0.518120 0.332260 -0.573479
O14   O     O_3   0.295630 0.583585 0.050114 -0.777759
Zn1   Zn    Zn3+2 0.311100 0.517600 0.514050 1.091797
Zn2   Zn    Zn3+2 0.688900 0.482400 0.485950 1.016677

loop_
_geom_bond_atom_site_label_1
_geom_bond_atom_site_label_2
_ccdc_geom_bond_type
C2    C22   D    
C6    H10   S    
C1    O8    A    
C6    C7    A    
H5    O3    S    
C14   H16   S    
C7    H11   S    
C9    C10   A    
C9    C20   S    
C13   H15   S    
O10   Zn1   S    
H8    O6    S    
N1    O5    S    
N2    Zn1   S    
C2    C12   S    
C17   O11   A    
O13   Zn1   S    
C12   O9    A    
C9    C15   A    
C1    C22   S    
N1    Zn2   S    
C8    H12   S    
C13   C14   A    
C20   C21   S    
N2    O6    S    
C11   C13   A    
C10   H13   S    
C12   O7    A    
C4    C5    A    
C19   O14   S    
C1    O1    A    
C15   H2    S    
C17   C19   S    
C16   O10   A    
O11   Zn2   S    
C18   C20   D    
C18   O2    S    
C5    C6    A    
C3    C21   S    
C10   C11   A    
C3    C4    A    
N1    N2    D    
C17   O13   A    
C7    C8    A    
H3    O14   S    
H4    O2    S    
C16   C18   S    
C3    C8    A    
H7    O5    S    
C16   O12   A    
O8    Zn2   S    
C4    H1    S    
C14   C15   A    
O1    Zn1   S    
C19   C21   D    
O9    Zn1   S    
H6    O4    S    
C22   O3    S    
O12   Zn2   S    
C2    O4    S    
O7    Zn2   S    
C5    H9    S    
C11   H14   S    
