data_mof_unit_39836.cif
_audit_creation_date              2013-03-05T15:58:55-0500
_audit_creation_method            fapswitch 2.2
_symmetry_space_group_name_H-M    P1
_symmetry_Int_Tables_number       1
_space_group_crystal_system       triclinic
_cell_length_a                    10.663593
_cell_length_b                    12.582052
_cell_length_c                    13.120867
_cell_angle_alpha                 82.109686
_cell_angle_beta                  90.32253
_cell_angle_gamma                 102.215547
_cell_volume                      1703.77873146

loop_
_atom_site_label
_atom_site_type_symbol
_atom_site_description
_atom_site_fract_x
_atom_site_fract_y
_atom_site_fract_z
_atom_type_partial_charge
O1    O     O_R   0.468120 0.366740 0.627160 -0.550923
O2    O     O_R   0.510770 0.544830 0.662520 -0.627303
C1    C     C_R   0.476697 0.438093 0.691424 0.886298
O3    O     O_R   0.663880 0.410950 0.482330 -0.537995
O4    O     O_R   0.706530 0.589040 0.517700 -0.634968
C2    C     C_R   0.742099 0.500791 0.498311 0.879639
Zn1   Zn    Zn3+2 0.471520 0.381090 0.476390 1.043126
Zn2   Zn    Zn3+2 0.528480 0.618910 0.523610 0.923480
O5    O     O_R   0.489230 0.455170 0.337480 -0.598830
O6    O     O_R   0.531880 0.633260 0.372840 -0.640390
O7    O     O_R   0.293470 0.410960 0.482300 -0.621863
O8    O     O_R   0.336120 0.589050 0.517670 -0.657236
C3    C     C_R   0.513462 0.561434 0.308650 0.875366
C4    C     C_R   0.258516 0.500285 0.499248 0.839755
C5    C     C_3   0.910431 0.417390 0.589264 0.175733
H1    H     H_    0.896178 0.452238 0.661072 0.105017
C6    C     C_3   0.052826 0.411937 0.583879 -0.421862
H2    H     H_    0.097092 0.425197 0.659489 0.140763
H3    H     H_    0.064187 0.329527 0.568874 0.236921
H4    H     H_    0.085886 0.394214 0.379049 0.231997
C7    C     C_3   0.925666 0.480675 0.388336 0.193231
C8    C     C_3   0.957107 0.615796 0.514722 -0.516519
C9    C     C_3   0.879048 0.500420 0.496842 -0.079226
H5    H     H_    0.928108 0.638187 0.589065 0.204012
C10   C     C_3   0.122530 0.501134 0.498055 0.057824
C11   C     C_3   0.069210 0.475389 0.392338 -0.443688
C12   C     C_3   0.099988 0.615612 0.516341 -0.395514
H6    H     H_    0.138411 0.635930 0.592069 0.197461
H7    H     H_    0.150783 0.680745 0.455473 0.193330
H8    H     H_    0.920346 0.555362 0.333202 0.092491
H9    H     H_    0.123495 0.536487 0.329878 0.134424
C13   C     C_R   0.424017 0.711443 0.061726 -0.180255
H10   H     H_    0.450954 0.752281 0.214875 0.155513
H11   H     H_    0.340295 0.715292 0.869397 0.159975
H12   H     H_    0.389152 0.784962 0.034563 0.151452
C14   C     C_R   0.505096 0.598583 0.199620 -0.056387
C15   C     C_R   0.462155 0.288977 0.843261 0.356285
C16   C     C_R   0.476569 0.264326 0.948870 -0.185685
C17   C     C_R   0.480987 0.344116 0.012637 -0.247566
C18   C     C_R   0.462114 0.449859 0.973141 0.087634
C19   C     C_R   0.431709 0.470954 0.868835 0.048581
C20   C     C_R   0.468785 0.534368 0.034800 0.083819
C21   C     C_R   0.424607 0.630908 0.997579 0.167494
C22   C     C_R   0.378337 0.643846 0.898211 -0.241101
C23   C     C_R   0.381544 0.564859 0.834586 -0.164726
C24   C     C_R   0.518246 0.524981 0.133046 -0.236198
C25   C     C_R   0.461523 0.694115 0.163625 -0.207475
C26   C     C_R   0.450985 0.396914 0.801600 -0.252949
H13   H     H_    0.563046 0.457896 0.161490 0.195695
H14   H     H_    0.491410 0.318341 0.093528 0.169570
H15   H     H_    0.484670 0.182436 0.982181 0.184450
H16   H     H_    0.340873 0.576610 0.759181 0.167081
C27   C     C_R   0.323714 0.089392 0.345414 -0.285253
H17   H     H_    0.303237 0.256716 0.328887 0.138191
H18   H     H_    0.294617 0.882495 0.314414 0.150186
H19   H     H_    0.256876 0.068164 0.285190 0.155256
N1    N     N_R   0.433240 0.222190 0.444680 -0.109704
C28   C     C_R   0.650758 0.798634 0.630696 0.003529
C29   C     C_R   0.680532 0.902688 0.660034 -0.220554
C30   C     C_R   0.622819 0.984442 0.610867 -0.082868
C31   C     C_R   0.534974 0.962234 0.531399 -0.004605
C32   C     C_R   0.508054 0.854798 0.504457 0.242325
C33   C     C_R   0.472982 0.041702 0.477865 -0.019991
C34   C     C_R   0.385519 0.012142 0.399114 0.194286
C35   C     C_R   0.360930 0.905967 0.374404 -0.284773
C36   C     C_R   0.421718 0.828665 0.426280 -0.216097
C37   C     C_R   0.494357 0.150198 0.498697 0.084310
C38   C     C_R   0.349399 0.195322 0.369741 0.030181
N2    N     N_R   0.566070 0.776970 0.554790 -0.132762
H20   H     H_    0.558702 0.180509 0.556535 0.187034
H21   H     H_    0.694682 0.734353 0.668792 0.147381
H22   H     H_    0.747738 0.919887 0.720824 0.176557
H23   H     H_    0.399337 0.748911 0.403334 0.206044
N3    N     N_R   0.826601 0.307526 0.599691 0.209930
O9    O     O_R   0.838536 0.237614 0.537994 -0.359423
O10   O     O_R   0.748473 0.274962 0.678975 -0.404141
N4    N     N_R   0.453299 0.202223 0.781247 0.218509
O11   O     O_R   0.527734 0.132394 0.799213 -0.390715
O12   O     O_R   0.351431 0.176380 0.727184 -0.394258
H24   H     H_    0.648714 0.063485 0.636820 0.223560
N5    N     N_R   0.845094 0.387379 0.345594 0.248744
O13   O     O_R   0.885226 0.297636 0.339321 -0.340352
O14   O     O_R   0.748491 0.405094 0.289655 -0.418104
H25   H     H_    0.939232 0.680597 0.452897 0.207819

loop_
_geom_bond_atom_site_label_1
_geom_bond_atom_site_label_2
_geom_bond_distance
_ccdc_geom_bond_type
C7    C11   1.546413 S    
C12   H7    1.113615 S    
N5    O13   1.302030 A    
N4    O11   1.301406 A    
Zn1   O7    2.015878 S    
C24   H13   1.078010 S    
Zn2   N2    2.041381 S    
N3    O10   1.300943 A    
O4    C2    1.303200 A    
O7    C4    1.303200 A    
C28   H21   1.081687 S    
H17   C38   1.081944 S    
C5    H1    1.116375 S    
C1    C26   1.473803 S    
C14   C25   1.400621 A    
C5    C6    1.536880 S    
C20   C24   1.389514 A    
C31   C33   1.418369 A    
C27   C38   1.383700 A    
O5    C3    1.309022 A    
H18   C35   1.084442 S    
C19   C26   1.413158 A    
C14   C24   1.385164 A    
C29   H22   1.082562 S    
C18   C20   1.411973 A    
C29   C30   1.390768 A    
N1    C37   1.347562 A    
O3    Zn1   2.008721 S    
N5    O14   1.301272 A    
N4    O12   1.301573 A    
C33   C37   1.400084 A    
N3    O9    1.299740 A    
C32   C36   1.400619 A    
C13   H12   1.083718 S    
H11   C22   1.083920 S    
C3    C14   1.451068 S    
O3    C2    1.296752 A    
C17   C18   1.414936 A    
C16   H15   1.083366 S    
C23   H16   1.082108 S    
C10   C11   1.545578 S    
C36   H23   1.065522 S    
C15   N4    1.435912 S    
C27   C34   1.397622 A    
C32   N2    1.360883 A    
C30   C31   1.414571 A    
O1    C1    1.302907 A    
C8    H25   1.114269 S    
C21   C22   1.392228 A    
C15   C16   1.392742 A    
Zn2   O8    2.008721 S    
C17   H14   1.078630 S    
C6    H2    1.114324 S    
C15   C26   1.421701 A    
C18   C19   1.407232 A    
C7    N5    1.476200 S    
C8    C12   1.524136 S    
C7    C9    1.578951 S    
H10   C25   1.082289 S    
C13   C25   1.394960 A    
C8    H5    1.114544 S    
C20   C21   1.418650 A    
N1    C38   1.354211 A    
C22   C23   1.388618 A    
C27   H19   1.083874 S    
Zn1   O5    1.920766 S    
C30   H24   1.075638 S    
O1    Zn1   1.961453 S    
O2    Zn2   1.920766 S    
O8    C4    1.292801 A    
O6    C3    1.302541 A    
O4    Zn2   2.015879 S    
C28   N2    1.357211 A    
C10   C12   1.559508 S    
C7    H8    1.115824 S    
C37   H20   1.074716 S    
C6    C10   1.545800 S    
C34   C35   1.388605 A    
O2    C1    1.317057 A    
C28   C29   1.387124 A    
C16   C17   1.385733 A    
H4    C11   1.109640 S    
C2    C9    1.461609 S    
C5    C9    1.571452 S    
C6    H3    1.112671 S    
C13   C21   1.404321 A    
C4    C10   1.452377 S    
C31   C32   1.414384 A    
C33   C34   1.422582 A    
C11   H9    1.114332 S    
C5    N3    1.468045 S    
Zn2   O6    1.961450 S    
C35   C36   1.381859 A    
C12   H6    1.114156 S    
C19   C23   1.415300 A    
C8    C9    1.560508 S    
Zn1   N1    2.053776 S    
