data_mof_unit_31915.cif
_audit_creation_date              2012-12-10T17:33:04-0500
_audit_creation_method            fapswitch 2.2
_symmetry_space_group_name_H-M    P1
_symmetry_Int_Tables_number       1
_space_group_crystal_system       triclinic
_cell_length_a                    12.350007
_cell_length_b                    13.253082
_cell_length_c                    14.26413
_cell_angle_alpha                 93.104945
_cell_angle_beta                  107.636865
_cell_angle_gamma                 117.02549
_cell_volume                      1930.72863522

loop_
_atom_site_label
_atom_site_type_symbol
_atom_type_description
_atom_site_fract_x
_atom_site_fract_y
_atom_site_fract_z
_atom_type_partial_charge
C1    C     C_R   0.651295 0.714272 0.509279 0.783125
C2    C     C_R   0.833689 0.481303 0.918467 0.047688
C3    C     C_R   0.802180 0.521908 0.994790 0.082952
C4    C     C_R   0.944133 0.464680 0.946184 0.070776
C5    C     C_R   0.006816 0.468327 0.048462 0.085966
C6    C     C_R   0.953456 0.483872 0.119497 -0.182195
C7    C     C_R   0.856050 0.514629 0.094358 0.005860
C8    C     C_R   0.999798 0.454297 0.875732 -0.194973
C9    C     C_R   0.103240 0.432354 0.901404 -0.110224
C10   C     C_R   0.164246 0.430936 0.001074 0.038396
C11   C     C_R   0.120834 0.456576 0.076292 0.060270
C12   C     C_R   0.615639 0.512824 0.686089 0.805819
C13   C     C_R   0.271965 0.410586 0.028703 0.393294
C14   C     C_R   0.341732 0.426276 0.130933 -0.252636
C15   C     C_R   0.196904 0.476027 0.177750 -0.222441
C16   C     C_R   0.139380 0.967905 0.360464 -0.015325
C17   C     C_R   0.249511 0.162459 0.463474 -0.067074
C18   C     C_R   0.734692 0.921091 0.579195 -0.167181
C19   C     C_R   0.826497 0.037816 0.599481 -0.100791
C20   C     C_R   0.926301 0.072601 0.561855 -0.132747
C21   C     C_R   0.933519 0.990621 0.499360 0.100931
C22   C     C_R   0.830379 0.873952 0.468980 0.076985
C23   C     C_R   0.345493 0.285348 0.485317 0.824228
C24   C     C_R   0.038992 0.020746 0.465332 0.076825
C25   C     C_R   0.033656 0.937945 0.393534 0.099135
C26   C     C_R   0.921820 0.828303 0.354827 -0.201518
C27   C     C_R   0.821657 0.797112 0.391153 -0.162848
C28   C     C_R   0.150507 0.130889 0.501696 -0.211458
C29   C     C_R   0.246064 0.080443 0.395126 -0.210976
C30   C     C_R   0.737365 0.837862 0.516202 -0.105887
C31   C     C_R   0.256773 0.686427 0.663709 0.233655
C32   C     C_R   0.655161 0.342348 0.364035 -0.010373
C33   C     C_R   0.733238 0.307870 0.334006 0.314368
C34   C     C_R   0.379669 0.480578 0.313119 0.826385
C35   C     C_R   0.868930 0.368355 0.385241 -0.273734
C36   C     C_R   0.928417 0.463344 0.467893 -0.035616
C37   C     C_R   0.843673 0.494751 0.495536 0.291740
C38   C     C_R   0.068232 0.528042 0.524040 -0.043747
C39   C     C_R   0.120084 0.622303 0.607044 0.031998
C40   C     C_R   0.034428 0.650608 0.631681 -0.215586
C41   C     C_R   0.901001 0.589205 0.577411 -0.186955
C42   C     C_R   0.159553 0.503219 0.501679 0.005949
C43   C     C_R   0.339355 0.656005 0.636660 0.009957
C44   C     C_R   0.676320 0.513076 0.791981 -0.107682
C45   C     C_R   0.306415 0.461760 0.205427 -0.113342
C46   C     C_R   0.715564 0.566267 0.968745 -0.155956
C47   C     C_R   0.659634 0.568147 0.868706 -0.094625
C48   C     C_R   0.752434 0.458416 0.817098 -0.084169
Cu1   Cu    Cu3+1 0.416420 0.526630 0.522910 0.966914
Cu2   Cu    Cu3+1 0.583580 0.473370 0.477090 0.953571
H1    H     H_    0.323785 0.105292 0.365745 0.161305
H2    H     H_    0.911119 0.765781 0.295996 0.171438
H3    H     H_    0.162865 0.195292 0.559427 0.166830
H4    H     H_    0.663103 0.895693 0.614834 0.169368
H5    H     H_    0.994097 0.164627 0.581238 0.140765
H6    H     H_    0.822740 0.101525 0.647311 0.169781
H7    H     H_    0.735855 0.712789 0.355228 0.186056
H8    H     H_    0.443688 0.703279 0.678559 0.167134
H9    H     H_    0.175482 0.506859 0.237337 0.162527
H10   H     H_    0.068973 0.721405 0.693864 0.234078
H11   H     H_    0.128731 0.433455 0.440201 0.136176
H12   H     H_    0.550409 0.296496 0.323916 0.163295
H13   H     H_    0.925306 0.339351 0.358820 0.170709
H14   H     H_    0.846403 0.619621 0.603086 0.207129
H15   H     H_    0.424704 0.412077 0.152790 0.192879
H16   H     H_    0.138419 0.422409 0.842727 0.209318
H17   H     H_    0.694337 0.603285 0.025722 0.154770
H18   H     H_    0.599779 0.609188 0.851074 0.193798
H19   H     H_    0.985590 0.472730 0.195490 0.140437
H20   H     H_    0.967168 0.466630 0.800174 0.157683
N1    N     N_R   0.290690 0.566960 0.557640 -0.206702
N2    N     N_R   0.709100 0.433710 0.442970 -0.222448
O1    O     O_R   0.545970 0.684450 0.528810 -0.578777
O2    O     O_R   0.687130 0.639470 0.490120 -0.601708
O3    O     O_R   0.519670 0.535100 0.660030 -0.565114
O4    O     O_R   0.660830 0.490120 0.621340 -0.597465
O5    O     O_R   0.312870 0.360530 0.509880 -0.579614
O6    O     O_R   0.454030 0.315550 0.471190 -0.583787
O7    O     O_R   0.339170 0.509880 0.378660 -0.587965
O8    O     O_R   0.480330 0.464900 0.339970 -0.584886
C49   C     C_1   0.806188 0.529489 0.170531 0.235669
N3    N     N_1   0.765101 0.540054 0.231025 -0.314184
S1    S     S_3+6 0.320966 0.363573 0.938205 0.016351
O9    O     O_2   0.203886 0.261005 0.859756 -0.248197
O10   O     O_2   0.378006 0.460358 0.887305 -0.329183
O11   O     O_3   0.432427 0.323722 0.992512 -0.443339
H21   H     H_    0.515640 0.397458 0.026275 0.344539
C50   C     C_1   0.139825 0.886208 0.289259 0.236972
N4    N     N_1   0.140150 0.820793 0.232338 -0.248939
S2    S     S_3+6 0.328570 0.804711 0.768373 0.035500
O12   O     O_2   0.274870 0.761881 0.848581 -0.221197
O13   O     O_2   0.474764 0.857470 0.811961 -0.260019
O14   O     O_3   0.291447 0.907294 0.731778 -0.477047
H22   H     H_    0.319443 0.924735 0.673685 0.340504
S3    S     S_3+6 0.661244 0.189948 0.230630 0.047707
O15   O     O_2   0.671826 0.236262 0.138053 -0.205771
O16   O     O_2   0.731674 0.121326 0.249826 -0.272615
O17   O     O_3   0.502426 0.102819 0.210682 -0.470326
H23   H     H_    0.502309 0.072670 0.272730 0.333930
C51   C     C_1   0.726415 0.361943 0.743528 0.297977
N5    N     N_1   0.705364 0.285009 0.684956 -0.272070

loop_
_geom_bond_atom_site_label_1
_geom_bond_atom_site_label_2
_ccdc_geom_bond_type
C19   H6    S    
C6    H19   S    
O14   H22   S    
C40   H10   S    
C17   C29   A    
S3    O15   D    
C4    C8    A    
C49   N3    T    
S3    O17   S    
C32   N2    A    
C26   C27   A    
C17   C23   S    
C31   C43   A    
C1    O2    A    
C36   C37   A    
C38   C42   A    
C3    C7    A    
Cu2   O2    S    
C5    C6    A    
C33   S3    S    
C18   C19   A    
Cu2   N2    S    
C9    H16   S    
C51   N5    T    
C43   H8    S    
C34   O8    A    
C11   C15   A    
C19   C20   A    
C42   N1    A    
C8    C9    A    
Cu1   O3    S    
C18   C30   A    
C9    C10   A    
C44   C47   A    
C21   C22   A    
C37   N2    A    
C20   H5    S    
Cu2   O6    S    
C14   C45   A    
C48   C51   S    
C24   C25   A    
C27   H7    S    
C39   C40   A    
O11   H21   S    
C2    C48   A    
C16   C29   A    
Cu1   O7    S    
C35   C36   A    
C2    C4    A    
C26   H2    S    
Cu2   O4    S    
C34   O7    A    
S2    O13   D    
S1    O9    D    
C31   S2    S    
C20   C21   A    
C34   C45   S    
C23   O5    A    
C42   H11   S    
C40   C41   A    
S1    O10   D    
Cu1   Cu2   S    
C22   C27   A    
C12   O4    A    
Cu1   O1    S    
C21   C24   A    
C15   C45   A    
C47   H18   S    
S2    O14   S    
C16   C50   S    
C29   H1    S    
C16   C25   A    
C46   C47   A    
C43   N1    A    
C22   C30   A    
C7    C49   S    
C17   C28   A    
C15   H9    S    
C24   C28   A    
C4    C5    A    
C10   C13   A    
Cu2   O8    S    
C28   H3    S    
S3    O16   D    
C5    C11   A    
C6    C7    A    
C13   S1    S    
C3    C46   A    
C8    H20   S    
C1    O1    A    
C32   C33   A    
C36   C38   A    
C2    C3    A    
C25   C26   A    
C32   H12   S    
C46   H17   S    
C12   C44   S    
S2    O12   D    
C38   C39   A    
C1    C30   S    
C33   C35   A    
C14   H15   S    
Cu1   O5    S    
C23   O6    A    
C37   C41   A    
C10   C11   A    
C18   H4    S    
S1    O11   S    
C50   N4    T    
O17   H23   S    
Cu1   N1    S    
C12   O3    A    
C31   C39   A    
C35   H13   S    
C41   H14   S    
C13   C14   A    
C44   C48   A    
