data_mof_unit_37936.cif
_audit_creation_date              2013-03-05T16:00:06-0500
_audit_creation_method            fapswitch 2.2
_symmetry_space_group_name_H-M    P1
_symmetry_Int_Tables_number       1
_space_group_crystal_system       triclinic
_cell_length_a                    8.33865
_cell_length_b                    12.800395
_cell_length_c                    22.816603
_cell_angle_alpha                 97.022577
_cell_angle_beta                  89.539872
_cell_angle_gamma                 98.376942
_cell_volume                      2391.22176767

loop_
_atom_site_label
_atom_site_type_symbol
_atom_site_description
_atom_site_fract_x
_atom_site_fract_y
_atom_site_fract_z
_atom_type_partial_charge
P1    P     P_3+3 0.057140 0.408270 0.369700 0.488237
O1    O     O_2   0.890290 0.440320 0.360790 -0.408851
O2    O     O_3   0.130840 0.441440 0.431840 -0.306046
O3    O     O_3   0.672400 0.637930 0.395560 -0.347766
O4    O     O_2   0.797648 0.557421 0.292646 -0.420656
O5    O     O_3   0.041755 0.269191 0.364293 -0.599005
O6    O     O_3   0.694578 0.738402 0.292481 -0.533528
H1    H     H_    0.661206 0.852242 0.361311 0.144033
C1    C     C_3   0.545582 0.880061 0.281004 -0.866261
H2    H     H_    0.467542 0.934801 0.304352 0.248180
H3    H     H_    0.655355 0.927359 0.264583 0.275734
P2    P     P_3+3 0.667360 0.749400 0.544670 0.529759
P3    P     P_3+3 0.137363 0.832567 0.423775 0.576276
O7    O     O_2   0.844800 0.765340 0.527490 -0.322183
O8    O     O_3   0.090520 0.693800 0.424220 -0.334402
O9    O     O_2   0.006801 0.884753 0.460312 -0.308039
O10   O     O_3   0.679985 0.783994 0.621662 -0.594491
O11   O     O_3   0.113338 0.866246 0.352549 -0.512764
C2    C     C_3   0.103146 0.773786 0.312023 0.405250
H4    H     H_    0.998464 0.715726 0.322298 0.172804
H5    H     H_    0.215343 0.736810 0.312714 0.031909
C3    C     C_3   0.078213 0.801877 0.250232 -0.823526
H6    H     H_    0.969307 0.842214 0.248903 0.275017
H7    H     H_    0.185375 0.855853 0.237121 0.248791
C4    C     C_3   0.290197 0.789345 0.641629 0.703171
H8    H     H_    0.379005 0.744189 0.617751 0.015683
C5    C     C_3   0.348469 0.823312 0.705272 -0.206212
H9    H     H_    0.460365 0.881054 0.705074 0.108836
H10   H     H_    0.375472 0.752005 0.724343 0.094509
Ba1   Ba    Ba6+2 0.856210 0.551220 0.472190 1.677634
C6    C     C_3   0.886129 0.215955 0.349599 0.835160
H11   H     H_    0.793468 0.259730 0.371513 0.035341
C7    C     C_3   0.862137 0.201099 0.282515 -0.997566
H12   H     H_    0.853789 0.278529 0.266539 0.237636
H13   H     H_    0.748641 0.146500 0.269838 0.246719
H14   H     H_    0.965325 0.166761 0.260549 0.265050
C8    C     C_3   0.733111 0.703331 0.649359 0.257289
H15   H     H_    0.820280 0.662395 0.621514 0.125454
H16   H     H_    0.627041 0.643672 0.657068 0.070431
C9    C     C_3   0.819708 0.752148 0.707999 -0.364410
H17   H     H_    0.892304 0.829952 0.701989 0.270442
H18   H     H_    0.905662 0.699918 0.719578 0.192658
P4    P     P_3+3 0.132580 0.591820 0.630310 0.512562
O12   O     O_2   0.299410 0.559720 0.639240 -0.398714
O13   O     O_3   0.058870 0.558650 0.568170 -0.307234
O14   O     O_3   0.517310 0.362160 0.604450 -0.379953
O15   O     O_3   0.135955 0.729976 0.642231 -0.600253
P5    P     P_3+3 0.057987 0.167746 0.576232 0.548236
O16   O     O_3   0.614910 0.369290 0.471050 -0.398526
O17   O     O_3   0.099190 0.306290 0.575790 -0.380756
O18   O     O_2   0.184516 0.118610 0.536230 -0.299455
O19   O     O_3   0.111757 0.141523 0.646398 -0.453735
Ba2   Ba    Ba6+2 0.333620 0.448870 0.527810 1.647789
P6    P     P_3+3 0.656165 0.614100 0.317897 0.458258
C10   C     C_3   0.593665 0.805665 0.322708 0.440068
H19   H     H_    0.479967 0.762911 0.339329 0.017907
H20   H     H_    0.477161 0.832897 0.242701 0.261386
O20   O     O_3   0.574800 0.630800 0.528960 -0.340256
C11   C     C_3   0.454248 0.277032 0.348592 0.398160
H21   H     H_    0.351535 0.306948 0.372943 0.134818
H22   H     H_    0.555039 0.343258 0.345649 0.068175
C12   C     C_3   0.394264 0.231212 0.286592 -0.931988
H23   H     H_    0.292425 0.165484 0.288970 0.281963
H24   H     H_    0.351233 0.293568 0.263646 0.224696
H25   H     H_    0.493413 0.200142 0.260426 0.253748
P7    P     P_3+3 0.525891 0.235216 0.452276 0.458058
O21   O     O_2   0.344900 0.234690 0.472540 -0.332389
O22   O     O_3   0.509835 0.196937 0.375944 -0.556405
H26   H     H_    0.060607 0.728219 0.218393 0.235541
C13   C     C_3   0.016320 0.191927 0.688831 0.384274
H27   H     H_    0.984665 0.268391 0.677132 0.061430
H28   H     H_    0.905111 0.136271 0.694632 0.068072
C14   C     C_3   0.106743 0.216644 0.747595 -0.795636
H29   H     H_    0.218089 0.273820 0.743610 0.284834
H30   H     H_    0.028769 0.252732 0.781412 0.229126
H31   H     H_    0.139720 0.143363 0.762451 0.288498
P8    P     P_3+3 0.538823 0.392079 0.681376 0.464915
C15   C     C_3   0.576249 0.195038 0.674312 0.532745
H32   H     H_    0.698077 0.223054 0.657257 -0.055576
O23   O     O_2   0.385052 0.437168 0.704103 -0.397789
O24   O     O_3   0.520376 0.274205 0.713593 -0.514437
H33   H     H_    0.489639 0.169696 0.636694 0.153967
H34   H     H_    0.663564 0.125603 0.747804 0.255941
C16   C     C_3   0.586657 0.100486 0.707590 -0.905065
H35   H     H_    0.639728 0.037967 0.679027 0.228756
H36   H     H_    0.463688 0.068126 0.721560 0.303286
H37   H     H_    0.925004 0.254776 0.050836 0.170823
H38   H     H_    0.845828 0.252985 0.948491 0.171960
C17   C     C_R   0.351689 0.500557 0.328184 -0.425382
C18   C     C_R   0.120334 0.588919 0.938862 -0.048643
C19   C     C_R   0.078714 0.585048 0.878419 0.503076
O25   O     O_2   0.128858 0.660505 0.852096 -0.561949
N1    N     N_R   0.980054 0.497664 0.849221 -0.166712
C20   C     C_R   0.925050 0.411585 0.879521 0.512536
O26   O     O_2   0.837613 0.334544 0.854359 -0.597208
C21   C     C_R   0.969810 0.411459 0.939388 -0.045611
C22   C     C_R   0.066462 0.501236 0.969336 -0.015459
C23   C     C_R   0.213981 0.679041 0.969729 -0.119291
C24   C     C_R   0.252477 0.682202 0.029579 -0.123224
C25   C     C_R   0.201491 0.594541 0.060439 -0.039070
C26   C     C_R   0.109404 0.503383 0.030002 -0.019093
C27   C     C_R   0.919778 0.323526 0.970148 -0.114960
C28   C     C_R   0.965360 0.324593 0.029196 -0.117099
C29   C     C_R   0.060210 0.414362 0.059965 -0.052677
C30   C     C_R   0.108286 0.416450 0.119690 0.527696
N2    N     N_R   0.196927 0.507171 0.150129 -0.162669
C31   C     C_R   0.240648 0.596314 0.120951 0.506158
C32   C     C_2   0.772327 0.478218 0.770910 -0.159168
C33   C     C_3   0.723475 0.485654 0.707577 0.126172
C34   C     C_1   0.007659 0.521190 0.684246 0.247542
C35   C     C_2   0.054727 0.522030 0.740204 -0.197459
C36   C     C_2   0.931372 0.497567 0.787423 0.104351
C37   C     C_R   0.410052 0.546559 0.230014 -0.229674
C38   C     C_R   0.459324 0.545000 0.288601 0.211046
C39   C     C_R   0.190437 0.466451 0.313141 0.243174
C40   C     C_R   0.137767 0.469556 0.254732 -0.240347
C41   C     C_R   0.248029 0.507776 0.211683 0.140571
O27   O     O_2   0.073295 0.336541 0.144151 -0.596652
O28   O     O_2   0.312691 0.677946 0.147714 -0.614056
C42   C     C_2   0.863321 0.472838 0.666378 -0.459424
H39   H     H_    0.323848 0.753534 0.051529 0.171604
H40   H     H_    0.497610 0.578368 0.199129 0.182356
H41   H     H_    0.256944 0.748088 0.947776 0.179610
H42   H     H_    0.181343 0.544341 0.752557 0.186320
H43   H     H_    0.678591 0.465539 0.803645 0.164915
H44   H     H_    0.012476 0.441510 0.242690 0.184185
H45   H     H_    0.395733 0.490127 0.370977 0.189133
H46   H     H_    0.845674 0.427157 0.622976 0.157369
C43   C     C_R   0.764358 0.179222 0.521062 -0.436040
C44   C     C_R   0.429971 0.815004 0.478793 -0.003524
C45   C     C_R   0.407136 0.990839 0.456985 -0.176580
C46   C     C_R   0.341931 0.884336 0.455216 0.110484
C47   C     C_R   0.579061 0.849802 0.507355 0.126770
C48   C     C_R   0.643644 0.960312 0.512722 -0.010930
C49   C     C_R   0.556140 0.031029 0.486400 0.021524
C50   C     C_R   0.618690 0.140550 0.490947 0.266780
C51   C     C_R   0.852182 0.111688 0.546658 0.165960
C52   C     C_R   0.790306 0.003031 0.543813 -0.129188
H47   H     H_    0.337288 0.041255 0.436462 0.213270
H48   H     H_    0.858985 0.953297 0.565256 0.203582
H49   H     H_    0.813664 0.262521 0.522360 0.158033
N3    N     N_R   0.227708 0.872214 0.741391 0.267138
O29   O     O_R   0.173043 0.955415 0.726553 -0.389675
O30   O     O_R   0.186762 0.839440 0.791839 -0.357615
N4    N     N_R   0.869377 0.111870 0.370946 0.215559
O31   O     O_R   0.989586 0.081947 0.397435 -0.343627
O32   O     O_R   0.730446 0.050737 0.366848 -0.473706
C53   C     C_3   0.704349 0.767100 0.760042 -0.392746
C54   C     C_3   0.793122 0.784015 0.819335 -0.702787
H50   H     H_    0.850902 0.713438 0.825476 0.270895
H51   H     H_    0.886187 0.855902 0.822015 0.295635
H52   H     H_    0.705213 0.795524 0.855531 0.227872
H53   H     H_    0.648033 0.839000 0.756982 0.229005
H54   H     H_    0.609591 0.696328 0.759649 0.200301
N5    N     N_R   0.356646 0.709142 0.480315 0.250258
O33   O     O_R   0.376621 0.637112 0.437168 -0.409603
O34   O     O_R   0.248273 0.688736 0.519600 -0.328032
N6    N     N_R   0.279010 0.883285 0.611950 0.234960
O35   O     O_R   0.405427 0.954375 0.608295 -0.491533
O36   O     O_R   0.142333 0.897194 0.589159 -0.322548

loop_
_geom_bond_atom_site_label_1
_geom_bond_atom_site_label_2
_geom_bond_distance
_ccdc_geom_bond_type
P7    O22   1.751366 S    
C10   H19   1.111760 S    
C17   C39   1.384256 A    
N1    C20   1.391524 Am   
C21   C27   1.408964 A    
N5    O34   1.289881 A    
C14   H29   1.105848 S    
Ba1   O13   2.760861 S    
C30   N2    1.392176 Am   
C2    H4    1.104340 S    
O6    C10   1.407700 S    
C7    H14   1.110929 S    
N4    O31   1.301906 A    
C49   C50   1.414372 A    
C40   C41   1.421764 A    
C8    H15   1.108466 S    
P5    C51   1.859230 S    
C3    H7    1.109823 S    
C2    H5    1.109350 S    
C16   H36   1.108090 S    
O11   C2    1.402607 S    
C8    C9    1.543260 S    
C45   C49   1.414778 A    
C54   H51   1.109794 S    
C5    H10   1.109847 S    
N2    C31   1.392412 Am   
C39   C40   1.413485 A    
P6    C38   1.836674 S    
C5    N3    1.459170 S    
C32   C33   1.522350 S    
P1    O1    1.528597 D    
C34   C35   1.337065 D    
P1    Ba1   3.377573 S    
C12   H24   1.108431 S    
O12   Ba2   2.789798 S    
P4    Ba2   3.378239 S    
P5    O18   1.542515 D    
C37   H40   1.081992 S    
C35   C36   1.512510 S    
C25   C31   1.418030 A    
P2    O10   1.758498 S    
C6    C7    1.530257 S    
C13   H27   1.113194 S    
C1    C10   1.520535 S    
P4    C34   1.842283 S    
C32   H43   1.085560 S    
C1    H2    1.110971 S    
C4    O15   1.396216 S    
C3    H26   1.110030 S    
C24   H39   1.083215 S    
P2    Ba1   3.427289 S    
P5    O17   1.757827 S    
P7    O21   1.574213 D    
O13   Ba2   2.942671 S    
C11   H21   1.106713 S    
C40   H44   1.080328 S    
N6    O36   1.300887 A    
C14   H30   1.106244 S    
C20   O26   1.221671 D    
C53   H54   1.111154 S    
O7    Ba1   2.888186 S    
H1    C10   1.109136 S    
C31   O28   1.221727 D    
C29   C30   1.419570 A    
N4    O32   1.297267 A    
N5    O33   1.291204 A    
C23   H41   1.083279 S    
Ba1   Ba2   4.602419 S    
C11   H22   1.111270 S    
O17   Ba2   2.786645 S    
O16   P7    1.770308 S    
C9    C53   1.533537 S    
P1    O5    1.755288 S    
O4    P6    1.544826 D    
C2    C3    1.520087 S    
C45   H47   1.078323 S    
C53   C54   1.524088 S    
C54   H52   1.110453 S    
C34   C42   1.314172 D    
C19   O25   1.220089 D    
C15   H32   1.110708 S    
C43   H49   1.082399 S    
C4    H8    1.104785 S    
C32   C36   1.360754 D    
P1    O2    1.535887 S    
O2    Ba1   2.941767 S    
C44   C46   1.388845 A    
P4    O12   1.528785 D    
C12   H23   1.110946 S    
C11   O22   1.398226 S    
C19   N1    1.389337 Am   
C43   C50   1.395583 A    
P4    O13   1.535918 S    
C15   H33   1.112256 S    
H34   C16   1.110739 S    
P8    O24   1.744236 S    
C21   C22   1.408556 A    
C13   C14   1.519671 S    
C7    H12   1.108577 S    
O10   C8    1.399637 S    
C16   H35   1.109972 S    
C20   C21   1.419187 A    
C1    H3    1.110529 S    
C44   N5    1.407488 S    
C52   H48   1.076810 S    
C37   C41   1.417603 A    
P3    O11   1.751786 S    
C9    H17   1.110641 S    
Ba1   O16   2.844860 S    
P2    O7    1.518819 D    
C26   C29   1.408514 A    
P2    C47   1.863357 S    
P3    O8    1.763523 S    
N2    C41   1.469750 S    
C47   C48   1.429245 A    
C14   H31   1.106713 S    
H37   C28   1.083190 S    
C30   O27   1.221840 D    
C44   C47   1.396193 A    
C53   H53   1.102088 S    
C45   C46   1.388057 A    
O5    C6    1.397955 S    
C4    N6    1.464931 S    
N3    O30   1.299054 A    
O8    Ba1   2.785934 S    
C37   C38   1.404937 A    
C17   H45   1.076092 S    
P8    O23   1.542055 D    
C17   C38   1.381557 A    
P8    C33   1.861518 S    
C11   C12   1.522615 S    
C18   C22   1.408497 A    
C12   H25   1.108134 S    
O3    P6    1.763797 S    
C35   H42   1.083036 S    
C3    H6    1.110454 S    
C6    H11   1.101102 S    
C48   C52   1.422009 A    
O14   P8    1.755053 S    
H38   C27   1.083195 S    
Ba2   O20   2.844251 S    
C42   H46   1.086235 S    
C48   C49   1.430012 A    
C4    C5    1.526167 S    
C51   C52   1.405077 A    
C24   C25   1.408905 A    
O1    Ba1   2.789296 S    
P2    O20   1.599652 S    
C8    H16   1.109042 S    
C54   H50   1.107607 S    
O2    Ba2   2.761291 S    
C15   O24   1.398590 S    
C18   C19   1.418040 A    
N6    O35   1.297642 A    
O16   Ba2   2.922570 S    
Ba1   O20   2.923509 S    
O14   Ba2   2.765665 S    
C9    H18   1.102884 S    
C25   C26   1.408124 A    
C7    H13   1.109069 S    
P3    C46   1.854085 S    
P7    C50   1.841533 S    
C1    H20   1.110141 S    
C27   C28   1.400713 A    
Ba2   O21   2.888476 S    
C22   C26   1.428562 A    
O19   C13   1.404079 S    
N1    C36   1.470223 S    
C6    N4    1.461239 S    
C15   C16   1.518324 S    
P5    O19   1.750289 S    
C43   C51   1.392650 A    
C23   C24   1.399723 A    
P3    O9    1.545195 D    
C28   C29   1.409147 A    
N3    O29   1.299518 A    
C13   H28   1.101635 S    
P1    C39   1.851013 S    
O6    P6    1.744899 S    
P4    O15   1.752204 S    
C18   C23   1.408647 A    
O3    Ba1   2.766128 S    
C33   C42   1.506928 S    
C5    H9    1.103060 S    
