data_mof_unit_49116.cif
_audit_creation_date              2012-12-10T17:01:36-0500
_audit_creation_method            fapswitch 2.2
_symmetry_space_group_name_H-M    P1
_symmetry_Int_Tables_number       1
_space_group_crystal_system       triclinic
_cell_length_a                    12.883158
_cell_length_b                    10.678384
_cell_length_c                    10.051995
_cell_angle_alpha                 89.526898
_cell_angle_beta                  96.971817
_cell_angle_gamma                 89.926173
_cell_volume                      1372.5907101

loop_
_atom_site_label
_atom_site_type_symbol
_atom_type_description
_atom_site_fract_x
_atom_site_fract_y
_atom_site_fract_z
_atom_type_partial_charge
C1    C     C_R   0.505707 0.262690 0.501589 0.938747
C2    C     C_2   0.529400 0.132467 0.508566 -0.412514
C3    C     C_2   0.482271 0.598274 0.923709 0.042722
C4    C     C_R   0.298273 0.498881 0.473731 0.895713
C5    C     C_2   0.459990 0.588116 0.067671 0.086743
C6    C     C_R   0.502373 0.737523 0.499430 0.967875
C7    C     C_R   0.701743 0.495238 0.526491 0.889855
C8    C     C_R   0.813998 0.482842 0.542945 -0.181577
C9    C     C_R   0.186103 0.493463 0.457701 -0.107091
C10   C     C_R   0.020099 0.485217 0.317508 0.493255
C11   C     C_R   0.128897 0.489312 0.330073 -0.324500
C12   C     C_R   0.029346 0.481709 0.562585 0.063578
C13   C     C_R   0.136242 0.488791 0.572968 -0.263663
C14   C     C_3   0.369592 0.363736 0.859630 0.188598
C15   C     C_3   0.326369 0.277970 0.962139 -0.420331
C16   C     C_3   0.210592 0.250306 0.922097 -0.969538
C17   C     C_3   0.606094 0.333274 0.150510 -0.023750
C18   C     C_3   0.838489 0.344993 0.847066 0.070567
C19   C     C_3   0.749068 0.257483 0.793532 -0.313917
C20   C     C_3   0.761873 0.127877 0.858723 -0.991382
C21   C     C_3   0.968603 0.583215 0.114261 0.026207
C22   C     C_3   0.859599 0.641776 0.085550 -0.282746
C23   C     C_R   0.970548 0.481289 0.434643 0.079715
C24   C     C_3   0.858596 0.751827 0.987559 -0.930734
C25   C     C_3   0.686410 0.939965 0.266165 -0.328242
C26   C     C_R   0.863135 0.481646 0.426450 -0.328970
C27   C     C_R   0.872568 0.470765 0.670505 0.498560
C28   C     C_R   0.980888 0.475389 0.679213 -0.311382
C29   C     C_2   0.554251 0.932781 0.405514 0.588569
C30   C     C_2   0.504305 0.870444 0.495660 -0.443551
C31   C     C_2   0.539086 0.068135 0.397814 -0.303173
H1    H     H_    0.817645 0.484701 0.328515 0.228383
H2    H     H_    0.362124 0.315112 0.761998 0.180002
H3    H     H_    0.320933 0.450491 0.849774 0.106417
H4    H     H_    0.370944 0.188456 0.970375 0.223060
H5    H     H_    0.335865 0.323610 0.061867 0.230180
H6    H     H_    0.164210 0.338290 0.918421 0.255790
H7    H     H_    0.182040 0.186198 0.997156 0.274889
H8    H     H_    0.198658 0.204946 0.822361 0.264762
H9    H     H_    0.530650 0.281760 0.143217 0.135371
H10   H     H_    0.650331 0.323261 0.251460 0.147296
H11   H     H_    0.653863 0.287815 0.079960 0.121873
H12   H     H_    0.543106 0.089850 0.607704 0.161153
H13   H     H_    0.836788 0.356082 0.956534 0.192080
H14   H     H_    0.915499 0.301195 0.835429 0.129021
H15   H     H_    0.673446 0.298400 0.814459 0.275260
H16   H     H_    0.747259 0.247467 0.683329 0.202012
H17   H     H_    0.835372 0.083304 0.835230 0.272664
H18   H     H_    0.695012 0.067731 0.819505 0.268178
H19   H     H_    0.763734 0.134675 0.969172 0.255815
H20   H     H_    0.996061 0.555874 0.017968 0.172470
H21   H     H_    0.024051 0.655508 0.160524 0.122975
H22   H     H_    0.802817 0.570228 0.042722 0.273383
H23   H     H_    0.475863 0.689781 0.875917 0.069786
H24   H     H_    0.834220 0.675020 0.180966 0.210986
H25   H     H_    0.912919 0.826134 0.029714 0.247746
H26   H     H_    0.778458 0.791785 0.969088 0.267981
H27   H     H_    0.882131 0.720256 0.890501 0.285158
H28   H     H_    0.735668 0.988746 0.348567 0.161533
H29   H     H_    0.652146 0.007703 0.188466 0.150563
H30   H     H_    0.738530 0.876753 0.217590 0.198724
H31   H     H_    0.408425 0.656419 0.104790 0.054207
H32   H     H_    0.026740 0.474660 0.777090 0.133628
H33   H     H_    0.167972 0.488762 0.240497 0.169873
H34   H     H_    0.180351 0.490418 0.671849 0.159342
H35   H     H_    0.459487 0.916740 0.565768 0.110834
H36   H     H_    0.531523 0.113016 0.300010 0.163637
N1    N     N_2   0.501130 0.501330 0.852280 0.097085
N2    N     N_2   0.501160 0.501360 0.147950 0.087881
O1    O     O_R   0.499980 0.319060 0.613040 -0.628841
O2    O     O_3   0.593656 0.460265 0.113547 -0.505370
O3    O     O_3   0.824481 0.465288 0.786575 -0.630746
O4    O     O_3   0.962481 0.473096 0.192522 -0.670597
O5    O     O_3   0.607421 0.867162 0.314595 -0.579736
O6    O     O_R   0.500020 0.319100 0.386900 -0.645131
O7    O     O_R   0.346340 0.499960 0.594380 -0.664507
O8    O     O_R   0.346380 0.500000 0.368250 -0.641296
O9    O     O_R   0.499980 0.680900 0.613100 -0.645294
O10   O     O_R   0.500020 0.680940 0.386960 -0.561900
O11   O     O_R   0.653620 0.500000 0.631750 -0.567033
O12   O     O_R   0.653660 0.500040 0.405620 -0.610491
O13   O     O_3   0.476214 0.388872 0.902639 -0.554003
Zn1   Zn    Zn3+2 0.499980 0.499970 0.650990 0.971176
Zn2   Zn    Zn3+2 0.500020 0.500030 0.349010 0.978125

loop_
_geom_bond_atom_site_label_1
_geom_bond_atom_site_label_2
_ccdc_geom_bond_type
C26   H1    S    
C8    C26   A    
C3    N1    D    
C14   H2    S    
C19   H15   S    
C7    C8    S    
C13   H34   S    
C31   H36   S    
C12   C23   A    
C29   C30   D    
C12   C28   A    
C25   O5    S    
O10   Zn2   S    
C3    H23   S    
C19   H16   S    
O6    Zn2   S    
C6    O9    A    
C15   C16   S    
C21   O4    S    
C1    C2    S    
C23   C26   A    
N2    O2    S    
C9    C13   A    
C17   H11   S    
C5    N2    D    
O9    Zn1   S    
C19   C20   S    
C24   H26   S    
C20   H19   S    
C25   H29   S    
C16   H6    S    
C21   C22   S    
O11   Zn1   S    
O7    Zn1   S    
C15   H4    S    
C22   H22   S    
C18   O3    S    
C1    O6    A    
C11   H33   S    
C18   C19   S    
C29   O5    S    
O8    Zn2   S    
C2    C31   D    
C17   H9    S    
C20   H18   S    
C18   H13   S    
C2    H12   S    
C25   H30   S    
O1    Zn1   S    
C9    C11   A    
C30   H35   S    
C7    O12   A    
C17   O2    S    
C22   C24   S    
C14   O13   S    
C18   H14   S    
C15   H5    S    
C21   H20   S    
O12   Zn2   S    
C20   H17   S    
C6    C30   S    
N1    Zn1   S    
C3    C5    S    
C14   H3    S    
C22   H24   S    
C10   C23   A    
C24   H25   S    
C1    O1    A    
N1    O13   S    
C4    O8    A    
C29   C31   S    
N2    Zn2   S    
C6    O10   A    
C10   O4    S    
C5    H31   S    
C17   H10   S    
C4    O7    A    
C10   C11   A    
C16   H8    S    
C28   H32   S    
C12   C13   A    
C24   H27   S    
C27   C28   A    
C8    C27   A    
C14   C15   S    
C25   H28   S    
C4    C9    S    
C21   H21   S    
C27   O3    S    
C16   H7    S    
C7    O11   A    
