data_mof_unit_15861.cif
_audit_creation_date              2012-12-10T17:40:52-0500
_audit_creation_method            fapswitch 2.2
_symmetry_space_group_name_H-M    P1
_symmetry_Int_Tables_number       1
_space_group_crystal_system       triclinic
_cell_length_a                    14.93011
_cell_length_b                    15.553181
_cell_length_c                    9.89887
_cell_angle_alpha                 89.321382
_cell_angle_beta                  92.83572
_cell_angle_gamma                 90.247242
_cell_volume                      2295.63183879

loop_
_atom_site_label
_atom_site_type_symbol
_atom_type_description
_atom_site_fract_x
_atom_site_fract_y
_atom_site_fract_z
_atom_type_partial_charge
C1    C     C_R   0.387238 0.873978 0.498424 0.993871
C2    C     C_R   0.388485 0.126580 0.498467 0.956667
C3    C     C_R   0.887231 0.373981 0.498425 0.993854
C4    C     C_R   0.888487 0.626581 0.498468 0.956685
C5    C     C_R   0.280397 0.218401 0.379225 -0.229698
C6    C     C_R   0.268357 0.793310 0.381704 -0.226511
C7    C     C_R   0.780404 0.718407 0.379222 -0.229662
C8    C     C_R   0.768368 0.293310 0.381668 -0.226363
C9    C     C_R   0.707978 0.772069 0.381880 0.389879
C10   C     C_R   0.694225 0.241283 0.387987 0.388169
C11   C     C_R   0.207971 0.272064 0.381883 0.389890
C12   C     C_R   0.194185 0.741317 0.388053 0.388129
C13   C     C_R   0.684580 0.808397 0.506195 -0.135506
C14   C     C_R   0.680021 0.194638 0.508162 -0.156467
C15   C     C_R   0.184573 0.308392 0.506196 -0.135520
C16   C     C_R   0.180020 0.694640 0.508190 -0.156412
C17   C     C_R   0.330074 0.033008 0.109729 -0.077923
C18   C     C_R   0.830078 0.533012 0.109739 -0.077884
C19   C     C_R   0.263073 0.066401 0.014879 -0.127871
C20   C     C_R   0.763078 0.566415 0.014896 -0.127881
C21   C     C_R   0.274056 0.056569 0.876458 -0.135464
C22   C     C_R   0.774058 0.556588 0.876474 -0.135469
C23   C     C_R   0.340315 0.001158 0.841624 0.402771
C24   C     C_R   0.840314 0.501175 0.841630 0.402744
C25   C     C_R   0.420368 0.003980 0.919610 0.062985
C26   C     C_R   0.920368 0.503987 0.919612 0.062993
C27   C     C_R   0.418224 0.010786 0.063298 0.096746
C28   C     C_R   0.918225 0.510789 0.063300 0.096740
C29   C     C_R   0.576809 0.992804 0.078219 -0.019253
C30   C     C_R   0.076809 0.492801 0.078219 -0.019367
C31   C     C_R   0.616529 0.123792 0.502151 0.940404
C32   C     C_R   0.618248 0.877245 0.502421 0.951036
C33   C     C_R   0.116529 0.623793 0.502157 0.940401
C34   C     C_R   0.118245 0.377242 0.502421 0.951026
C35   C     C_R   0.577086 0.994881 0.935133 0.012974
C36   C     C_R   0.077085 0.494877 0.935133 0.012997
C37   C     C_R   0.382628 0.251807 0.726713 0.415951
C38   C     C_R   0.393003 0.729441 0.701908 0.421723
C39   C     C_R   0.882627 0.751801 0.726728 0.415956
C40   C     C_R   0.892982 0.229452 0.701940 0.421760
C41   C     C_R   0.355521 0.271937 0.855146 -0.164408
C42   C     C_R   0.375844 0.696136 0.829449 -0.100441
C43   C     C_R   0.855514 0.771927 0.855163 -0.164409
C44   C     C_R   0.875821 0.196132 0.829489 -0.100460
C45   C     C_R   0.766492 0.791637 0.873028 -0.234869
C46   C     C_R   0.788161 0.177465 0.860499 -0.154286
C47   C     C_R   0.266499 0.291645 0.873018 -0.234877
C48   C     C_R   0.288192 0.677464 0.860466 -0.154342
C49   C     C_R   0.707235 0.801429 0.760608 -0.072755
C50   C     C_R   0.720147 0.180704 0.758580 -0.028293
C51   C     C_R   0.207236 0.301431 0.760607 -0.072739
C52   C     C_R   0.220179 0.680686 0.758566 -0.028349
C53   C     C_R   0.735252 0.786768 0.627853 0.015213
C54   C     C_R   0.738794 0.206217 0.624644 0.016214
C55   C     C_R   0.235249 0.286765 0.627851 0.015213
C56   C     C_R   0.238818 0.706195 0.624642 0.016196
C57   C     C_R   0.318732 0.247426 0.616053 -0.013042
C58   C     C_R   0.321741 0.745138 0.605695 0.041787
C59   C     C_R   0.818735 0.747427 0.616058 -0.013046
C60   C     C_R   0.821719 0.245160 0.605711 0.041762
C61   C     C_R   0.333351 0.202743 0.495870 -0.137458
C62   C     C_R   0.329371 0.799271 0.492333 -0.131230
C63   C     C_R   0.833357 0.702747 0.495871 -0.137411
C64   C     C_R   0.829356 0.299285 0.492333 -0.131269
H1    H     H_    0.293316 0.186521 0.285561 0.188623
H2    H     H_    0.276261 0.831395 0.290941 0.206557
H3    H     H_    0.793323 0.686525 0.285557 0.188630
H4    H     H_    0.776285 0.331392 0.290888 0.206577
H5    H     H_    0.403549 0.273201 0.940742 0.201224
H6    H     H_    0.430093 0.685337 0.904368 0.184095
H7    H     H_    0.903538 0.773185 0.940767 0.201236
H8    H     H_    0.930072 0.185315 0.904417 0.184100
H9    H     H_    0.744453 0.804458 0.973248 0.212984
H10   H     H_    0.773423 0.156226 0.961609 0.174476
H11   H     H_    0.244465 0.304470 0.973238 0.212978
H12   H     H_    0.273456 0.656241 0.961570 0.174415
H13   H     H_    0.639833 0.818354 0.782266 0.224835
H14   H     H_    0.653752 0.165616 0.789139 0.215461
H15   H     H_    0.139836 0.318358 0.782270 0.224837
H16   H     H_    0.153788 0.665597 0.789133 0.215437
H17   H     H_    0.639319 0.987238 0.137923 0.162858
H18   H     H_    0.139318 0.487234 0.137923 0.162841
N1    N     N_R   0.498810 1.000000 0.142780 -0.105398
N2    N     N_R   0.998810 0.500000 0.142780 -0.105400
N3    N     N_R   0.498740 0.000000 0.857170 -0.134603
N4    N     N_R   0.998740 0.500000 0.857170 -0.134590
O1    O     O_R   0.408390 0.908380 0.614690 -0.569061
O2    O     O_R   0.408390 0.091620 0.614690 -0.627919
O3    O     O_R   0.908390 0.408380 0.614690 -0.569054
O4    O     O_R   0.908390 0.591620 0.614690 -0.627930
O5    O     O_R   0.408370 0.908380 0.385360 -0.635128
O6    O     O_R   0.408370 0.091620 0.385360 -0.633746
O7    O     O_R   0.908370 0.408380 0.385360 -0.635124
O8    O     O_R   0.908370 0.591620 0.385360 -0.633721
O9    O     O_R   0.591620 0.091610 0.614640 -0.624143
O10   O     O_R   0.591620 0.908390 0.614640 -0.625869
O11   O     O_R   0.091620 0.591610 0.614640 -0.624127
O12   O     O_R   0.091620 0.408390 0.614640 -0.625867
O13   O     O_R   0.591610 0.091610 0.385310 -0.583547
O14   O     O_R   0.591610 0.908390 0.385310 -0.575041
O15   O     O_R   0.091610 0.591610 0.385310 -0.583614
O16   O     O_R   0.091610 0.408390 0.385310 -0.575036
Zn1   Zn    Zn3+2 0.500010 1.000000 0.653130 1.007916
Zn2   Zn    Zn3+2 0.000010 0.500000 0.653130 1.007930
Zn3   Zn    Zn3+2 0.499980 0.000000 0.346870 1.026966
Zn4   Zn    Zn3+2 0.999980 0.500000 0.346870 1.026951
C65   C     C_1   0.202748 0.074652 0.776082 0.290165
N5    N     N_1   0.146091 0.087956 0.694760 -0.095305
C66   C     C_1   0.702746 0.574671 0.776104 0.290159
N6    N     N_1   0.646084 0.587973 0.694787 -0.095315
Cl1   Cl    Cl    0.294237 0.897457 0.823831 -0.600328
Cl2   Cl    Cl    0.794226 0.397479 0.823820 -0.600320
C67   C     C_1   0.661455 0.991214 0.872163 0.174964
N7    N     N_1   0.729787 0.988448 0.822124 -0.188953
C68   C     C_1   0.161455 0.491209 0.872165 0.174936
N8    N     N_1   0.229786 0.488442 0.822127 -0.188966
Cl3   Cl    Cl    0.498166 0.251329 0.703268 -0.615491
Cl4   Cl    Cl    0.503860 0.732739 0.655467 -0.678571
Cl5   Cl    Cl    0.998166 0.751319 0.703297 -0.615413
Cl6   Cl    Cl    0.003847 0.232737 0.655507 -0.678537
Cl7   Cl    Cl    0.646571 0.784493 0.225463 -0.643183
Cl8   Cl    Cl    0.617131 0.244587 0.246414 -0.574486
Cl9   Cl    Cl    0.146575 0.284502 0.225462 -0.643180
Cl10  Cl    Cl    0.116934 0.744772 0.246641 -0.574305
C69   C     C_1   0.293541 0.008756 0.236543 0.303751
N9    N     N_1   0.257445 0.992808 0.334783 -0.189713
C70   C     C_1   0.793535 0.508718 0.236525 0.303736
N10   N     N_1   0.757427 0.492729 0.334732 -0.189775
C71   C     C_1   0.175552 0.093325 0.056675 0.276135
N11   N     N_1   0.105061 0.113023 0.088477 -0.111459
C72   C     C_1   0.675555 0.593328 0.056699 0.276124
N12   N     N_1   0.605061 0.613016 0.088505 -0.111477

loop_
_geom_bond_atom_site_label_1
_geom_bond_atom_site_label_2
_ccdc_geom_bond_type
C58   C62   A    
C49   C53   A    
C19   C71   S    
C40   C60   A    
C28   N2    A    
O5    Zn3   S    
C13   C32   S    
C24   Cl2   S    
C14   C31   S    
N4    Zn2   S    
C1    C62   S    
C53   C59   A    
C54   C60   A    
C3    C64   S    
C4    C63   S    
O14   Zn3   S    
C50   C54   A    
C57   C61   A    
C33   O15   A    
C19   C21   A    
C24   C26   A    
C5    C11   A    
C48   C52   A    
C34   O16   A    
C6    C12   A    
O7    Zn4   S    
C31   O9    A    
C68   N8    T    
C42   H6    S    
C18   C20   A    
C45   H9    S    
C1    O1    A    
C9    C13   A    
C17   C19   A    
C38   C58   A    
C11   C15   A    
C12   C16   A    
O9    Zn1   S    
C9    Cl7   S    
C65   N5    T    
C44   H8    S    
C31   O13   A    
C15   C34   S    
C13   C53   A    
N3    Zn1   S    
C2    C61   S    
C1    O5    A    
C18   C70   S    
C37   C41   A    
C50   H14   S    
C44   C46   A    
C60   C64   A    
C4    O4    A    
O13   Zn3   S    
C17   C27   A    
C18   C28   A    
C5    H1    S    
C7    C63   A    
C39   C43   A    
C36   N4    A    
C32   O14   A    
C49   H13   S    
C15   C55   A    
C30   H18   S    
C16   C56   A    
C29   H17   S    
C16   C33   S    
N2    Zn4   S    
C12   Cl10  S    
C45   C49   A    
C26   N4    A    
C22   C66   S    
C39   C59   A    
C25   N3    A    
C41   C47   A    
C5    C61   A    
C3    O7    A    
C42   C48   A    
C2    O6    A    
C43   C45   A    
O4    Zn2   S    
C21   C65   S    
C8    C64   A    
O1    Zn1   S    
C14   C54   A    
C20   C22   A    
C8    H4    S    
C55   C57   A    
O3    Zn2   S    
C10   C14   A    
C69   N9    T    
C22   C24   A    
C2    O2    A    
O10   Zn1   S    
C20   C72   S    
C40   C44   A    
C72   N12   T    
C39   Cl5   S    
C46   H10   S    
O2    Zn1   S    
C41   H5    S    
C67   N7    T    
O15   Zn4   S    
C7    C9    A    
C46   C50   A    
O8    Zn4   S    
C43   H7    S    
C40   Cl6   S    
C26   C28   A    
C11   Cl9   S    
C10   Cl8   S    
C47   C51   A    
C29   N1    A    
C70   N10   T    
C25   C27   A    
C23   Cl1   S    
C29   C35   A    
C59   C63   A    
C30   C36   A    
C3    O3    A    
C6    C62   A    
C21   C23   A    
C71   N11   T    
C47   H11   S    
C32   O10   A    
C66   N6    T    
C35   N3    A    
C17   C69   S    
C4    O8    A    
O12   Zn2   S    
C27   N1    A    
C34   O12   A    
C56   C58   A    
C35   C67   S    
C51   C55   A    
C23   C25   A    
C30   N2    A    
C51   H15   S    
O11   Zn2   S    
C7    H3    S    
C48   H12   S    
C38   Cl4   S    
C38   C42   A    
N1    Zn3   S    
O6    Zn3   S    
C6    H2    S    
C37   Cl3   S    
C8    C10   A    
O16   Zn4   S    
C33   O11   A    
C52   H16   S    
C36   C68   S    
C37   C57   A    
C52   C56   A    
