data_mof_unit_61428.cif
_audit_creation_date              2012-12-10T17:59:06-0500
_audit_creation_method            fapswitch 2.2
_symmetry_space_group_name_H-M    P1
_symmetry_Int_Tables_number       1
_space_group_crystal_system       triclinic
_cell_length_a                    18.8379
_cell_length_b                    18.725537
_cell_length_c                    18.733394
_cell_angle_alpha                 109.088578
_cell_angle_beta                  109.901694
_cell_angle_gamma                 109.308696
_cell_volume                      5093.97695723

loop_
_atom_site_label
_atom_site_type_symbol
_atom_type_description
_atom_site_fract_x
_atom_site_fract_y
_atom_site_fract_z
_atom_type_partial_charge
C1    C     C_R   0.618353 0.618959 0.499717 0.795376
C2    C     C_3   0.178639 0.420879 0.205837 -0.160800
C3    C     C_3   0.224413 0.483657 0.305126 -0.150036
C4    C     C_3   0.312090 0.498828 0.311670 0.023246
C5    C     C_R   0.763244 0.687066 0.514841 0.104051
C6    C     C_R   0.685858 0.687024 0.502052 -0.078806
C7    C     C_R   0.678291 0.758995 0.501105 -0.209103
C8    C     C_R   0.742554 0.823332 0.500752 -0.215950
C9    C     C_R   0.816024 0.817413 0.504378 -0.083703
C10   C     C_R   0.827844 0.751887 0.517167 0.139206
C11   C     C_3   0.849380 0.689366 0.468666 -0.485280
C12   C     C_R   0.380346 0.499622 0.380241 0.776790
C13   C     C_3   0.778126 0.618096 0.465956 -0.449651
C14   C     C_R   0.698827 0.430119 0.673895 0.054632
C15   C     C_R   0.687609 0.502119 0.687981 -0.078183
C16   C     C_R   0.745031 0.577151 0.771652 -0.195272
C17   C     C_R   0.811047 0.577409 0.836660 -0.214361
C18   C     C_R   0.818728 0.502041 0.819157 -0.072692
C19   C     C_R   0.760605 0.429770 0.736831 0.084801
C20   C     C_3   0.736716 0.339023 0.679638 0.181840
C21   C     C_3   0.665479 0.338969 0.607734 -0.463840
C22   C     C_R   0.318545 0.243935 0.501014 0.127489
C23   C     C_R   0.381231 0.381362 0.499823 0.798964
C24   C     C_R   0.313567 0.315355 0.498612 -0.087755
C25   C     C_R   0.240275 0.321733 0.496151 -0.211103
C26   C     C_R   0.174896 0.256380 0.495237 -0.207474
C27   C     C_R   0.183895 0.185833 0.499802 -0.091972
C28   C     C_R   0.257647 0.183165 0.503448 0.128555
C29   C     C_3   0.303583 0.132195 0.508160 -0.473970
C30   C     C_3   0.373680 0.202218 0.506368 -0.481211
C31   C     C_R   0.003540 0.618961 0.122126 0.787239
C32   C     C_R   0.123227 0.499538 0.123074 0.772393
C33   C     C_R   0.004705 0.381247 0.885862 0.830140
C34   C     C_R   0.619866 0.500450 0.619956 0.804086
C35   C     C_R   0.884689 0.500233 0.884431 0.833713
C36   C     C_R   0.999162 0.118402 0.617864 0.796984
C37   C     C_R   0.881434 0.881307 0.500383 0.789387
C38   C     C_R   0.000824 0.881336 0.381851 0.790316
C39   C     C_R   0.118417 0.118736 0.499869 0.797018
C40   C     C_R   0.927195 0.689744 0.172525 0.096018
C41   C     C_R   0.003708 0.686980 0.187421 -0.072375
C42   C     C_R   0.082597 0.756587 0.262132 -0.209186
C43   C     C_R   0.082171 0.821005 0.326250 -0.212442
C44   C     C_R   0.003074 0.817605 0.314417 -0.085079
C45   C     C_3   0.324323 0.576692 0.296549 -0.150893
C46   C     C_R   0.927036 0.754641 0.234570 0.140814
C47   C     C_3   0.840505 0.693251 0.216789 -0.480502
C48   C     C_3   0.840900 0.621900 0.148707 -0.461323
C49   C     C_R   0.931949 0.233164 0.760456 0.177564
C50   C     C_R   0.004864 0.315251 0.818926 -0.081212
C51   C     C_R   0.078893 0.332654 0.809048 -0.198138
C52   C     C_R   0.077475 0.267772 0.742813 -0.207056
C53   C     C_R   0.001258 0.186011 0.684351 -0.071268
C54   C     C_R   0.929721 0.172211 0.695185 0.129986
C55   C     C_3   0.839216 0.105820 0.662218 -0.503812
C56   C     C_3   0.235578 0.561567 0.288913 -0.145758
C57   C     C_3   0.841304 0.175553 0.736323 -0.434461
C58   C     C_3   0.190879 0.498792 0.190714 0.024200
C59   C     C_3   0.278567 0.513893 0.197246 -0.159761
C60   C     C_3   0.267341 0.436016 0.213370 -0.164703
Cu1   Cu    Cu3+1 0.500490 0.438210 0.438660 0.944655
Cu2   Cu    Cu3+1 0.499510 0.561790 0.561340 0.945276
Cu3   Cu    Cu3+1 0.942090 0.438240 0.003860 0.939905
Cu4   Cu    Cu3+1 0.065700 0.561800 0.003830 0.966329
Cu5   Cu    Cu3+1 0.937720 0.000020 0.437750 0.958870
Cu6   Cu    Cu3+1 0.062280 0.000080 0.562350 0.946102
H1    H     H_    0.221209 0.612969 0.318511 0.122176
H2    H     H_    0.915671 0.702204 0.509727 0.207881
H3    H     H_    0.721879 0.569745 0.398863 0.210424
H4    H     H_    0.803362 0.589838 0.505422 0.205138
H5    H     H_    0.739786 0.635511 0.786418 0.161312
H6    H     H_    0.855016 0.635534 0.900238 0.143901
H7    H     H_    0.711479 0.293419 0.702099 0.102824
H8    H     H_    0.675476 0.335694 0.551833 0.240354
H9    H     H_    0.598333 0.294301 0.589488 0.155111
H10   H     H_    0.233105 0.376128 0.493840 0.152724
H11   H     H_    0.385327 0.640497 0.334978 0.124913
H12   H     H_    0.118617 0.261722 0.492518 0.161307
H13   H     H_    0.326741 0.132217 0.571241 0.205992
H14   H     H_    0.266560 0.067132 0.448539 0.192494
H15   H     H_    0.437042 0.243040 0.568666 0.189031
H16   H     H_    0.377614 0.177489 0.446021 0.208218
H17   H     H_    0.143695 0.758753 0.272766 0.146910
H18   H     H_    0.142968 0.872107 0.385443 0.152964
H19   H     H_    0.844245 0.684061 0.273396 0.186338
H20   H     H_    0.789499 0.708874 0.188038 0.204272
H21   H     H_    0.845026 0.571369 0.165933 0.212787
H22   H     H_    0.299600 0.526240 0.151816 0.137804
H23   H     H_    0.790116 0.596410 0.080736 0.195954
H24   H     H_    0.137829 0.395396 0.852878 0.160404
H25   H     H_    0.135140 0.281504 0.736927 0.146486
H26   H     H_    0.793217 0.089449 0.595751 0.221817
H27   H     H_    0.836324 0.049217 0.671026 0.190642
H28   H     H_    0.796485 0.199441 0.712682 0.228779
H29   H     H_    0.839137 0.158835 0.787551 0.190657
H30   H     H_    0.281334 0.384465 0.183300 0.146181
H31   H     H_    0.117794 0.356952 0.167498 0.142224
H32   H     H_    0.203523 0.471229 0.350612 0.129663
H33   H     H_    0.620996 0.763168 0.496339 0.148872
H34   H     H_    0.734154 0.876416 0.495972 0.154196
H35   H     H_    0.834565 0.682292 0.403203 0.185892
O1    O     O_R   0.590590 0.537990 0.448210 -0.586082
O2    O     O_R   0.055390 0.642370 0.093330 -0.588457
O3    O     O_R   0.042570 0.447840 0.094710 -0.590577
O4    O     O_R   0.146960 0.552180 0.094690 -0.594053
O5    O     O_R   0.952400 0.357670 0.914360 -0.593778
O6    O     O_R   0.056780 0.462020 0.914330 -0.579188
O7    O     O_R   0.860840 0.447860 0.913000 -0.597977
O8    O     O_R   0.965220 0.552200 0.912980 -0.566413
O9    O     O_R   0.946640 0.090180 0.536890 -0.576502
O10   O     O_R   0.051820 0.090220 0.642110 -0.587501
O11   O     O_R   0.857230 0.909860 0.447430 -0.587362
O12   O     O_R   0.589760 0.642350 0.551800 -0.586987
O13   O     O_R   0.962420 0.909900 0.552660 -0.581919
O14   O     O_R   0.948170 0.909880 0.357990 -0.582153
O15   O     O_R   0.053360 0.909920 0.463210 -0.588517
O16   O     O_R   0.037580 0.090200 0.447440 -0.583898
O17   O     O_R   0.142770 0.090240 0.552670 -0.588429
O18   O     O_R   0.409550 0.447830 0.357350 -0.590320
O19   O     O_R   0.408710 0.552190 0.460940 -0.590226
O20   O     O_R   0.410240 0.357650 0.448200 -0.585213
O21   O     O_R   0.409410 0.462010 0.551790 -0.585643
O22   O     O_R   0.591290 0.447810 0.539060 -0.581746
O23   O     O_R   0.590450 0.552170 0.642650 -0.590884
O24   O     O_R   0.951010 0.538020 0.093350 -0.587636
Cl1   Cl    Cl    0.821057 0.335993 0.657652 -0.631996

loop_
_geom_bond_atom_site_label_1
_geom_bond_atom_site_label_2
_ccdc_geom_bond_type
Cu4   O2    S    
C34   O22   A    
Cu1   O18   S    
C41   C42   A    
C54   C55   S    
C19   C20   S    
C33   O6    A    
C32   C58   S    
C55   H27   S    
Cu2   O23   S    
C7    C8    A    
C23   O20   A    
C53   C54   A    
C52   C53   A    
C40   C46   A    
C26   C27   A    
C26   H12   S    
Cu6   O15   S    
C47   H19   S    
C14   C21   S    
C28   C29   S    
C51   H24   S    
C5    C6    A    
C2    C60   S    
C13   H4    S    
C49   C54   A    
C49   C57   S    
Cu1   O20   S    
C18   C19   A    
C59   H22   S    
C37   O11   A    
C35   O7    A    
C33   C50   S    
C12   O19   A    
C2    H31   S    
C27   C39   S    
C8    C9    A    
C23   C24   S    
C32   O3    A    
C36   C53   S    
Cu6   O10   S    
C4    C12   S    
Cu6   O13   S    
C18   C35   S    
C15   C34   S    
Cu2   O19   S    
C35   O8    A    
C59   C60   S    
C22   C28   A    
C43   H18   S    
Cu5   O14   S    
C16   H5    S    
C1    O12   A    
C44   C46   A    
C17   C18   A    
C23   O21   A    
C4    C45   S    
C33   O5    A    
C1    C6    S    
C47   H20   S    
Cu4   O4    S    
C24   C25   A    
C45   C56   S    
Cu2   O12   S    
Cu6   O17   S    
C16   C17   A    
C37   O13   A    
C25   C26   A    
C39   O16   A    
C21   H8    S    
C51   C52   A    
C31   O2    A    
C30   H16   S    
C43   C44   A    
Cu5   O11   S    
C38   C44   S    
C29   C30   S    
C12   O18   A    
C38   O15   A    
C3    C56   S    
C47   C48   S    
C29   H13   S    
C4    C60   S    
C36   O10   A    
C9    C37   S    
C50   C51   A    
C48   H21   S    
C11   H35   S    
Cu3   O5    S    
Cu3   O24   S    
C7    H33   S    
C60   H30   S    
C40   C41   A    
C55   H26   S    
C49   C50   A    
C57   H28   S    
C55   C57   S    
C36   O9    A    
C22   C24   A    
C42   C43   A    
C31   O24   A    
C3    C4    S    
C39   O17   A    
Cu2   O21   S    
C11   H2    S    
Cu4   O6    S    
C9    C10   A    
C40   C48   S    
C46   C47   S    
C45   C59   S    
C34   O23   A    
C31   C41   S    
C14   C15   A    
C5    C13   S    
C14   C19   A    
C42   H17   S    
Cu3   O3    S    
C2    C58   S    
C6    C7    A    
C56   H1    S    
C21   H9    S    
Cu1   O22   S    
C32   O4    A    
C25   H10   S    
C30   H15   S    
Cu1   O1    S    
C58   C59   S    
C5    C10   A    
C22   C30   S    
C38   O14   A    
C11   C13   S    
C3    H32   S    
Cu4   O8    S    
C29   H14   S    
C13   H3    S    
C56   C58   S    
C20   H7    S    
C2    C3    S    
C8    H34   S    
Cu1   Cu2   S    
Cu5   O9    S    
C10   C11   S    
Cu3   Cu4   S    
C20   C21   S    
C17   H6    S    
Cu5   Cu6   S    
C57   H29   S    
C27   C28   A    
Cu5   O16   S    
C20   Cl1   S    
C52   H25   S    
C45   H11   S    
Cu3   O7    S    
C1    O1    A    
C48   H23   S    
C15   C16   A    
