data_mof_unit_64255.cif
_audit_creation_date              2012-12-10T16:46:04-0500
_audit_creation_method            fapswitch 2.2
_symmetry_space_group_name_H-M    P1
_symmetry_Int_Tables_number       1
_space_group_crystal_system       triclinic
_cell_length_a                    18.505914
_cell_length_b                    18.506339
_cell_length_c                    34.504505
_cell_angle_alpha                 89.999134
_cell_angle_beta                  89.999317
_cell_angle_gamma                 89.98021
_cell_volume                      11816.9889211

loop_
_atom_site_label
_atom_site_type_symbol
_atom_type_description
_atom_site_fract_x
_atom_site_fract_y
_atom_site_fract_z
_atom_type_partial_charge
C1    C     C_R   0.500000 1.000000 0.605940 0.822432
C2    C     C_R   0.105942 0.419741 0.231681 -0.021352
C3    C     C_R   0.544234 0.950680 0.669299 -0.069536
C4    C     C_R   0.450735 0.044287 0.169296 -0.069523
C5    C     C_R   0.955192 0.548791 0.169270 -0.069653
C6    C     C_R   0.549267 0.955703 0.169295 -0.069363
C7    C     C_R   0.044822 0.451210 0.169268 -0.069488
C8    C     C_R   0.000000 0.500005 0.648839 -0.147725
C9    C     C_R   0.500000 0.999998 0.648844 -0.147886
C10   C     C_R   0.500000 0.999995 0.148843 -0.147838
C11   C     C_R   0.000005 0.500000 0.148828 -0.147406
C12   C     C_R   0.043265 0.448769 0.710030 0.053491
C13   C     C_R   0.418796 0.105200 0.231690 -0.021157
C14   C     C_R   0.551064 0.956534 0.710038 0.053418
C15   C     C_R   0.956735 0.551241 0.710030 0.053486
C16   C     C_R   0.448932 0.043456 0.710037 0.053428
C17   C     C_R   0.543423 0.948893 0.210036 0.053412
C18   C     C_R   0.051526 0.457062 0.210018 0.053561
C19   C     C_R   0.456586 0.051102 0.210036 0.053435
C20   C     C_R   0.948481 0.542930 0.210018 0.053569
C21   C     C_R   0.999999 0.500004 0.730305 -0.007926
C22   C     C_R   0.499998 0.999996 0.730312 -0.007973
C23   C     C_R   0.500005 0.999998 0.230310 -0.007961
C24   C     C_R   0.894062 0.580247 0.231681 -0.021368
C25   C     C_R   0.000003 0.499995 0.230294 -0.007897
C26   C     C_1   0.892152 0.579195 0.648456 0.272803
C27   C     C_1   0.421343 0.108266 0.648498 0.273069
C28   C     C_1   0.107863 0.420832 0.648461 0.272753
C29   C     C_1   0.578654 0.891730 0.648497 0.273110
C30   C     C_1   0.391842 0.078791 0.148486 0.272995
C31   C     C_1   0.919988 0.607207 0.148410 0.272259
C32   C     C_1   0.608145 0.921183 0.148480 0.272991
C33   C     C_1   0.080046 0.392812 0.148404 0.272262
C34   C     C_2   0.110771 0.327257 0.714818 0.410028
C35   C     C_R   0.584108 0.899357 0.271994 -0.296835
C36   C     C_2   0.672331 0.888571 0.714815 0.409869
C37   C     C_2   0.889233 0.672755 0.714819 0.410077
C38   C     C_2   0.327647 0.111384 0.714813 0.409961
C39   C     C_2   0.611296 0.827579 0.214822 0.409871
C40   C     C_2   0.173442 0.390263 0.214824 0.410214
C41   C     C_2   0.388734 0.172427 0.214817 0.409807
C42   C     C_2   0.826562 0.609724 0.214823 0.410176
C43   C     C_R   0.101386 0.416791 0.271982 -0.296748
C44   C     C_R   0.415906 0.100645 0.271992 -0.296894
C45   C     C_R   0.898615 0.583198 0.271981 -0.296813
C46   C     C_R   0.083807 0.399117 0.771990 -0.296855
C47   C     C_R   0.600585 0.915826 0.771993 -0.296936
C48   C     C_R   0.916192 0.600890 0.771990 -0.296802
C49   C     C_R   1.000000 0.500002 0.605937 0.822437
C50   C     C_R   0.399403 0.084159 0.771992 -0.296915
C51   C     C_R   0.543943 0.951009 0.291801 0.124625
C52   C     C_R   0.049375 0.456490 0.291790 0.124700
C53   C     C_R   0.456066 0.048989 0.291800 0.124710
C54   C     C_R   0.950628 0.543501 0.291790 0.124787
C55   C     C_R   0.043795 0.450887 0.791798 0.124739
C56   C     C_R   0.548961 0.956027 0.791802 0.124706
C57   C     C_R   0.956203 0.549119 0.791799 0.124661
C58   C     C_R   0.451034 0.043966 0.791801 0.124637
C59   C     C_R   0.500005 0.999999 0.271209 0.078372
C60   C     C_R   0.000001 0.500000 0.105933 0.822593
C61   C     C_R   0.000002 0.499995 0.271196 0.078287
C62   C     C_R   0.999999 0.500003 0.771206 0.078335
C63   C     C_R   0.499998 0.999997 0.771211 0.078383
C64   C     C_R   0.544895 0.952359 0.332248 -0.241680
C65   C     C_R   0.048025 0.455518 0.332241 -0.241656
C66   C     C_R   0.455110 0.047639 0.332247 -0.241735
C67   C     C_R   0.951979 0.544477 0.332240 -0.241778
C68   C     C_R   0.044755 0.452234 0.832246 -0.241685
C69   C     C_R   0.547612 0.955078 0.832248 -0.241854
C70   C     C_R   0.955244 0.547771 0.832247 -0.241596
C71   C     C_R   0.500000 0.999999 0.105939 0.822281
C72   C     C_R   0.452384 0.044919 0.832248 -0.241772
C73   C     C_R   0.500001 0.999999 0.352311 -0.029410
C74   C     C_R   0.000002 0.499999 0.352306 -0.029088
C75   C     C_R   0.000000 0.500002 0.852309 -0.029229
C76   C     C_R   0.499999 0.000000 0.852311 -0.029504
C77   C     C_R   0.500000 0.999999 0.394341 0.808490
C78   C     C_R   0.000001 0.500000 0.394340 0.808290
C79   C     C_R   0.000000 0.500001 0.894340 0.808477
C80   C     C_R   0.499999 0.000000 0.894341 0.808437
C81   C     C_R   0.361322 0.138369 0.500177 0.855613
C82   C     C_R   0.080901 0.394568 0.731688 -0.021331
C83   C     C_R   0.861293 0.361656 0.499923 0.856745
C84   C     C_R   0.638351 0.861302 0.499930 0.857265
C85   C     C_R   0.138388 0.638662 0.500162 0.855795
C86   C     C_R   0.638662 0.138387 0.500162 0.855940
C87   C     C_R   0.138698 0.361650 0.499931 0.857340
C88   C     C_R   0.361656 0.861294 0.499922 0.856641
C89   C     C_R   0.861631 0.638677 0.500177 0.855505
C90   C     C_R   0.861649 0.638697 0.999930 0.857225
C91   C     C_R   0.361611 0.861338 0.000162 0.855791
C92   C     C_R   0.138674 0.361629 0.000175 0.855509
C93   C     C_R   0.605134 0.918701 0.731691 -0.021223
C94   C     C_R   0.638388 0.138662 0.000162 0.855936
C95   C     C_R   0.138344 0.638706 0.999922 0.856681
C96   C     C_R   0.638369 0.861323 0.000177 0.855665
C97   C     C_R   0.861656 0.361294 0.999923 0.856791
C98   C     C_R   0.361307 0.138354 0.999934 0.857394
C99   C     C_2   0.193140 0.750684 0.477137 -0.155685
C100  C     C_2   0.249347 0.193165 0.477126 -0.162335
C101  C     C_2   0.808116 0.248062 0.478084 -0.153444
C102  C     C_2   0.751939 0.808117 0.478089 -0.157865
C103  C     C_2   0.806834 0.750650 0.477124 -0.162115
C104  C     C_R   0.919098 0.605442 0.731687 -0.021323
C105  C     C_2   0.750687 0.193139 0.477138 -0.155899
C106  C     C_2   0.191881 0.248062 0.478091 -0.158069
C107  C     C_2   0.248062 0.808114 0.478083 -0.153223
C108  C     C_2   0.693138 0.250686 0.977138 -0.155906
C109  C     C_2   0.748060 0.691882 0.978091 -0.158037
C110  C     C_2   0.306862 0.749316 0.977138 -0.155691
C111  C     C_2   0.250706 0.306889 0.977165 -0.162244
C112  C     C_2   0.308144 0.251961 0.978111 -0.157898
C113  C     C_2   0.251940 0.691885 0.978083 -0.153221
C114  C     C_2   0.693165 0.749348 0.977126 -0.162123
C115  C     C_R   0.394854 0.081278 0.731690 -0.021236
C116  C     C_2   0.748059 0.308117 0.978085 -0.153436
C117  C     C_2   0.193209 0.694538 0.501713 -0.284943
C118  C     C_2   0.305370 0.193117 0.501779 -0.277053
C119  C     C_2   0.803916 0.308335 0.499549 -0.286058
C120  C     C_2   0.691682 0.803923 0.499561 -0.279214
C121  C     C_2   0.806882 0.694630 0.501779 -0.277093
C122  C     C_2   0.694539 0.193207 0.501713 -0.284916
C123  C     C_2   0.196076 0.308317 0.499562 -0.279113
C124  C     C_2   0.308336 0.803916 0.499548 -0.286167
C125  C     C_2   0.693206 0.194540 0.001715 -0.284891
C126  C     C_R   0.581220 0.894801 0.231692 -0.021133
C127  C     C_2   0.808317 0.696076 0.999561 -0.279153
C128  C     C_2   0.306791 0.805462 0.001714 -0.284926
C129  C     C_2   0.194593 0.306848 0.001760 -0.277059
C130  C     C_2   0.303953 0.191708 0.999586 -0.279106
C131  C     C_2   0.191664 0.696084 0.999547 -0.286123
C132  C     C_2   0.693118 0.805369 0.001780 -0.277077
C133  C     C_2   0.808336 0.303915 0.999547 -0.286022
C134  C     C_R   0.950884 0.544462 0.669287 -0.069418
C135  C     C_R   0.455764 0.049314 0.669299 -0.069271
C136  C     C_R   0.049119 0.455552 0.669288 -0.069540
H1    H     H_    0.150707 0.755790 0.455553 0.178011
H2    H     H_    0.738444 0.644923 0.959918 0.176446
H3    H     H_    0.349295 0.744211 0.955553 0.177991
H4    H     H_    0.255757 0.349277 0.955553 0.175753
H5    H     H_    0.355093 0.261562 0.959926 0.176551
H6    H     H_    0.261586 0.644912 0.959921 0.178062
H7    H     H_    0.650871 0.744393 0.955454 0.175832
H8    H     H_    0.738411 0.355094 0.959924 0.177865
H9    H     H_    0.233208 0.688462 0.524308 0.154409
H10   H     H_    0.311270 0.232947 0.524473 0.158858
H11   H     H_    0.757310 0.321012 0.517168 0.152715
H12   H     H_    0.244390 0.150872 0.455455 0.175728
H13   H     H_    0.679015 0.757308 0.517170 0.154708
H14   H     H_    0.767053 0.688732 0.524475 0.158809
H15   H     H_    0.688461 0.233206 0.524308 0.154458
H16   H     H_    0.242691 0.320982 0.517171 0.154782
H17   H     H_    0.321014 0.757312 0.517167 0.152630
H18   H     H_    0.733203 0.188467 0.024311 0.154468
H19   H     H_    0.820984 0.742691 0.017170 0.154707
H20   H     H_    0.266792 0.811537 0.024309 0.154416
H21   H     H_    0.188570 0.266910 0.024389 0.158728
H22   H     H_    0.257375 0.179065 0.017226 0.154724
H23   H     H_    0.855091 0.238418 0.459921 0.177872
H24   H     H_    0.178985 0.742688 0.017166 0.152630
H25   H     H_    0.732947 0.811267 0.024475 0.158813
H26   H     H_    0.821017 0.257307 0.017163 0.152715
H27   H     H_    0.614457 0.859315 0.288249 0.140295
H28   H     H_    0.141687 0.386791 0.288239 0.140347
H29   H     H_    0.385561 0.140690 0.288246 0.140212
H30   H     H_    0.858312 0.613195 0.288238 0.140260
H31   H     H_    0.114037 0.358985 0.788245 0.140231
H32   H     H_    0.640609 0.885452 0.788248 0.140210
H33   H     H_    0.885962 0.641023 0.788245 0.140312
H34   H     H_    0.761555 0.855076 0.459915 0.176607
H35   H     H_    0.359373 0.114525 0.788246 0.140298
H36   H     H_    0.578838 0.914947 0.348222 0.147328
H37   H     H_    0.085722 0.421896 0.348216 0.147013
H38   H     H_    0.421166 0.085051 0.348220 0.147030
H39   H     H_    0.914282 0.578100 0.348214 0.146719
H40   H     H_    0.078591 0.414725 0.848221 0.146923
H41   H     H_    0.585003 0.921112 0.848221 0.147064
H42   H     H_    0.921408 0.585279 0.848221 0.147210
H43   H     H_    0.414991 0.078884 0.848220 0.147361
H44   H     H_    0.160294 0.304364 0.726393 0.056580
H45   H     H_    0.849127 0.755605 0.455452 0.175879
H46   H     H_    0.695067 0.838991 0.726411 0.056462
H47   H     H_    0.839707 0.695646 0.726392 0.056610
H48   H     H_    0.304886 0.160950 0.726411 0.056463
H49   H     H_    0.660878 0.804826 0.226405 0.056375
H50   H     H_    0.196551 0.340811 0.226366 0.056686
H51   H     H_    0.339166 0.195201 0.226407 0.056387
H52   H     H_    0.803437 0.659163 0.226371 0.056677
H53   H     H_    0.755794 0.150707 0.455554 0.177857
H54   H     H_    0.144922 0.238447 0.459917 0.176435
H55   H     H_    0.238417 0.855087 0.459919 0.178067
H56   H     H_    0.650706 0.255791 0.955553 0.177844
N1    N     N_1   0.845252 0.606521 0.631751 -0.168828
N2    N     N_1   0.394267 0.155346 0.631821 -0.168890
N3    N     N_1   0.154774 0.393518 0.631759 -0.167572
N4    N     N_1   0.605729 0.844651 0.631820 -0.167595
N5    N     N_1   0.344811 0.105933 0.131801 -0.167658
N6    N     N_1   0.892286 0.653855 0.131680 -0.167583
N7    N     N_1   0.655163 0.894029 0.131789 -0.168917
N8    N     N_1   0.107764 0.346180 0.131669 -0.168845
O1    O     O_3   0.500000 1.000000 0.500000 -0.494968
O2    O     O_R   0.560130 0.000000 0.087440 -0.635223
O3    O     O_R   0.000000 0.560130 0.087440 -0.634762
O4    O     O_R   0.439870 0.000000 0.087440 -0.635067
O5    O     O_R   0.439940 0.000000 0.412560 -0.644226
O6    O     O_R   0.000000 0.439940 0.412560 -0.643855
O7    O     O_R   0.560060 0.000000 0.412560 -0.644306
O8    O     O_R   0.000000 0.560060 0.412560 -0.644452
O9    O     O_R   0.939940 0.500000 0.912560 -0.644004
O10   O     O_R   0.500000 0.939940 0.912560 -0.644505
O11   O     O_R   0.060060 0.500000 0.912560 -0.644260
O12   O     O_3   1.000000 0.500000 0.500000 -0.494986
O13   O     O_R   0.500000 0.060060 0.912560 -0.644249
O14   O     O_R   0.415450 0.144560 0.522930 -0.636032
O15   O     O_R   0.855440 0.415450 0.522930 -0.640788
O16   O     O_R   0.584550 0.855440 0.522930 -0.636106
O17   O     O_R   0.144560 0.584550 0.522930 -0.641364
O18   O     O_R   0.584550 0.144560 0.522930 -0.640954
O19   O     O_R   0.144560 0.415450 0.522930 -0.635769
O20   O     O_R   0.415450 0.855440 0.522930 -0.641178
O21   O     O_R   0.855440 0.584550 0.522930 -0.636426
O22   O     O_R   0.915450 0.644560 0.022930 -0.636104
O23   O     O_3   0.000000 0.500000 0.000000 -0.495006
O24   O     O_R   0.355440 0.915450 0.022930 -0.641355
O25   O     O_R   0.084550 0.355440 0.022930 -0.636408
O26   O     O_R   0.644560 0.084550 0.022930 -0.640950
O27   O     O_R   0.084550 0.644560 0.022930 -0.641175
O28   O     O_R   0.644560 0.915450 0.022930 -0.636107
O29   O     O_R   0.915450 0.355440 0.022930 -0.640785
O30   O     O_R   0.355440 0.084550 0.022930 -0.635825
O31   O     O_R   0.644640 0.915430 0.477080 -0.646083
O32   O     O_R   0.084570 0.644640 0.477080 -0.641701
O33   O     O_R   0.355360 0.084570 0.477080 -0.645671
O34   O     O_3   0.500000 0.000000 0.000000 -0.494939
O35   O     O_R   0.915430 0.355360 0.477080 -0.642262
O36   O     O_R   0.355360 0.915430 0.477080 -0.641999
O37   O     O_R   0.915430 0.644640 0.477080 -0.645364
O38   O     O_R   0.644640 0.084570 0.477080 -0.641992
O39   O     O_R   0.084570 0.355360 0.477080 -0.646328
O40   O     O_R   0.144640 0.415430 0.977080 -0.645639
O41   O     O_R   0.584570 0.144640 0.977080 -0.642007
O42   O     O_R   0.855360 0.584570 0.977080 -0.646308
O43   O     O_R   0.415430 0.855360 0.977080 -0.641718
O44   O     O_R   0.855360 0.415430 0.977080 -0.642256
O45   O     O_R   0.500000 0.939870 0.587440 -0.634785
O46   O     O_R   0.415430 0.144640 0.977080 -0.646112
O47   O     O_R   0.144640 0.584570 0.977080 -0.641997
O48   O     O_R   0.584570 0.855360 0.977080 -0.645421
O49   O     O_2   0.077639 0.293990 0.689954 -0.539292
O50   O     O_2   0.705687 0.921542 0.689922 -0.539406
O51   O     O_2   0.922371 0.706027 0.689957 -0.539393
O52   O     O_2   0.294312 0.078407 0.689916 -0.539443
O53   O     O_2   0.578278 0.794223 0.189948 -0.539480
O54   O     O_2   0.206610 0.423655 0.190021 -0.539238
O55   O     O_2   0.421749 0.205764 0.189934 -0.539427
O56   O     O_R   0.060130 0.500000 0.587440 -0.635087
O57   O     O_2   0.793410 0.576344 0.190010 -0.539180
O58   O     O_R   0.500000 0.060130 0.587440 -0.635266
O59   O     O_R   0.939870 0.500000 0.587440 -0.634922
O60   O     O_R   1.000000 0.439870 0.087440 -0.634918
Zn1   Zn    Zn3+2 0.414160 1.000000 0.467250 0.968534
Zn2   Zn    Zn3+2 0.914220 0.500000 0.532750 0.994373
Zn3   Zn    Zn3+2 0.500000 0.914220 0.532750 0.994255
Zn4   Zn    Zn3+2 0.085780 0.500000 0.532750 0.994271
Zn5   Zn    Zn3+2 0.000000 0.585780 0.032750 0.994307
Zn6   Zn    Zn3+2 0.414220 1.000000 0.032750 0.994217
Zn7   Zn    Zn3+2 0.000000 0.414220 0.032750 0.994446
Zn8   Zn    Zn3+2 0.585780 1.000000 0.032750 0.994356
Zn9   Zn    Zn3+2 1.000000 0.414160 0.467250 0.968447
Zn10  Zn    Zn3+2 0.585840 1.000000 0.467250 0.968386
Zn11  Zn    Zn3+2 0.000000 0.585840 0.467250 0.968560
Zn12  Zn    Zn3+2 0.914160 0.500000 0.967250 0.968339
Zn13  Zn    Zn3+2 0.500000 0.914160 0.967250 0.968597
Zn14  Zn    Zn3+2 0.085840 0.500000 0.967250 0.968459
Zn15  Zn    Zn3+2 0.500000 0.085840 0.967250 0.968465
Zn16  Zn    Zn3+2 0.500000 0.085780 0.532750 0.994435

loop_
_geom_bond_atom_site_label_1
_geom_bond_atom_site_label_2
_ccdc_geom_bond_type
C123  H16   S    
C71   O2    A    
C6    C32   S    
O31   Zn10  S    
C102  H34   S    
C47   H32   S    
C46   C55   A    
C2    C18   A    
O11   Zn14  S    
C24   C42   S    
C26   N1    T    
C34   H44   S    
C111  C112  S    
C97   C133  S    
C88   C124  S    
O59   Zn2   S    
C15   C134  A    
C133  H26   S    
C28   N3    T    
C13   C41   S    
C55   C68   A    
O29   Zn7   S    
C57   C62   A    
C68   H40   S    
C5    C20   A    
C113  H6    S    
C68   C75   A    
C23   C59   A    
C18   C25   A    
O12   Zn2   S    
C120  H13   S    
C17   C23   A    
O34   Zn13  S    
O5    Zn1   S    
C60   O60   A    
C57   C70   A    
C3    C9    A    
C24   C45   A    
C96   O28   A    
O33   Zn1   S    
O46   Zn15  S    
C94   O41   A    
O1    Zn1   S    
C43   C52   A    
C5    C11   A    
C42   O57   D    
C52   C61   A    
C77   O7    A    
C98   O46   A    
O24   Zn6   S    
C17   C126  A    
O34   Zn6   S    
O7    Zn10  S    
C8    C136  A    
C20   C25   A    
C119  H11   S    
C48   C104  A    
C55   C62   A    
O10   Zn13  S    
C38   H48   S    
C121  H14   S    
C41   H51   S    
C69   C76   A    
C117  H9    S    
C50   C115  A    
C86   O18   A    
C83   C119  S    
C3    C29   S    
C84   O31   A    
C85   O17   A    
C132  H25   S    
O28   Zn8   S    
C95   O47   A    
C22   C63   A    
C98   O30   A    
C4    C19   A    
C36   C93   S    
C109  C127  D    
O9    Zn12  S    
C38   O52   D    
O13   Zn15  S    
C67   H39   S    
O14   Zn16  S    
C106  C123  D    
C86   C122  S    
O12   Zn4   S    
C64   C73   A    
C50   H35   S    
O19   Zn4   S    
C87   O19   A    
C108  C125  D    
C110  C128  D    
C45   H30   S    
O43   Zn13  S    
C14   C93   A    
O23   Zn7   S    
C72   C76   A    
O35   Zn9   S    
C96   C132  S    
C69   H41   S    
C43   H28   S    
O8    Zn11  S    
O36   Zn1   S    
O17   Zn4   S    
C116  H8    S    
C124  H17   S    
C101  C105  S    
C87   C123  S    
C7    C33   S    
O15   Zn2   S    
C110  H3    S    
C131  H24   S    
C85   O32   A    
O44   Zn12  S    
C107  C124  D    
C12   C136  A    
C44   C53   A    
C129  H21   S    
C111  C129  D    
C111  H4    S    
C95   O27   A    
C53   C59   A    
C71   O4    A    
C88   O36   A    
C97   O29   A    
C56   C63   A    
C87   O39   A    
C46   H31   S    
C13   C19   A    
C8    C134  A    
C101  C119  D    
C89   O37   A    
C48   C57   A    
C114  H7    S    
C1    C9    S    
O21   Zn2   S    
C91   C128  S    
C99   H1    S    
C127  H19   S    
C67   C74   A    
O22   Zn5   S    
O39   Zn9   S    
C19   C23   A    
C70   H42   S    
C116  C133  D    
O12   Zn11  S    
C37   O51   D    
C66   C73   A    
O58   Zn16  S    
C12   C21   A    
C95   C131  S    
C128  H20   S    
C35   H27   S    
C65   C74   A    
C88   O20   A    
C16   C22   A    
C109  H2    S    
O47   Zn14  S    
O42   Zn12  S    
C112  H5    S    
C64   H36   S    
C35   C126  A    
C7    C11   A    
C78   O6    A    
C79   O9    A    
C26   C134  S    
C77   O5    A    
C99   C117  D    
C60   O3    A    
O34   Zn8   S    
C81   O14   A    
C118  H10   S    
C2    C43   A    
C90   C127  S    
C7    C18   A    
C98   C130  S    
C47   C93   A    
O32   Zn11  S    
C12   C82   A    
O37   Zn11  S    
C27   N2    T    
C25   C61   A    
O60   Zn7   S    
C85   C117  S    
C53   C66   A    
C110  C113  S    
C101  H23   S    
C21   C62   A    
C3    C14   A    
C96   O48   A    
C109  C114  S    
C9    C135  A    
C50   C58   A    
C54   C61   A    
C83   O35   A    
C45   C54   A    
C37   H47   S    
C90   O42   A    
O3    Zn5   S    
C14   C22   A    
C15   C104  A    
C81   O33   A    
O20   Zn3   S    
C51   C59   A    
C106  H54   S    
C4    C10   A    
C11   C60   S    
O45   Zn3   S    
C16   C115  A    
O41   Zn15  S    
C40   H50   S    
C102  C120  D    
C125  H18   S    
C80   O10   A    
C1    O58   A    
O30   Zn6   S    
C94   C125  S    
C42   H52   S    
C58   C63   A    
C49   O56   A    
C6    C17   A    
C84   C120  S    
C92   O40   A    
O18   Zn16  S    
C113  C131  D    
C65   H37   S    
C28   C136  S    
C114  C132  D    
C108  H56   S    
C51   C64   A    
C76   C80   S    
O16   Zn3   S    
C91   O43   A    
O27   Zn5   S    
C46   C82   A    
C92   O25   A    
C37   C104  S    
C83   O15   A    
C90   O22   A    
C80   O13   A    
C39   O53   D    
O1    Zn3   S    
O4    Zn6   S    
C32   N7    T    
C29   N4    T    
C99   C107  S    
C41   O55   D    
C100  C106  S    
C33   N8    T    
C130  H22   S    
C27   C135  S    
C122  H15   S    
C108  C116  S    
O56   Zn4   S    
C92   C129  S    
C40   O54   D    
O48   Zn13  S    
C54   C67   A    
C1    O45   A    
C75   C79   S    
C10   C71   S    
C97   O44   A    
C89   O21   A    
C38   C115  S    
C49   O59   A    
C58   C72   A    
O23   Zn14  S    
C89   C121  S    
O12   Zn9   S    
C100  H12   S    
C44   H29   S    
C81   C118  S    
C86   O38   A    
C105  H53   S    
O25   Zn7   S    
C105  C122  D    
C34   O49   D    
O1    Zn10  S    
C13   C44   A    
C100  C118  D    
C102  C103  S    
O40   Zn14  S    
C78   O8    A    
O23   Zn5   S    
C36   O50   D    
C6    C10   A    
C94   O26   A    
O1    Zn16  S    
C48   H33   S    
C39   H49   S    
C2    C40   S    
C15   C21   A    
C30   N5    T    
C36   H46   S    
C35   C51   A    
O34   Zn15  S    
O38   Zn10  S    
C56   C69   A    
C74   C78   S    
O6    Zn9   S    
C107  H55   S    
C70   C75   A    
C39   C126  S    
C73   C77   S    
C66   H38   S    
O23   Zn12  S    
C34   C82   S    
C72   H43   S    
C112  C130  D    
C91   O24   A    
C79   O11   A    
C16   C135  A    
O2    Zn8   S    
C8    C49   S    
C20   C24   A    
C31   N6    T    
C4    C30   S    
C52   C65   A    
C84   O16   A    
O26   Zn8   S    
C47   C56   A    
C5    C31   S    
C103  H45   S    
C103  C121  D    
