data_mof_unit_61368.cif
_audit_creation_date              2012-12-10T19:08:15-0500
_audit_creation_method            fapswitch 2.2
_symmetry_space_group_name_H-M    P1
_symmetry_Int_Tables_number       1
_space_group_crystal_system       triclinic
_cell_length_a                    25.558522
_cell_length_b                    34.545787
_cell_length_c                    21.502176
_cell_angle_alpha                 89.973529
_cell_angle_beta                  126.48586
_cell_angle_gamma                 90.043941
_cell_volume                      15264.0971713

loop_
_atom_site_label
_atom_site_type_symbol
_atom_type_description
_atom_site_fract_x
_atom_site_fract_y
_atom_site_fract_z
_atom_type_partial_charge
C1    C     C_R   0.141686 0.250046 0.000036 0.779910
C2    C     C_3   0.732049 0.240564 0.929200 -0.178035
C3    C     C_R   0.027069 0.917900 0.969019 -0.184700
C4    C     C_R   0.489661 0.582138 0.937188 -0.183950
C5    C     C_R   0.472848 0.417845 0.030853 -0.183290
C6    C     C_R   0.510234 0.582103 0.062768 -0.183025
C7    C     C_R   0.527054 0.417901 0.969004 -0.184253
C8    C     C_R   0.999964 0.102504 0.999995 -0.002002
C9    C     C_R   0.999970 0.897491 0.999944 -0.002268
C10   C     C_R   0.499958 0.602505 0.999990 -0.002179
C11   C     C_R   0.499963 0.397491 0.999938 -0.002364
C12   C     C_R   0.999958 0.021331 0.999966 0.110959
C13   C     C_3   0.758107 0.785444 0.981181 -0.175795
C14   C     C_R   0.999958 0.978663 0.999950 0.109239
C15   C     C_R   0.499943 0.521331 0.999954 0.110965
C16   C     C_R   0.499943 0.478663 0.999936 0.109228
C17   C     C_R   0.999992 0.144877 0.000006 0.784209
C18   C     C_R   0.999995 0.855121 0.999982 0.783568
C19   C     C_R   0.499991 0.644877 0.000005 0.783469
C20   C     C_R   0.499993 0.355121 0.999980 0.784313
C21   C     C_R   0.000013 0.355159 0.000013 0.871973
C22   C     C_R   0.999986 0.644845 0.999987 0.872659
C23   C     C_R   0.500013 0.855157 0.000012 0.872707
C24   C     C_3   0.242013 0.214592 0.019063 -0.174632
C25   C     C_R   0.499986 0.144844 0.999986 0.871946
C26   C     C_R   0.056054 0.458261 0.021589 0.661127
C27   C     C_R   0.952443 0.541777 0.932758 0.661648
C28   C     C_R   0.943962 0.458206 0.978396 0.661263
C29   C     C_R   0.047519 0.541792 0.067181 0.661753
C30   C     C_R   0.555983 0.958255 0.021327 0.661168
C31   C     C_R   0.452306 0.041773 0.932832 0.661505
C32   C     C_R   0.444032 0.958201 0.978628 0.661322
C33   C     C_R   0.547659 0.041786 0.067085 0.661723
C34   C     C_R   0.056180 0.417936 0.022423 -0.293578
C35   C     C_3   0.767967 0.259454 0.070834 -0.180671
C36   C     C_R   0.952078 0.582101 0.933188 -0.294972
C37   C     C_R   0.943862 0.417883 0.977619 -0.295326
C38   C     C_R   0.047861 0.582115 0.066760 -0.293584
C39   C     C_R   0.556113 0.917930 0.022171 -0.293687
C40   C     C_R   0.451945 0.082097 0.933268 -0.295192
C41   C     C_R   0.443928 0.917879 0.977849 -0.294949
C42   C     C_R   0.547996 0.082109 0.066664 -0.293418
C43   C     C_R   0.000026 0.397544 0.000032 -0.186041
C44   C     C_R   0.999966 0.602468 0.999976 -0.186854
C45   C     C_R   0.500026 0.897540 0.000024 -0.186123
C46   C     C_3   0.257912 0.714592 0.980961 -0.174166
C47   C     C_R   0.499967 0.102465 0.999971 -0.187179
C48   C     C_R   1.000000 0.478702 0.999975 -0.100589
C49   C     C_R   0.999989 0.521316 0.999967 -0.101985
C50   C     C_R   0.500000 0.978696 0.999959 -0.100652
C51   C     C_R   0.499991 0.021311 0.999954 -0.101990
C52   C     C_3   0.777155 0.285397 0.019312 -0.176304
C53   C     C_3   0.258967 0.724003 0.052000 -0.128998
C54   C     C_3   0.259054 0.276013 0.052008 -0.130736
C55   C     C_3   0.740866 0.724084 0.947833 -0.127297
C56   C     C_3   0.241050 0.776015 0.948034 -0.128751
C57   C     C_3   0.257992 0.285415 0.980946 -0.175971
C58   C     C_3   0.722863 0.214621 0.980722 -0.173781
C59   C     C_3   0.759138 0.775924 0.052175 -0.130767
C60   C     C_3   0.240949 0.223994 0.948001 -0.127264
C61   C     C_3   0.741898 0.714564 0.018828 -0.174455
C62   C     C_3   0.199074 0.749886 0.000228 0.051511
C63   C     C_3   0.801178 0.249891 0.000276 0.051491
C64   C     C_3   0.800913 0.749863 0.999746 0.051761
C65   C     C_R   0.858313 0.749957 0.999962 0.780300
C66   C     C_3   0.199088 0.250146 0.000257 0.051352
C67   C     C_3   0.698838 0.250126 0.999756 0.051522
C68   C     C_3   0.300943 0.750131 0.999804 0.051579
C69   C     C_3   0.300915 0.249861 0.999750 0.051772
C70   C     C_3   0.699090 0.750144 0.000261 0.051347
C71   C     C_3   0.197147 0.740449 0.929243 -0.177925
C72   C     C_3   0.792916 0.223923 0.051850 -0.129230
C73   C     C_3   0.802819 0.740319 0.070691 -0.180220
C74   C     C_3   0.197153 0.259574 0.929246 -0.178366
C75   C     C_3   0.707102 0.276095 0.948184 -0.128947
C76   C     C_R   0.858378 0.249988 0.000091 0.780052
C77   C     C_3   0.302871 0.759569 0.070791 -0.180649
C78   C     C_3   0.302852 0.240434 0.070763 -0.180041
C79   C     C_3   0.697186 0.759689 0.929318 -0.178548
C80   C     C_R   0.250869 0.265325 0.416320 -0.174108
C81   C     C_R   0.770984 0.718445 0.583685 -0.174510
C82   C     C_R   0.770900 0.281476 0.583673 -0.174907
C83   C     C_R   0.250814 0.734666 0.416320 -0.173939
C84   C     C_R   0.750877 0.765309 0.416320 -0.174165
C85   C     C_R   0.271008 0.218436 0.583687 -0.174485
C86   C     C_R   0.270949 0.781493 0.583676 -0.174813
C87   C     C_R   0.141678 0.749968 0.000020 0.780223
C88   C     C_R   0.750840 0.234702 0.416318 -0.173911
C89   C     C_R   0.210422 0.265603 0.335810 -0.181085
C90   C     C_R   0.810877 0.718583 0.664196 -0.181998
C91   C     C_R   0.810808 0.281351 0.664186 -0.181113
C92   C     C_R   0.210382 0.734405 0.335807 -0.181941
C93   C     C_R   0.710431 0.765586 0.335809 -0.180945
C94   C     C_R   0.310898 0.218576 0.664198 -0.181928
C95   C     C_R   0.310857 0.781368 0.664188 -0.181175
C96   C     C_R   0.710408 0.234440 0.335805 -0.182341
C97   C     C_R   0.147525 0.250013 0.295022 -0.000735
C98   C     C_R   0.641687 0.750045 0.000039 0.779898
C99   C     C_R   0.852481 0.749977 0.704974 -0.003324
C100  C     C_R   0.852461 0.250002 0.704982 -0.003265
C101  C     C_R   0.147496 0.749963 0.295010 -0.000547
C102  C     C_R   0.647522 0.750015 0.295021 -0.000652
C103  C     C_R   0.352481 0.249977 0.704975 -0.003113
C104  C     C_R   0.352462 0.750002 0.704983 -0.003029
C105  C     C_R   0.647497 0.249964 0.295009 -0.000459
C106  C     C_R   0.125399 0.234406 0.335760 -0.185523
C107  C     C_R   0.853333 0.781367 0.664221 -0.184980
C108  C     C_R   0.853335 0.218638 0.664238 -0.186194
C109  C     C_R   0.358314 0.249955 0.999965 0.780302
C110  C     C_R   0.125362 0.765513 0.335745 -0.184442
C111  C     C_R   0.625382 0.734428 0.335758 -0.185946
C112  C     C_R   0.353315 0.281373 0.664221 -0.184985
C113  C     C_R   0.353289 0.718622 0.664241 -0.186117
C114  C     C_R   0.625339 0.265482 0.335743 -0.184287
C115  C     C_R   0.165477 0.234647 0.416268 -0.175084
C116  C     C_R   0.812744 0.781501 0.583713 -0.175087
C117  C     C_R   0.812733 0.218491 0.583728 -0.175204
C118  C     C_R   0.165425 0.765256 0.416254 -0.175105
C119  C     C_R   0.665460 0.734670 0.416266 -0.175059
C120  C     C_R   0.358329 0.750039 0.999994 0.780185
C121  C     C_R   0.312727 0.281507 0.583714 -0.174982
C122  C     C_R   0.312685 0.718474 0.583731 -0.175167
C123  C     C_R   0.665402 0.265224 0.416252 -0.175157
C124  C     C_R   0.228694 0.249977 0.457331 0.111814
C125  C     C_R   0.771353 0.749973 0.542662 0.109352
C126  C     C_R   0.771301 0.249979 0.542661 0.109501
C127  C     C_R   0.228637 0.749966 0.457326 0.111748
C128  C     C_R   0.728690 0.749980 0.457330 0.111844
C129  C     C_R   0.271357 0.249971 0.542664 0.109420
C130  C     C_R   0.271300 0.749978 0.542664 0.109564
C131  C     C_R   0.641629 0.250019 0.999923 0.780111
C132  C     C_R   0.728638 0.249968 0.457324 0.111781
C133  C     C_R   0.989183 0.041862 0.936912 -0.173156
C134  C     C_R   0.972411 0.958121 0.030346 -0.173186
C135  C     C_R   0.010727 0.041827 0.063032 -0.172878
C136  C     C_R   0.027501 0.958178 0.969537 -0.173170
C137  C     C_R   0.489174 0.541863 0.936903 -0.173264
C138  C     C_R   0.472400 0.458120 0.030336 -0.173201
C139  C     C_R   0.510709 0.541827 0.063018 -0.172912
C140  C     C_R   0.527483 0.458178 0.969520 -0.173149
C141  C     C_R   0.894851 0.250012 0.789720 0.783512
C142  C     C_3   0.242105 0.785426 0.019073 -0.176593
C143  C     C_R   0.105139 0.749981 0.210277 0.783789
C144  C     C_R   0.105152 0.250014 0.210294 0.785026
C145  C     C_R   0.894849 0.749984 0.789705 0.784478
C146  C     C_R   0.394852 0.750012 0.789720 0.784146
C147  C     C_R   0.605140 0.249982 0.210277 0.783131
C148  C     C_R   0.605151 0.750015 0.210293 0.784373
C149  C     C_R   0.394848 0.249984 0.789705 0.785120
C150  C     C_R   0.989666 0.082137 0.937193 -0.183848
C151  C     C_R   0.972854 0.917846 0.030857 -0.183189
C152  C     C_R   0.010249 0.082104 0.062778 -0.182988
F1    F     F_    0.110192 0.477298 0.040412 -0.622128
F2    F     F_    0.907193 0.522761 0.866349 -0.621424
F3    F     F_    0.889813 0.477187 0.959554 -0.622251
F4    F     F_    0.092776 0.522791 0.133588 -0.620253
F5    F     F_    0.610044 0.977290 0.039898 -0.622172
F6    F     F_    0.406912 0.022759 0.866495 -0.621539
F7    F     F_    0.389960 0.977182 0.960033 -0.622193
F8    F     F_    0.593062 0.022785 0.133417 -0.620084
H1    H     H_    0.979570 0.026824 0.886911 0.134495
H2    H     H_    0.951168 0.902646 0.054432 0.159441
H3    H     H_    0.018841 0.097268 0.112165 0.159152
H4    H     H_    0.048759 0.902742 0.945445 0.159222
H5    H     H_    0.481077 0.597328 0.887812 0.157910
H6    H     H_    0.451167 0.402645 0.054433 0.159449
H7    H     H_    0.518824 0.597267 0.112153 0.159570
H8    H     H_    0.548740 0.402743 0.945426 0.159031
H9    H     H_    0.099768 0.402647 0.039140 0.197942
H10   H     H_    0.915134 0.597414 0.880871 0.197359
H11   H     H_    0.900278 0.402553 0.960916 0.197865
H12   H     H_    0.949782 0.973150 0.052866 0.137017
H13   H     H_    0.084802 0.597438 0.119080 0.199271
H14   H     H_    0.599645 0.902638 0.038698 0.197848
H15   H     H_    0.414891 0.097410 0.881019 0.197497
H16   H     H_    0.400401 0.902547 0.961339 0.197831
H17   H     H_    0.585048 0.097429 0.118922 0.199687
H18   H     H_    0.234500 0.814431 0.034669 0.139330
H19   H     H_    0.718468 0.232833 0.871203 0.139121
H20   H     H_    0.765875 0.814468 0.965770 0.139403
H21   H     H_    0.234344 0.185592 0.034675 0.140971
H22   H     H_    0.781547 0.267185 0.128830 0.136964
H23   H     H_    0.020337 0.026762 0.113022 0.135053
H24   H     H_    0.265513 0.685586 0.965363 0.141066
H25   H     H_    0.265664 0.314416 0.965338 0.139336
H26   H     H_    0.734133 0.685540 0.034243 0.141038
H27   H     H_    0.800515 0.314378 0.035112 0.141378
H28   H     H_    0.265425 0.702656 0.094673 0.152933
H29   H     H_    0.265583 0.297363 0.094692 0.151979
H30   H     H_    0.734263 0.702809 0.905007 0.153982
H31   H     H_    0.234595 0.797364 0.905365 0.153153
H32   H     H_    0.699505 0.185641 0.964920 0.143084
H33   H     H_    0.765737 0.797198 0.095000 0.151981
H34   H     H_    0.050125 0.973252 0.947018 0.136964
H35   H     H_    0.234417 0.202644 0.905316 0.153985
H36   H     H_    0.152729 0.732622 0.871280 0.139403
H37   H     H_    0.829034 0.202510 0.094397 0.151201
H38   H     H_    0.847201 0.732385 0.128579 0.137280
H39   H     H_    0.152744 0.267413 0.871299 0.139349
H40   H     H_    0.670985 0.297511 0.905641 0.151402
H41   H     H_    0.347291 0.767395 0.128753 0.137295
H42   H     H_    0.347262 0.232597 0.128711 0.137298
H43   H     H_    0.652806 0.767625 0.871431 0.139316
H44   H     H_    0.299763 0.276685 0.446398 0.133212
H45   H     H_    0.479563 0.526826 0.886902 0.134438
H46   H     H_    0.740479 0.693437 0.553617 0.135907
H47   H     H_    0.740361 0.306453 0.553597 0.136285
H48   H     H_    0.299700 0.723336 0.446401 0.133224
H49   H     H_    0.799779 0.776654 0.446397 0.133203
H50   H     H_    0.240520 0.193423 0.553619 0.135837
H51   H     H_    0.240450 0.806483 0.553599 0.136181
H52   H     H_    0.799745 0.223399 0.446399 0.133266
H53   H     H_    0.228691 0.277509 0.305499 0.158612
H54   H     H_    0.809837 0.693892 0.694515 0.161866
H55   H     H_    0.809739 0.306020 0.694488 0.163698
H56   H     H_    0.449772 0.473148 0.052858 0.137000
H57   H     H_    0.228657 0.722540 0.305503 0.158528
H58   H     H_    0.728710 0.777476 0.305498 0.158592
H59   H     H_    0.309872 0.193880 0.694517 0.161809
H60   H     H_    0.309826 0.806050 0.694492 0.163252
H61   H     H_    0.728702 0.222602 0.305499 0.158754
H62   H     H_    0.076795 0.222509 0.305413 0.157089
H63   H     H_    0.884694 0.806060 0.694555 0.159433
H64   H     H_    0.884727 0.193975 0.694580 0.157843
H65   H     H_    0.076764 0.777378 0.305393 0.157531
H66   H     H_    0.576768 0.722548 0.305410 0.157291
H67   H     H_    0.520314 0.526761 0.113006 0.135168
H68   H     H_    0.384661 0.306072 0.694555 0.159015
H69   H     H_    0.384645 0.693947 0.694584 0.157775
H70   H     H_    0.576721 0.277321 0.305391 0.157496
H71   H     H_    0.146644 0.223277 0.446303 0.132988
H72   H     H_    0.813200 0.806509 0.553670 0.135603
H73   H     H_    0.813216 0.193505 0.553696 0.135220
H74   H     H_    0.146586 0.776587 0.446280 0.133021
H75   H     H_    0.646617 0.723314 0.446300 0.133026
H76   H     H_    0.313166 0.306520 0.553669 0.135508
H77   H     H_    0.313129 0.693474 0.553701 0.135159
H78   H     H_    0.550104 0.473252 0.946997 0.136931
H79   H     H_    0.646545 0.276529 0.446279 0.133012
H80   H     H_    0.981076 0.097326 0.887812 0.157892
O1    O     O_3   1.000000 0.250010 0.000000 -0.479172
O2    O     O_R   0.359980 0.227250 0.954550 -0.644481
O3    O     O_R   0.359980 0.772750 0.954550 -0.646675
O4    O     O_R   0.640020 0.227250 0.045450 -0.639884
O5    O     O_R   0.944020 0.227270 0.826530 -0.646142
O6    O     O_R   0.055980 0.772730 0.173470 -0.644371
O7    O     O_R   0.055980 0.227270 0.173470 -0.646752
O8    O     O_R   0.944020 0.772730 0.826530 -0.644451
O9    O     O_R   0.444020 0.727270 0.826530 -0.646162
O10   O     O_R   0.555980 0.272730 0.173470 -0.644379
O11   O     O_R   0.555980 0.727270 0.173470 -0.646508
O12   O     O_3   0.000000 0.749990 0.000000 -0.479220
O13   O     O_R   0.444020 0.272730 0.826530 -0.644602
O14   O     O_R   0.008020 0.163280 0.954510 -0.645600
O15   O     O_R   0.991980 0.836720 0.045490 -0.643716
O16   O     O_R   0.991980 0.163280 0.045490 -0.644122
O17   O     O_R   0.008020 0.836720 0.954510 -0.645848
O18   O     O_R   0.508020 0.663280 0.954510 -0.645571
O19   O     O_R   0.491980 0.336720 0.045490 -0.643689
O20   O     O_R   0.491980 0.663280 0.045490 -0.644040
O21   O     O_R   0.508020 0.336720 0.954510 -0.646029
O22   O     O_R   0.053480 0.336740 0.045470 -0.640743
O23   O     O_3   0.500000 0.750010 0.000000 -0.479169
O24   O     O_R   0.946520 0.663260 0.954530 -0.642590
O25   O     O_R   0.946520 0.336740 0.954530 -0.642664
O26   O     O_R   0.053480 0.663260 0.045470 -0.640694
O27   O     O_R   0.553480 0.836740 0.045470 -0.640655
O28   O     O_R   0.446520 0.163260 0.954530 -0.642600
O29   O     O_R   0.446520 0.836740 0.954530 -0.642829
O30   O     O_R   0.553480 0.163260 0.045470 -0.640665
O31   O     O_R   0.882520 0.272750 0.826550 -0.642969
O32   O     O_R   0.117480 0.727250 0.173450 -0.644807
O33   O     O_R   0.117480 0.272750 0.173450 -0.642409
O34   O     O_3   0.500000 0.249990 0.000000 -0.479225
O35   O     O_R   0.882520 0.727250 0.826550 -0.645199
O36   O     O_R   0.382520 0.772750 0.826550 -0.643151
O37   O     O_R   0.617480 0.227250 0.173450 -0.644522
O38   O     O_R   0.617480 0.772750 0.173450 -0.642412
O39   O     O_R   0.382520 0.227250 0.826550 -0.645230
O40   O     O_R   0.094550 0.227270 0.954490 -0.639578
O41   O     O_R   0.905450 0.772730 0.045510 -0.643596
O42   O     O_R   0.905450 0.227270 0.045510 -0.647948
O43   O     O_R   0.094550 0.772730 0.954490 -0.641729
O44   O     O_R   0.594550 0.727270 0.954490 -0.639575
O45   O     O_R   0.140020 0.272750 0.045450 -0.648749
O46   O     O_R   0.405450 0.272730 0.045510 -0.643599
O47   O     O_R   0.405450 0.727270 0.045510 -0.641674
O48   O     O_R   0.594550 0.272730 0.954490 -0.648016
O49   O     O_R   0.859980 0.727250 0.954550 -0.644482
O50   O     O_R   0.859980 0.272750 0.954550 -0.640237
O51   O     O_R   0.140020 0.727250 0.045450 -0.646304
O52   O     O_R   0.640020 0.772750 0.045450 -0.648754
Zn1   Zn    Zn3+2 0.923580 0.282490 0.935040 0.974494
Zn2   Zn    Zn3+2 0.988550 0.782480 0.064990 0.967182
Zn3   Zn    Zn3+2 0.988550 0.217520 0.064990 0.965112
Zn4   Zn    Zn3+2 0.011450 0.782480 0.935010 0.967129
Zn5   Zn    Zn3+2 0.511450 0.717520 0.935010 0.967167
Zn6   Zn    Zn3+2 0.488550 0.282480 0.064990 0.967236
Zn7   Zn    Zn3+2 0.488550 0.717520 0.064990 0.967101
Zn8   Zn    Zn3+2 0.511450 0.282480 0.935010 0.965137
Zn9   Zn    Zn3+2 0.076420 0.717510 0.064960 0.972818
Zn10  Zn    Zn3+2 0.076420 0.282490 0.064960 0.972837
Zn11  Zn    Zn3+2 0.923580 0.717510 0.935040 0.972762
Zn12  Zn    Zn3+2 0.423580 0.782490 0.935040 0.972456
Zn13  Zn    Zn3+2 0.576420 0.217510 0.064960 0.974837
Zn14  Zn    Zn3+2 0.576420 0.782490 0.064960 0.972918
Zn15  Zn    Zn3+2 0.423580 0.217510 0.935040 0.972691
Zn16  Zn    Zn3+2 0.011450 0.217520 0.935010 0.967213

loop_
_geom_bond_atom_site_label_1
_geom_bond_atom_site_label_2
_ccdc_geom_bond_type
O40   Zn16  S    
C120  O47   A    
C7    H8    S    
C13   C79   S    
O19   Zn6   S    
C112  H68   S    
C54   H29   S    
O50   Zn1   S    
C52   C75   S    
C110  C118  A    
C75   H40   S    
C35   C72   S    
C76   O42   A    
C145  O35   A    
C146  O36   A    
C108  H64   S    
O42   Zn3   S    
C122  H77   S    
C63   C76   S    
O44   Zn5   S    
O13   Zn8   S    
C91   H55   S    
C85   C129  A    
C113  C122  A    
C22   O24   A    
O10   Zn6   S    
C12   C135  A    
C52   H27   S    
C91   C100  A    
C117  C126  A    
C59   C73   S    
C57   H25   S    
O5    Zn16  S    
C119  C128  A    
C56   H31   S    
C102  C111  A    
C39   H14   S    
O37   Zn13  S    
C147  O37   A    
C15   C139  A    
C11   C20   S    
C86   H51   S    
C84   H49   S    
C101  C110  A    
O6    Zn2   S    
C82   C91   A    
C103  C112  A    
C87   O43   A    
C93   C102  A    
C8    C150  A    
O1    Zn3   S    
O29   Zn12  S    
C22   O26   A    
O39   Zn15  S    
O48   Zn8   S    
C3    H4    S    
C81   C90   A    
C119  H75   S    
C41   H16   S    
C58   H32   S    
C18   O15   A    
C36   C44   A    
C32   C41   A    
C90   H54   S    
C68   C77   S    
C9    C151  A    
O22   Zn10  S    
C70   C79   S    
C16   C138  A    
C52   C63   S    
O16   Zn3   S    
C36   H10   S    
C8    C17   S    
C106  C115  A    
C100  C141  S    
O27   Zn14  S    
C131  O48   A    
C109  O2    A    
C134  C151  A    
C46   C53   S    
C23   O27   A    
C94   H59   S    
C84   C93   A    
C92   H57   S    
C86   C95   A    
O30   Zn13  S    
C58   C67   S    
C96   H61   S    
C88   H52   S    
C41   C45   A    
C2    C75   S    
C15   C137  A    
C84   C128  A    
C147  O10   A    
C123  C132  A    
C135  H23   S    
C29   C49   A    
C31   C40   A    
C46   C68   S    
C33   C42   A    
C8    C152  A    
C149  O13   A    
C135  C152  A    
C66   C74   S    
C111  C119  A    
C3    C136  A    
C85   C94   A    
C46   H24   S    
C6    C139  A    
C18   O17   A    
O17   Zn4   S    
C72   H37   S    
O31   Zn1   S    
C29   C38   A    
C141  O5    A    
C64   C73   S    
O14   Zn16  S    
C35   C67   S    
C76   O50   A    
C33   F8    S    
C39   C45   A    
C27   F2    S    
C141  O31   A    
C99   C145  S    
C134  H12   S    
C116  H72   S    
C16   C140  A    
C62   C142  S    
O15   Zn2   S    
C123  H79   S    
C17   O14   A    
C100  C108  A    
C146  O9    A    
C104  C146  S    
O33   Zn10  S    
C86   C130  A    
C56   C68   S    
C120  O3    A    
C98   O52   A    
C97   C144  S    
C136  H34   S    
C3    C9    A    
C117  H73   S    
C121  H76   S    
C73   H38   S    
O25   Zn1   S    
C5    H6    S    
C63   C72   S    
C34   H9    S    
C114  C123  A    
C116  C125  A    
C67   C75   S    
C118  C127  A    
C109  O46   A    
C90   C99   A    
O28   Zn15  S    
C2    C63   S    
C28   C48   A    
C81   C125  A    
C24   H21   S    
C108  C117  A    
C34   C43   A    
C83   C127  A    
C77   H41   S    
C37   H11   S    
C113  H69   S    
C54   C66   S    
O20   Zn7   S    
C24   C66   S    
C13   H20   S    
C143  O6    A    
O23   Zn12  S    
C112  C121  A    
O4    Zn13  S    
C68   C120  S    
C142  H18   S    
C60   C69   S    
C55   C61   S    
C148  O38   A    
C62   C71   S    
C149  O39   A    
C107  C116  A    
C152  H3    S    
C126  C132  S    
C20   O19   A    
C104  C113  A    
C9    C18   S    
C144  O7    A    
C26   F1    S    
C27   C49   A    
C60   H35   S    
O1    Zn10  S    
C54   C57   S    
C61   C70   S    
C30   F5    S    
C96   C105  A    
C88   C96   A    
C17   O16   A    
C23   C45   S    
C1    O45   A    
C138  H56   S    
O47   Zn7   S    
C53   H28   S    
C5    C11   A    
C131  O4    A    
O1    Zn1   S    
C7    C140  A    
C98   O44   A    
O18   Zn5   S    
C4    H5    S    
C139  H67   S    
C80   C89   A    
C82   C126  A    
C21   O22   A    
C28   F3    S    
C87   O51   A    
O23   Zn7   S    
C25   C47   S    
C26   C48   A    
C32   F7    S    
C56   C142  S    
C30   C50   A    
O34   Zn15  S    
C133  C150  A    
C31   C51   A    
C19   O20   A    
C61   C73   S    
C59   H33   S    
C144  O33   A    
C37   C43   A    
C53   C77   S    
C38   C44   A    
O34   Zn8   S    
C20   O21   A    
C55   C79   S    
C10   C19   S    
C151  H2    S    
C95   H60   S    
C46   C71   S    
C92   C101  A    
C29   F4    S    
C13   C59   S    
C97   C106  A    
C24   C78   S    
C48   C49   S    
C94   C103  A    
C150  H80   S    
O49   Zn11  S    
O51   Zn9   S    
C25   O28   A    
O52   Zn14  S    
C89   H53   S    
C80   C124  A    
C65   O49   A    
C23   O29   A    
C148  O11   A    
C115  C124  A    
C111  H66   S    
O23   Zn14  S    
C121  C129  A    
O32   Zn9   S    
C6    C10   A    
C2    C58   S    
C27   C36   A    
C33   C51   A    
C99   C107  A    
C62   C87   S    
O46   Zn6   S    
C64   C65   S    
O24   Zn11  S    
C80   H44   S    
C13   C64   S    
C14   C136  A    
C124  C129  S    
O23   Zn5   S    
O11   Zn7   S    
C31   F6    S    
C103  C149  S    
C59   C70   S    
O1    Zn16  S    
C74   H39   S    
O2    Zn15  S    
C35   C52   S    
C65   O41   A    
O12   Zn9   S    
O34   Zn13  S    
C54   C78   S    
C40   C47   A    
O9    Zn5   S    
O3    Zn12  S    
C85   H50   S    
C19   O18   A    
C5    C138  A    
C137  H45   S    
C35   H22   S    
C7    C11   A    
C83   C92   A    
O12   Zn2   S    
C28   C37   A    
O34   Zn6   S    
O35   Zn11  S    
C42   H17   S    
C15   C16   S    
C105  C147  S    
O7    Zn3   S    
O8    Zn4   S    
C77   C142  S    
C102  C148  S    
C21   C43   S    
C69   C109  S    
C26   C34   A    
C22   C44   S    
C30   C39   A    
C125  C128  S    
C115  H71   S    
C25   O30   A    
C21   O25   A    
O38   Zn14  S    
C56   C71   S    
C4    C137  A    
C69   C78   S    
C82   H47   S    
C50   C51   S    
C107  H63   S    
C143  O32   A    
C55   H30   S    
C105  C114  A    
C1    O40   A    
C38   H13   S    
C14   C134  A    
C89   C97   A    
C93   H58   S    
C57   C74   S    
C83   H48   S    
O41   Zn2   S    
C53   C62   S    
C118  H74   S    
O43   Zn4   S    
C24   C60   S    
C55   C64   S    
O26   Zn9   S    
C140  H78   S    
C1    C66   S    
O12   Zn11  S    
C32   C50   A    
O36   Zn12  S    
O21   Zn8   S    
C12   C14   S    
C79   H43   S    
C12   C133  A    
C2    H19   S    
C88   C132  A    
C4    C10   A    
C95   C104  A    
C6    H7    S    
C145  O8    A    
O12   Zn4   S    
C67   C131  S    
C78   H42   S    
C110  H65   S    
C133  H1    S    
C114  H70   S    
C40   H15   S    
O45   Zn10  S    
C127  C130  S    
C101  C143  S    
C58   C72   S    
C71   H36   S    
C106  H62   S    
C60   C74   S    
C61   H26   S    
C42   C47   A    
C81   H46   S    
C57   C69   S    
C122  C130  A    
C70   C98   S    
