data_mof_unit_49758.cif
_audit_creation_date              2012-12-10T17:57:54-0500
_audit_creation_method            fapswitch 2.2
_symmetry_space_group_name_H-M    P1
_symmetry_Int_Tables_number       1
_space_group_crystal_system       triclinic
_cell_length_a                    10.964128
_cell_length_b                    9.491605
_cell_length_c                    15.017641
_cell_angle_alpha                 88.998247
_cell_angle_beta                  88.781658
_cell_angle_gamma                 89.529157
_cell_volume                      1562.20318385

loop_
_atom_site_label
_atom_site_type_symbol
_atom_type_description
_atom_site_fract_x
_atom_site_fract_y
_atom_site_fract_z
_atom_type_partial_charge
C1    C     C_R   0.262716 0.499976 0.511169 0.842188
C2    C     C_R   0.738737 0.498742 0.503154 0.847049
C3    C     C_R   0.284570 0.560597 0.047167 0.163103
C4    C     C_R   0.732841 0.523981 0.952065 0.158851
C5    C     C_R   0.065325 0.372699 0.551548 0.100072
C6    C     C_R   0.940401 0.622143 0.499677 0.105113
C7    C     C_R   0.935563 0.371897 0.548141 0.136388
C8    C     C_R   0.062253 0.627192 0.525079 0.113694
C9    C     C_R   0.873425 0.495787 0.514920 -0.132589
C10   C     C_R   0.128971 0.499620 0.530126 -0.163736
C11   C     C_R   0.453636 0.076616 0.430179 -0.024211
C12   C     C_R   0.544671 0.923399 0.570406 -0.032314
C13   C     C_R   0.544723 0.072121 0.570318 -0.053448
C14   C     C_R   0.453303 0.927792 0.430302 -0.062301
C15   C     C_R   0.500922 0.501267 0.328722 0.899189
C16   C     C_R   0.500092 0.499196 0.671346 0.858825
C17   C     C_R   0.614556 0.542637 0.808866 0.261981
C18   C     C_R   0.394786 0.486629 0.186022 0.270576
C19   C     C_R   0.506334 0.499943 0.768275 -0.131939
C20   C     C_R   0.503578 0.505075 0.231681 -0.147255
C21   C     C_R   0.399795 0.477393 0.819652 0.033933
C22   C     C_R   0.613535 0.532310 0.184729 0.029701
C23   C     C_R   0.398552 0.520980 0.908366 0.040281
C24   C     C_R   0.616830 0.512167 0.092031 0.038095
C25   C     C_R   0.509417 0.523013 0.952839 -0.056168
C26   C     C_R   0.506302 0.519980 0.046194 -0.062500
C27   C     C_R   0.621762 0.532351 0.903742 -0.007901
C28   C     C_R   0.392386 0.519557 0.093662 0.013494
C29   C     C_R   0.292072 0.570548 0.952426 0.092086
C30   C     C_R   0.726679 0.487314 0.043906 0.113889
Cu1   Cu    Cu3+1 0.500000 0.640660 0.500000 0.951942
Cu2   Cu    Cu3+1 0.500000 0.359340 0.500000 0.944800
H1    H     H_    0.415381 0.134033 0.374479 0.162504
H2    H     H_    0.581946 0.866099 0.626505 0.169741
H3    H     H_    0.580474 0.125998 0.626645 0.134441
H4    H     H_    0.415056 0.873749 0.374738 0.131624
N1    N     N_R   0.500000 0.852070 0.500000 -0.161925
N2    N     N_R   0.500000 0.147930 0.500000 -0.158933
O1    O     O_R   0.319640 0.618740 0.499990 -0.581684
O2    O     O_R   0.680360 0.381260 0.500010 -0.599417
O3    O     O_R   0.680360 0.618740 0.500010 -0.546227
O4    O     O_R   0.319640 0.381260 0.499990 -0.563753
O5    O     O_R   0.499970 0.618800 0.370260 -0.596023
O6    O     O_R   0.500030 0.381200 0.629740 -0.609366
O7    O     O_R   0.500030 0.618800 0.629740 -0.565222
O8    O     O_R   0.499970 0.381200 0.370260 -0.565730
Cl1   Cl    Cl    0.731172 0.611396 0.736874 -0.732032
Cl2   Cl    Cl    0.270179 0.409099 0.245403 -0.705544
C31   C     C_3   0.294183 0.393152 0.784503 -0.415976
C32   C     C_3   0.325231 0.235731 0.785821 -0.816293
H5    H     H_    0.402384 0.211715 0.739585 0.263819
H6    H     H_    0.349923 0.200884 0.854172 0.254861
H7    H     H_    0.244825 0.174368 0.765939 0.223770
H8    H     H_    0.210477 0.404585 0.826525 0.206807
H9    H     H_    0.270697 0.430832 0.716719 0.170935
C33   C     C_3   0.716802 0.608019 0.229829 -0.408312
C34   C     C_3   0.692186 0.766909 0.229927 -0.799097
H10   H     H_    0.682887 0.807281 0.160479 0.248845
H11   H     H_    0.607562 0.792503 0.268142 0.264316
H12   H     H_    0.769464 0.822239 0.260112 0.229942
H13   H     H_    0.727897 0.565961 0.298427 0.176782
H14   H     H_    0.806203 0.594070 0.195877 0.203373
C35   C     C_3   0.200294 0.655140 0.897501 -0.432622
C36   C     C_3   0.202660 0.813029 0.916469 -0.816107
H15   H     H_    0.153637 0.838008 0.979364 0.256528
H16   H     H_    0.298188 0.850620 0.919181 0.259008
H17   H     H_    0.156207 0.872182 0.862254 0.233535
H18   H     H_    0.220793 0.648432 0.825221 0.212881
H19   H     H_    0.108473 0.611216 0.906677 0.194713
C37   C     C_3   0.826365 0.395998 0.086203 -0.425176
C38   C     C_3   0.846567 0.258087 0.036470 -0.828198
H20   H     H_    0.759685 0.198972 0.034016 0.254735
H21   H     H_    0.881344 0.277401 0.967496 0.242252
H22   H     H_    0.914643 0.191890 0.071956 0.248080
H23   H     H_    0.913176 0.454267 0.090468 0.187664
H24   H     H_    0.800339 0.363928 0.155448 0.215603
C39   C     C_3   0.167062 0.604937 0.096367 -0.347691
C40   C     C_3   0.185708 0.730659 0.157209 -0.799848
H25   H     H_    0.234831 0.816656 0.120993 0.245258
H26   H     H_    0.095574 0.771478 0.180597 0.229968
H27   H     H_    0.238532 0.700541 0.216717 0.274475
H28   H     H_    0.093529 0.634641 0.050533 0.184416
H29   H     H_    0.126136 0.515398 0.133648 0.242069
C41   C     C_3   0.856842 0.557895 0.910908 -0.357957
C42   C     C_3   0.872789 0.717946 0.901376 -0.755158
H30   H     H_    0.787070 0.771917 0.881592 0.281241
H31   H     H_    0.900443 0.761776 0.965975 0.221294
H32   H     H_    0.944102 0.742426 0.850042 0.254090
H33   H     H_    0.931952 0.519121 0.952501 0.171841
H34   H     H_    0.873167 0.501061 0.848112 0.234563
C43   C     C_3   0.134570 0.242409 0.585443 -0.371518
C44   C     C_3   0.155685 0.134786 0.511790 -0.785010
H35   H     H_    0.196926 0.184501 0.451113 0.287577
H36   H     H_    0.218440 0.051014 0.535949 0.235319
H37   H     H_    0.069269 0.086415 0.491914 0.215944
H38   H     H_    0.222812 0.269321 0.614063 0.222705
H39   H     H_    0.089282 0.193664 0.644844 0.182520
C45   C     C_3   0.894705 0.741195 0.439027 -0.391770
C46   C     C_3   0.827881 0.860681 0.487694 -0.753680
H40   H     H_    0.742976 0.888251 0.452279 0.254644
H41   H     H_    0.805205 0.831374 0.558012 0.282623
H42   H     H_    0.884245 0.956903 0.486510 0.192093
H43   H     H_    0.972183 0.786432 0.399221 0.185447
H44   H     H_    0.835122 0.697389 0.388451 0.201210
C47   C     C_3   0.866142 0.240264 0.581778 -0.382791
C48   C     C_3   0.806089 0.263979 0.672909 -0.778724
H45   H     H_    0.873684 0.304976 0.719859 0.249761
H46   H     H_    0.729391 0.339438 0.667565 0.290438
H47   H     H_    0.770351 0.162853 0.700560 0.216324
H48   H     H_    0.801771 0.200413 0.532884 0.220329
H49   H     H_    0.923212 0.145460 0.589432 0.193109
C49   C     C_3   0.115687 0.768168 0.551541 -0.355177
C50   C     C_3   0.164661 0.762949 0.646279 -0.821714
H50   H     H_    0.241262 0.686924 0.652873 0.248557
H51   H     H_    0.198006 0.868699 0.664209 0.236047
H52   H     H_    0.090603 0.732252 0.694247 0.253015
H53   H     H_    0.185047 0.806386 0.502418 0.216650
H54   H     H_    0.044979 0.851220 0.552948 0.217502

loop_
_geom_bond_atom_site_label_1
_geom_bond_atom_site_label_2
_ccdc_geom_bond_type
C47   H48   S    
C29   C35   S    
C6    C9    A    
C21   C31   S    
C39   C40   S    
Cu1   O5    S    
C6    C45   S    
C3    C28   A    
C19   C21   A    
C24   C26   A    
C13   H3    S    
C8    C49   S    
C14   H4    S    
C49   H53   S    
C11   C14   A    
C40   H26   S    
C34   H11   S    
C48   H45   S    
C39   H29   S    
C2    O3    A    
C31   H8    S    
C33   C34   S    
C12   N1    A    
C3    C29   A    
C43   H38   S    
C46   H40   S    
C32   H6    S    
C7    C47   S    
C37   C38   S    
Cu2   N2    S    
C16   O6    A    
C50   H52   S    
Cu2   O2    S    
C47   H49   S    
C41   H34   S    
C49   C50   S    
C30   C37   S    
C42   H31   S    
C15   C20   S    
C32   H7    S    
C17   C27   A    
C36   H17   S    
C35   H19   S    
C11   H1    S    
C18   C28   A    
C41   C42   S    
C43   C44   S    
C5    C7    A    
C40   H25   S    
C34   H12   S    
C22   C33   S    
C25   C26   A    
C42   H30   S    
C44   H37   S    
Cu1   N1    S    
C36   H16   S    
C11   N2    A    
Cu1   Cu2   S    
C4    C41   S    
C44   H36   S    
C32   H5    S    
Cu2   O6    S    
C43   H39   S    
C13   N2    A    
C5    C43   S    
C46   H41   S    
C20   C22   A    
C45   C46   S    
C21   C23   A    
C37   H24   S    
C22   C24   A    
C41   H33   S    
C12   H2    S    
C3    C39   S    
C23   C29   A    
C4    C27   A    
C38   H21   S    
C50   H50   S    
C42   H32   S    
C7    C9    A    
C35   H18   S    
Cu1   O3    S    
Cu2   O8    S    
C33   H14   S    
C1    C10   S    
C17   Cl1   S    
C18   Cl2   S    
C16   O7    A    
C38   H22   S    
C6    C8    A    
C25   C27   A    
C47   C48   S    
C26   C28   A    
C36   H15   S    
C15   O5    A    
C5    C10   A    
C31   H9    S    
C14   N1    A    
C49   H54   S    
C40   H27   S    
C34   H10   S    
C48   H46   S    
C39   H28   S    
C16   C19   S    
C45   H44   S    
C44   H35   S    
C17   C19   A    
Cu1   O1    S    
C18   C20   A    
C23   C25   A    
C24   C30   A    
C1    O1    A    
C35   C36   S    
C2    O2    A    
C1    O4    A    
C38   H20   S    
C46   H42   S    
C12   C13   A    
C8    C10   A    
C31   C32   S    
Cu1   O7    S    
C37   H23   S    
Cu2   O4    S    
C33   H13   S    
C15   O8    A    
C2    C9    S    
C4    C30   A    
C45   H43   S    
C50   H51   S    
C48   H47   S    
