data_mof_unit_17699.cif
_audit_creation_date              2013-03-05T16:11:03-0500
_audit_creation_method            fapswitch 2.2
_symmetry_space_group_name_H-M    P1
_symmetry_Int_Tables_number       1
_space_group_crystal_system       triclinic
_cell_length_a                    11.484838
_cell_length_b                    9.977227
_cell_length_c                    11.021788
_cell_angle_alpha                 88.361766
_cell_angle_beta                  89.362065
_cell_angle_gamma                 90.42707
_cell_volume                      1262.31918088

loop_
_atom_site_label
_atom_site_type_symbol
_atom_site_description
_atom_site_fract_x
_atom_site_fract_y
_atom_site_fract_z
_atom_type_partial_charge
O1    O     O_R   0.317570 0.620260 0.500070 -0.604298
O2    O     O_R   0.317570 0.379740 0.500070 -0.552589
C1    C     C_R   0.260829 0.498853 0.499450 0.648172
O3    O     O_R   0.499850 0.620240 0.316900 -0.519751
O4    O     O_R   0.499850 0.379760 0.316900 -0.526040
C2    C     C_R   0.497972 0.501795 0.261986 0.872926
Cu1   Cu    Cu3+1 0.499860 0.642410 0.500060 1.114827
Cu2   Cu    Cu3+1 0.499860 0.357590 0.500060 1.108488
O5    O     O_R   0.682190 0.620260 0.500030 -0.490035
O6    O     O_R   0.682190 0.379740 0.500030 -0.589704
O7    O     O_R   0.499910 0.620280 0.683200 -0.514465
O8    O     O_R   0.499910 0.379720 0.683200 -0.502760
C3    C     C_R   0.739075 0.500347 0.498217 0.845066
C4    C     C_R   0.507644 0.498664 0.740166 0.863390
C5    C     C_3   0.466633 0.620787 0.038193 -0.184716
C6    C     C_3   0.439797 0.401017 0.048129 -0.134284
C7    C     C_3   0.406104 0.516327 0.958325 -0.129114
H1    H     H_    0.429711 0.720951 0.052546 0.274133
H2    H     H_    0.376797 0.322658 0.079065 0.261643
C8    C     C_3   0.519183 0.497128 0.880216 -0.239478
C9    C     C_3   0.579649 0.599739 0.964901 0.269780
C10   C     C_3   0.554032 0.384075 0.974644 0.247308
C11   C     C_3   0.612815 0.487077 0.054914 0.221810
C12   C     C_3   0.500530 0.505596 0.126549 -0.208334
C13   C     C_3   0.069896 0.631772 0.562762 -0.252269
C14   C     C_3   0.067091 0.364976 0.577052 -0.261766
C15   C     C_3   0.929597 0.618038 0.585329 0.113806
C16   C     C_3   0.926326 0.354676 0.556095 0.042544
H3    H     H_    0.917035 0.622298 0.337047 0.247129
H4    H     H_    0.887188 0.464878 0.303865 0.278694
C17   C     C_3   0.069828 0.493220 0.363617 -0.191923
C18   C     C_3   0.121271 0.496167 0.500503 -0.291273
C19   C     C_3   0.878575 0.498919 0.503542 -0.222997
C20   C     C_3   0.934127 0.520744 0.371932 -0.203879
C21   C     C_3   0.609236 0.077141 0.554599 0.064416
C22   C     C_3   0.604778 0.916680 0.558934 0.127706
H5    H     H_    0.682686 0.108280 0.498241 0.194431
H6    H     H_    0.681730 0.886965 0.508038 0.221284
C23   C     C_3   0.398735 0.079462 0.570344 0.159865
C24   C     C_3   0.397347 0.918467 0.572392 0.092574
C25   C     C_3   0.503808 0.085041 0.371466 0.323178
C26   C     C_3   0.486255 0.919153 0.373788 0.316832
N1    N     N_3   0.500250 0.143650 0.502780 -0.347014
N2    N     N_3   0.500250 0.856350 0.502780 -0.374638
H7    H     H_    0.320002 0.105372 0.520187 0.156520
H8    H     H_    0.322470 0.889632 0.522207 0.179855
C27   C     C_2   0.282464 0.540519 0.926315 0.454276
H9    H     H_    0.258057 0.637652 0.889957 0.144242
O9    O     O_2   0.207648 0.457068 0.952859 -0.464907
N3    N     N_R   0.658154 0.126474 0.665089 0.143894
O10   O     O_R   0.754431 0.071981 0.702526 -0.184194
O11   O     O_R   0.596186 0.186293 0.742964 -0.247763
N4    N     N_R   0.618463 0.861430 0.682068 0.225711
O12   O     O_R   0.686860 0.761795 0.699924 -0.240279
O13   O     O_R   0.582895 0.924618 0.776331 -0.147718
N5    N     N_R   0.380582 0.138261 0.690618 0.234744
O14   O     O_R   0.405710 0.077442 0.792757 -0.141799
O15   O     O_R   0.321661 0.247181 0.697495 -0.310510
N6    N     N_R   0.349506 0.862554 0.689083 0.161786
O16   O     O_R   0.405965 0.798459 0.772626 -0.296949
O17   O     O_R   0.250313 0.911803 0.723447 -0.182960
N7    N     N_R   0.411733 0.140951 0.293527 0.175417
O18   O     O_R   0.330994 0.216030 0.335128 -0.413292
O19   O     O_R   0.405069 0.106133 0.180828 -0.214478
N8    N     N_R   0.368442 0.881535 0.322856 0.133663
O20   O     O_R   0.274299 0.951276 0.339818 -0.322090
O21   O     O_R   0.360186 0.791399 0.241062 -0.327425
N9    N     N_R   0.616666 0.123540 0.305291 0.157370
O22   O     O_R   0.617011 0.211957 0.216685 -0.222669
O23   O     O_R   0.711170 0.052093 0.312889 -0.227026
N10   N     N_R   0.571865 0.864393 0.288061 0.185199
O24   O     O_R   0.564437 0.899570 0.174214 -0.177666
O25   O     O_R   0.660052 0.792410 0.321485 -0.241366
N11   N     N_R   0.664376 0.707613 0.942141 0.239081
O26   O     O_R   0.637423 0.827381 0.973903 -0.133618
O27   O     O_R   0.774442 0.679587 0.936644 -0.205479
N12   N     N_R   0.609241 0.255124 0.959026 0.231365
O28   O     O_R   0.552610 0.144682 0.985540 -0.129288
O29   O     O_R   0.718518 0.249423 0.927652 -0.180127
N13   N     N_R   0.725295 0.484632 0.114944 0.152678
O30   O     O_R   0.794929 0.383151 0.107654 -0.184386
O31   O     O_R   0.757179 0.588730 0.174859 -0.300761
C28   C     C_2   0.093067 0.759790 0.482655 0.605274
H10   H     H_    0.064209 0.769303 0.390951 0.140237
O32   O     O_2   0.122236 0.865853 0.525747 -0.414841
C29   C     C_2   0.120747 0.231950 0.538736 0.653729
H11   H     H_    0.161475 0.220556 0.452845 0.090899
O33   O     O_2   0.111152 0.129616 0.601879 -0.347217
C30   C     C_2   0.134268 0.662448 0.679044 0.398886
H12   H     H_    0.218259 0.618821 0.696710 0.055560
O34   O     O_2   0.095266 0.740947 0.751886 -0.404121
C31   C     C_2   0.095788 0.374883 0.714501 0.507155
H13   H     H_    0.073926 0.458648 0.765845 0.021059
O35   O     O_2   0.126287 0.279618 0.778281 -0.302156
C32   C     C_2   0.891429 0.587530 0.717516 0.412705
H14   H     H_    0.944673 0.602510 0.795431 0.184625
O36   O     O_2   0.791651 0.553581 0.741237 -0.558606
C33   C     C_2   0.862653 0.312574 0.674177 0.491272
H15   H     H_    0.772575 0.336785 0.687554 0.141402
O37   O     O_2   0.905952 0.239513 0.751737 -0.342611
N14   N     N_R   0.878021 0.751648 0.557795 0.157646
O38   O     O_R   0.854673 0.790158 0.447264 -0.321689
O39   O     O_R   0.893960 0.846377 0.635159 -0.152450
N15   N     N_R   0.896030 0.243662 0.472633 0.137963
O40   O     O_R   0.833376 0.263340 0.376675 -0.251210
O41   O     O_R   0.908461 0.118967 0.508020 -0.209469
C34   C     C_2   0.130533 0.592362 0.275744 0.308723
H16   H     H_    0.223140 0.609211 0.282694 0.119906
O42   O     O_2   0.079136 0.645275 0.190619 -0.403660
C35   C     C_2   0.096151 0.367287 0.294316 0.486347
H17   H     H_    0.185093 0.348396 0.269267 0.111647
O43   O     O_2   0.021682 0.294925 0.252380 -0.364736

loop_
_geom_bond_atom_site_label_1
_geom_bond_atom_site_label_2
_geom_bond_distance
_ccdc_geom_bond_type
C5    H1    1.103368 S    
C14   C18   1.650863 S    
N14   O38   1.298344 A    
C34   O42   1.223141 D    
C25   C26   1.665276 S    
C15   C32   1.538145 S    
C32   H14   1.073036 S    
Cu2   N1    2.133920 S    
C14   C16   1.638501 S    
N15   O41   1.302476 A    
Cu1   Cu2   2.841713 S    
C27   O9    1.219409 D    
N4    O12   1.283703 A    
C15   C19   1.622061 S    
Cu1   O7    2.024294 S    
N11   O27   1.297809 A    
C21   H5    1.080441 S    
O4    C2    1.344552 A    
O7    C4    1.354146 A    
C29   O33   1.222669 D    
C14   C31   1.559686 S    
C7    C8    1.566104 S    
N5    O14   1.299848 A    
C5    C7    1.549085 S    
O5    C3    1.367965 A    
C35   H17   1.074596 S    
C31   H13   1.052983 S    
N7    O19   1.302251 A    
C22   N4    1.460719 S    
C23   N5    1.478197 S    
C6    C7    1.550185 S    
N8    O21   1.295168 A    
C26   N8    1.519266 S    
N3    O11   1.273355 A    
C34   H16   1.079455 S    
C11   N13   1.457985 S    
C30   O34   1.221394 D    
C21   N1    1.529661 S    
Cu2   O8    2.036842 S    
C23   H7    1.093867 S    
C13   C18   1.644840 S    
N4    O13   1.294435 A    
N6    O16   1.289608 A    
C6    C12   1.541570 S    
C24   N6    1.485241 S    
C25   N1    1.576631 S    
C26   N2    1.547712 S    
C25   N7    1.472730 S    
O3    Cu1   2.037110 S    
N15   O40   1.296957 A    
C19   C20   1.586793 S    
C25   N9    1.521534 S    
N12   O29   1.300156 A    
N6    O17   1.300802 A    
N11   O26   1.293561 A    
H4    C20   1.092043 S    
C27   H9    1.078283 S    
C4    C8    1.550395 S    
N13   O31   1.299154 A    
C23   C24   1.605750 S    
N10   O25   1.296656 A    
C29   H11   1.060668 S    
N9    O22   1.297130 A    
C23   N1    1.505402 S    
N12   O28   1.299724 A    
C9    N11   1.460037 S    
C15   N14   1.487499 S    
O1    C1    1.371418 A    
C21   C22   1.600721 S    
C24   H8    1.069692 S    
C3    C19   1.604014 S    
N7    O18   1.285201 A    
C16   N15   1.501248 S    
C28   H10   1.069059 S    
C24   N2    1.545116 S    
C14   C29   1.535600 S    
C2    C12   1.492114 S    
C21   N3    1.444415 S    
C31   O35   1.221687 D    
N3    O10   1.301837 A    
C17   C20   1.586626 S    
Cu1   N2    2.135567 S    
O3    C2    1.343182 A    
C5    C12   1.540092 S    
C28   O32   1.218444 D    
C8    C10   1.569895 S    
C16   C19   1.636636 S    
C33   H15   1.073634 S    
C33   O37   1.220104 D    
C9    C11   1.530974 S    
C22   N2    1.487824 S    
N14   O39   1.304161 A    
C16   C33   1.532326 S    
Cu1   O5    2.107294 S    
C6    C10   1.547026 S    
O1    Cu1   2.103561 S    
C17   C34   1.523961 S    
C17   C18   1.627359 S    
O2    Cu2   2.106838 S    
C7    C27   1.486779 S    
C10   N12   1.452356 S    
O8    C4    1.361144 A    
N13   O30   1.298647 A    
O6    C3    1.364488 A    
O4    Cu2   2.024538 S    
C32   O36   1.216039 D    
C13   C15   1.631807 S    
C13   C30   1.524131 S    
C22   H6    1.089052 S    
O2    C1    1.359493 A    
N10   O24   1.297158 A    
C6    H2    1.105366 S    
H3    C20   1.093326 S    
C26   N10   1.474731 S    
C17   C35   1.519508 S    
N5    O15   1.288082 A    
C1    C18   1.602730 S    
C35   O43   1.218625 D    
C11   C12   1.519779 S    
C5    C9    1.540064 S    
C8    C9    1.568449 S    
Cu2   O6    2.104016 S    
N8    O20   1.304723 A    
C13   C28   1.551451 S    
N9    O23   1.305107 A    
C10   C11   1.532826 S    
C30   H12   1.078651 S    
