data_mof_unit_31392.cif
_audit_creation_date              2012-12-11T16:37:27-0500
_audit_creation_method            fapswitch 2.2
_symmetry_space_group_name_H-M    P1
_symmetry_Int_Tables_number       1
_space_group_crystal_system       triclinic
_cell_length_a                    19.499522
_cell_length_b                    6.94063
_cell_length_c                    17.709271
_cell_angle_alpha                 90.000146
_cell_angle_beta                  109.044612
_cell_angle_gamma                 89.999626
_cell_volume                      2265.56759938

loop_
_atom_site_label
_atom_site_type_symbol
_atom_type_description
_atom_site_fract_x
_atom_site_fract_y
_atom_site_fract_z
_atom_type_partial_charge
O1    O     O_R   0.561710 0.369960 0.440200 -0.537887
O2    O     O_R   0.061710 0.630040 0.940200 -0.537891
O3    O     O_R   0.412630 0.033330 0.406330 -0.535355
O4    O     O_R   0.912630 0.966670 0.906330 -0.535343
O5    O     O_R   0.438290 0.869790 0.559800 -0.543318
O6    O     O_R   0.938290 0.130210 0.059800 -0.543320
C1    C     C_R   0.385099 0.203143 0.382846 0.700595
C2    C     C_R   0.885100 0.796856 0.882845 0.700608
O7    O     O_R   0.559570 0.039810 0.430640 -0.537876
O8    O     O_R   0.059570 0.960190 0.930640 -0.537870
O9    O     O_R   0.586280 0.876320 0.584290 -0.540173
O10   O     O_R   0.086280 0.123680 0.084290 -0.540169
C3    C     C_R   0.581044 0.209016 0.415570 0.701100
C4    C     C_R   0.081044 0.790984 0.915570 0.701101
O11   O     O_R   0.413720 0.363440 0.415710 -0.543511
O12   O     O_R   0.913720 0.636560 0.915710 -0.543516
O13   O     O_3   0.508590 0.205630 0.550380 -0.373725
O14   O     O_3   0.008590 0.794370 0.050380 -0.373727
V1    V     V_3+5 0.498410 0.928130 0.490650 1.422983
V2    V     V_3+5 0.998410 0.071870 0.990650 1.423007
O15   O     O_R   0.587370 0.546990 0.593670 -0.540313
O16   O     O_R   0.087370 0.453010 0.093670 -0.540315
C5    C     C_R   0.614941 0.716836 0.617278 0.695460
C6    C     C_R   0.114941 0.283163 0.117278 0.695456
O17   O     O_R   0.440430 0.540520 0.569360 -0.544315
O18   O     O_R   0.940430 0.459480 0.069360 -0.544317
C7    C     C_R   0.418996 0.709290 0.584550 0.677776
C8    C     C_R   0.918996 0.290710 0.084550 0.677770
V3    V     V_3+5 0.501590 0.428960 0.509350 1.406013
V4    V     V_3+5 0.001590 0.571040 0.009350 1.406010
O19   O     O_3   0.491410 0.701330 0.449620 -0.361875
O20   O     O_3   0.991410 0.298670 0.949620 -0.361869
C9    C     C_R   0.313629 0.906665 0.714434 -0.142633
C10   C     C_R   0.813623 0.093320 0.214425 -0.142637
H1    H     H_    0.308949 0.043207 0.741854 0.101787
H2    H     H_    0.808941 0.956764 0.241841 0.101776
C11   C     C_R   0.360130 0.895301 0.668769 -0.162876
C12   C     C_R   0.860124 0.104684 0.168761 -0.162869
H3    H     H_    0.388837 0.023903 0.661545 0.122353
H4    H     H_    0.888827 0.976067 0.161531 0.122345
C13   C     C_R   0.370187 0.720121 0.633829 -0.051356
C14   C     C_R   0.870186 0.279880 0.133828 -0.051348
C15   C     C_R   0.332219 0.556704 0.645436 -0.163860
C16   C     C_R   0.832223 0.443313 0.145441 -0.163858
H5    H     H_    0.338118 0.419862 0.618800 0.117892
H6    H     H_    0.838126 0.580169 0.118813 0.117885
C17   C     C_R   0.284840 0.568642 0.690119 -0.138962
C18   C     C_R   0.784842 0.431375 0.190123 -0.138959
H7    H     H_    0.255164 0.440613 0.695655 0.100207
H8    H     H_    0.755169 0.559417 0.195662 0.100198
C19   C     C_R   0.274887 0.743778 0.725564 0.091906
C20   C     C_R   0.774885 0.256222 0.225561 0.091920
C21   C     C_R   0.214907 0.597525 0.818930 -0.139792
C22   C     C_R   0.714903 0.402492 0.318927 -0.139796
H9    H     H_    0.244404 0.464680 0.820534 0.103217
H10   H     H_    0.744398 0.535349 0.320530 0.103207
C23   C     C_R   0.167946 0.608671 0.864014 -0.149724
C24   C     C_R   0.667942 0.391346 0.364010 -0.149698
H11   H     H_    0.162187 0.483435 0.897942 0.122509
H12   H     H_    0.662181 0.516597 0.397937 0.122502
C25   C     C_R   0.130059 0.779752 0.866519 -0.055877
C26   C     C_R   0.630059 0.220248 0.366518 -0.055865
C27   C     C_R   0.139994 0.939140 0.822199 -0.151914
C28   C     C_R   0.639996 0.060842 0.322200 -0.151909
H13   H     H_    0.111378 0.072830 0.822325 0.136642
H14   H     H_    0.611383 0.927137 0.322328 0.136645
C29   C     C_R   0.186233 0.927201 0.776135 -0.139989
C30   C     C_R   0.686234 0.072783 0.276134 -0.139985
H15   H     H_    0.190939 0.051728 0.741381 0.103501
H16   H     H_    0.690940 0.948243 0.241380 0.103496
C31   C     C_R   0.224705 0.756334 0.773993 0.088487
C32   C     C_R   0.724703 0.243667 0.273991 0.088500
C33   C     C_R   0.805255 0.623294 0.760629 0.077112
C34   C     C_R   0.305265 0.376666 0.260613 0.077081
C35   C     C_R   0.818398 0.782925 0.812197 -0.111487
C36   C     C_R   0.318398 0.217068 0.312198 -0.111485
C37   C     C_R   0.765047 0.927760 0.794660 -0.169364
C38   C     C_R   0.265037 0.072267 0.294679 -0.169368
H17   H     H_    0.772470 0.053197 0.832609 0.121309
H18   H     H_    0.272449 0.946861 0.332644 0.121274
C39   C     C_R   0.699017 0.905019 0.731596 -0.175052
C40   C     C_R   0.199006 0.095013 0.231614 -0.175032
H19   H     H_    0.658198 0.016351 0.721816 0.127774
H20   H     H_    0.158178 0.983723 0.221853 0.127748
C41   C     C_R   0.683954 0.735761 0.684663 -0.100521
C42   C     C_R   0.183954 0.264233 0.184662 -0.100512
C43   C     C_R   0.739824 0.600603 0.698438 0.085574
C44   C     C_R   0.239837 0.399355 0.198421 0.085539
C45   C     C_3   0.738573 0.388735 0.711490 -0.456589
C46   C     C_3   0.238611 0.611250 0.211431 -0.456529
C47   C     C_3   0.810185 0.413173 0.779259 -0.220566
C48   C     C_3   0.310217 0.586810 0.279210 -0.220513
H21   H     H_    0.742207 0.305554 0.659208 0.175963
H22   H     H_    0.242262 0.694328 0.159133 0.175945
H23   H     H_    0.693042 0.346358 0.732742 0.166497
H24   H     H_    0.193081 0.653739 0.232667 0.166510
H25   H     H_    0.807235 0.380605 0.839570 0.122991
H26   H     H_    0.307265 0.619466 0.339514 0.123004
C49   C     C_1   0.872073 0.322653 0.762895 0.384087
N1    N     N_1   0.920781 0.251216 0.750121 -0.364847
C50   C     C_1   0.372119 0.677228 0.262837 0.384062
N2    N     N_1   0.420840 0.748583 0.250056 -0.364864

loop_
_geom_bond_atom_site_label_1
_geom_bond_atom_site_label_2
_ccdc_geom_bond_type
C24   C26   A    
V4    O20   S    
C27   H13   S    
C50   N2    T    
O11   V3    S    
C38   C40   A    
O13   V3    S    
C21   H9    S    
O4    C2    A    
V1    O19   S    
C48   H26   S    
C17   H7    S    
O9    V1    S    
C19   C31   S    
C28   C30   A    
C36   C38   A    
C12   C14   A    
O3    C1    A    
V2    O20   S    
C38   H18   S    
C23   H11   S    
O12   V4    S    
C34   C48   S    
C25   C27   A    
O7    C3    A    
C33   C43   A    
C26   C28   A    
O13   V1    S    
O5    C7    A    
O7    V1    S    
O6    C8    A    
C3    C26   S    
O8    V2    S    
O3    V1    S    
O14   V4    S    
C45   C47   S    
C13   C15   A    
C29   C31   A    
C18   H8    S    
C2    O12   A    
C11   C13   A    
C33   C35   A    
C14   C16   A    
C39   H19   S    
C16   H6    S    
C46   H22   S    
C24   H12   S    
C27   C29   A    
C37   H17   S    
O17   V3    S    
C22   H10   S    
C42   C44   A    
C33   C47   S    
O8    C4    A    
C21   C23   A    
C17   C19   A    
C1    O11   A    
C40   C42   A    
C4    C25   S    
O15   V3    S    
C2    C35   S    
C9    C11   A    
C9    C19   A    
C29   H15   S    
C28   H14   S    
C45   H23   S    
C20   C32   S    
C15   H5    S    
C7    C13   S    
C46   C48   S    
C49   N1    T    
C37   C39   A    
C30   C32   A    
O10   V2    S    
O1    V3    S    
C47   H25   S    
C46   H24   S    
C35   C37   A    
C34   C36   A    
C48   C50   S    
C30   H16   S    
C44   C46   S    
O18   V4    S    
C40   H20   S    
O15   C5    A    
O16   C6    A    
O1    C3    A    
C21   C31   A    
C22   C24   A    
O16   V4    S    
C10   C12   A    
C10   C20   A    
C23   C25   A    
C1    C36   S    
O5    V1    S    
O17   C7    A    
O6    V2    S    
O10   C6    A    
O18   C8    A    
O2    V4    S    
C47   C49   S    
C43   C45   S    
C11   H3    S    
C12   H4    S    
C15   C17   A    
O9    C5    A    
C9    H1    S    
C10   H2    S    
O14   V2    S    
C45   H21   S    
O2    C4    A    
O4    V2    S    
C41   C43   A    
C18   C20   A    
C22   C32   A    
V3    O19   S    
C5    C41   S    
C34   C44   A    
C6    C42   S    
C39   C41   A    
C16   C18   A    
C8    C14   S    
