data_mof_unit_37539.cif
_audit_creation_date              2012-12-11T15:08:50-0500
_audit_creation_method            fapswitch 2.2
_symmetry_space_group_name_H-M    P1
_symmetry_Int_Tables_number       1
_space_group_crystal_system       triclinic
_cell_length_a                    19.497338
_cell_length_b                    11.317006
_cell_length_c                    18.695688
_cell_angle_alpha                 90.045047
_cell_angle_beta                  90.5334
_cell_angle_gamma                 89.924132
_cell_volume                      4125.04782087

loop_
_atom_site_label
_atom_site_type_symbol
_atom_type_description
_atom_site_fract_x
_atom_site_fract_y
_atom_site_fract_z
_atom_type_partial_charge
C1    C     C_R   0.272607 0.043272 0.854054 0.535931
C2    C     C_3   0.687921 0.528249 0.955213 -0.198903
C3    C     C_R   0.226393 0.542037 0.354780 0.541115
C4    C     C_R   0.466236 0.822641 0.644412 0.551190
C5    C     C_R   0.536424 0.822665 0.356786 0.554385
C6    C     C_R   0.966236 0.322641 0.644412 0.551200
C7    C     C_R   0.036424 0.322665 0.356786 0.554383
C8    C     C_R   0.259891 0.637020 0.645000 0.538787
C9    C     C_R   0.738845 0.641267 0.356724 0.538434
C10   C     C_R   0.759891 0.137020 0.645000 0.538789
C11   C     C_R   0.238845 0.141266 0.356724 0.538431
C12   C     C_3   0.479901 0.916368 0.035749 -0.105906
C13   C     C_3   0.812095 0.027977 0.044717 -0.199100
C14   C     C_3   0.519932 0.916415 0.964403 -0.105996
C15   C     C_3   0.979892 0.416368 0.035749 -0.105916
C16   C     C_3   0.019922 0.416416 0.964402 -0.105983
C17   C     C_3   0.431794 0.818847 0.006483 -0.161578
C18   C     C_3   0.568174 0.818857 0.993537 -0.161753
C19   C     C_3   0.931784 0.318847 0.006486 -0.161596
C20   C     C_3   0.068166 0.318859 0.993535 -0.161745
C21   C     C_3   0.471850 0.820297 0.935988 0.058089
C22   C     C_3   0.528114 0.820200 0.064026 0.057896
C23   C     C_3   0.971838 0.320296 0.935989 0.058088
C24   C     C_3   0.187922 0.028246 0.955213 -0.198986
C25   C     C_3   0.028107 0.320202 0.064025 0.057888
C26   C     C_3   0.322962 0.556761 0.964715 0.112972
C27   C     C_3   0.677058 0.556975 0.035248 0.112926
C28   C     C_3   0.822962 0.056764 0.964715 0.112972
C29   C     C_3   0.177057 0.056973 0.035248 0.112903
C30   C     C_3   0.180690 0.522196 0.025271 -0.226211
C31   C     C_3   0.819313 0.521911 0.974626 -0.225993
C32   C     C_3   0.680691 0.022195 0.025271 -0.226213
C33   C     C_R   0.727388 0.043244 0.145925 0.537415
C34   C     C_3   0.319313 0.021913 0.974627 -0.225994
C35   C     C_3   0.240657 0.706377 0.056696 -0.261889
C36   C     C_3   0.759338 0.706389 0.943451 -0.262140
C37   C     C_3   0.740656 0.206377 0.056696 -0.261871
C38   C     C_3   0.259336 0.206389 0.943450 -0.262137
C39   C     C_3   0.241239 0.573936 0.070332 0.026271
C40   C     C_3   0.758765 0.573971 0.929658 0.026768
C41   C     C_3   0.741239 0.073937 0.070332 0.026261
C42   C     C_3   0.258765 0.073970 0.929658 0.026789
C43   C     C_3   0.255761 0.609630 0.932320 0.095967
C44   C     C_R   0.772606 0.543273 0.854054 0.535921
C45   C     C_3   0.744246 0.609581 0.067690 0.095623
C46   C     C_3   0.755761 0.109631 0.932320 0.095957
C47   C     C_3   0.244245 0.109581 0.067690 0.095630
C48   C     C_3   0.196541 0.522941 0.944689 -0.238401
C49   C     C_3   0.803476 0.522677 0.055214 -0.238459
C50   C     C_3   0.696543 0.022941 0.944689 -0.238401
C51   C     C_3   0.303476 0.022679 0.055215 -0.238464
C52   C     C_3   0.238069 0.724555 0.974737 -0.262827
C53   C     C_3   0.761905 0.724474 0.025423 -0.262975
C54   C     C_3   0.738068 0.224556 0.974738 -0.262814
C55   C     C_R   0.227388 0.543244 0.145925 0.537419
C56   C     C_3   0.261902 0.224475 0.025422 -0.262978
C57   C     C_3   0.508152 0.701642 0.462212 -0.225089
C58   C     C_3   0.505689 0.702322 0.541935 -0.234001
C59   C     C_3   0.008151 0.201642 0.462212 -0.225090
C60   C     C_3   0.005689 0.202321 0.541935 -0.234001
C61   C     C_R   0.444093 0.817160 0.862276 0.532857
C62   C     C_R   0.555873 0.817050 0.137727 0.532812
C63   C     C_R   0.944081 0.317158 0.862278 0.532841
C64   C     C_R   0.055867 0.317050 0.137723 0.532789
C65   C     C_3   0.565328 0.908545 0.477033 -0.184878
C66   C     C_3   0.519646 0.723179 0.964548 -0.114860
C67   C     C_3   0.429999 0.881821 0.522000 -0.222355
C68   C     C_3   0.065328 0.408545 0.477033 -0.184881
C69   C     C_3   0.929999 0.381821 0.521999 -0.222358
C70   C     C_3   0.445983 0.889513 0.440977 0.077344
C71   C     C_3   0.549745 0.908375 0.558112 0.088396
C72   C     C_3   0.945983 0.389513 0.440977 0.077344
C73   C     C_3   0.049744 0.408375 0.558112 0.088398
C74   C     C_3   0.515019 0.829761 0.432165 0.070388
C75   C     C_3   0.488382 0.828792 0.568918 0.060583
C76   C     C_3   0.015019 0.329760 0.432165 0.070388
C77   C     C_3   0.480460 0.723130 0.035331 -0.114859
C78   C     C_3   0.988381 0.328792 0.568918 0.060587
C79   C     C_3   0.177498 0.640340 0.461516 -0.233742
C80   C     C_3   0.815971 0.660090 0.543179 -0.236987
C81   C     C_3   0.677497 0.140339 0.461516 -0.233743
C82   C     C_3   0.315972 0.160090 0.543179 -0.236987
C83   C     C_3   0.178671 0.639727 0.541539 -0.238951
C84   C     C_3   0.814327 0.663390 0.463216 -0.229241
C85   C     C_3   0.678671 0.139726 0.541539 -0.238951
C86   C     C_3   0.314327 0.163389 0.463216 -0.229242
C87   C     C_3   0.256816 0.453222 0.472689 -0.211623
C88   C     C_3   0.019637 0.223179 0.964547 -0.114845
C89   C     C_3   0.759026 0.459428 0.527368 -0.222276
C90   C     C_3   0.756816 0.953221 0.472689 -0.211623
C91   C     C_3   0.259026 0.959427 0.527368 -0.222277
C92   C     C_3   0.300742 0.648532 0.443831 -0.238657
C93   C     C_3   0.690910 0.634591 0.557103 -0.250100
C94   C     C_3   0.800742 0.148532 0.443831 -0.238657
C95   C     C_3   0.190910 0.134590 0.557103 -0.250100
C96   C     C_3   0.239506 0.569703 0.430985 0.046162
C97   C     C_3   0.759179 0.575630 0.570821 0.047596
C98   C     C_3   0.739506 0.069703 0.430986 0.046162
C99   C     C_3   0.980453 0.223130 0.035333 -0.114858
C100  C     C_3   0.259179 0.075630 0.570821 0.047596
C101  C     C_3   0.250804 0.601115 0.569199 0.055615
C102  C     C_3   0.746888 0.607714 0.432892 0.056115
C103  C     C_3   0.750804 0.101115 0.569199 0.055615
C104  C     C_3   0.246888 0.107713 0.432892 0.056115
C105  C     C_3   0.260112 0.470514 0.554613 -0.261390
C106  C     C_3   0.753178 0.476026 0.445493 -0.271170
C107  C     C_3   0.760112 0.970514 0.554613 -0.261390
C108  C     C_3   0.253178 0.976025 0.445493 -0.271170
C109  C     C_R   0.262412 0.642109 0.855062 0.559610
C110  C     C_3   0.312094 0.527975 0.044716 -0.199101
C111  C     C_R   0.737607 0.642069 0.144965 0.560048
C112  C     C_R   0.762412 0.142110 0.855062 0.559606
C113  C     C_R   0.237606 0.142071 0.144965 0.560058
C114  C     C_3   0.306760 0.663853 0.525837 -0.218821
C115  C     C_3   0.681511 0.644268 0.475244 -0.210690
C116  C     C_3   0.806760 0.163853 0.525837 -0.218821
C117  C     C_3   0.181511 0.144268 0.475244 -0.210691
C118  C     C_R   0.272612 0.044992 0.646584 0.538914
C119  C     C_R   0.726393 0.042037 0.354781 0.541114
C120  C     C_R   0.772612 0.544992 0.646584 0.538914
Cr1   Cr    Cr6+3 0.229620 0.836040 0.749110 0.990310
Cr2   Cr    Cr6+3 0.613980 0.676590 0.250790 1.020807
Cr3   Cr    Cr6+3 0.886020 0.176590 0.749210 1.019216
Cr4   Cr    Cr6+3 0.113980 0.176590 0.250790 1.020849
Cr5   Cr    Cr6+3 0.770380 0.836040 0.250890 0.991754
Cr6   Cr    Cr6+3 0.729620 0.336040 0.749110 0.990309
Cr7   Cr    Cr6+3 0.270380 0.336040 0.250890 0.991749
Cr8   Cr    Cr6+3 0.387630 0.990680 0.750730 0.999193
Cr9   Cr    Cr6+3 0.612370 0.990680 0.249270 1.000321
Cr10  Cr    Cr6+3 0.887630 0.490680 0.750730 0.999191
Cr11  Cr    Cr6+3 0.112370 0.490680 0.249270 1.000327
Cr12  Cr    Cr6+3 0.386020 0.676590 0.749210 1.019218
H1    H     H_    0.377312 0.806553 0.018302 0.081527
H2    H     H_    0.712871 0.745678 0.918793 0.107301
H3    H     H_    0.217863 0.899674 0.545744 0.131231
H4    H     H_    0.311018 0.442234 0.575862 0.109180
H5    H     H_    0.708016 0.427891 0.423542 0.107993
H6    H     H_    0.811018 0.942234 0.575862 0.109179
H7    H     H_    0.208016 0.927891 0.423542 0.107994
H8    H     H_    0.317027 0.433124 0.054350 0.155351
H9    H     H_    0.683003 0.433416 0.945445 0.155579
H10   H     H_    0.817028 0.933126 0.054350 0.155353
H11   H     H_    0.183005 0.933414 0.945444 0.155529
H12   H     H_    0.353565 0.569527 0.077160 0.080163
H13   H     H_    0.787131 0.245467 0.081380 0.107528
H14   H     H_    0.646457 0.570006 0.922822 0.079717
H15   H     H_    0.853565 0.069530 0.077160 0.080165
H16   H     H_    0.146456 0.070002 0.922821 0.079729
H17   H     H_    0.364142 0.623881 0.959853 0.122252
H18   H     H_    0.635857 0.624214 0.040223 0.122227
H19   H     H_    0.864142 0.123885 0.959853 0.122251
H20   H     H_    0.135853 0.124207 0.040222 0.122298
H21   H     H_    0.665763 0.936965 0.046463 0.101680
H22   H     H_    0.334181 0.936605 0.953299 0.101679
H23   H     H_    0.165760 0.436967 0.046464 0.101680
H24   H     H_    0.212868 0.245676 0.918793 0.107302
H25   H     H_    0.834181 0.436604 0.953296 0.101678
H26   H     H_    0.710915 0.934427 0.925856 0.161370
H27   H     H_    0.289129 0.934209 0.073947 0.161432
H28   H     H_    0.210913 0.434426 0.925857 0.161368
H29   H     H_    0.789130 0.434207 0.073947 0.161437
H30   H     H_    0.601099 0.900958 0.647423 0.328002
H31   H     H_    0.398788 0.866042 0.350051 0.329966
H32   H     H_    0.101102 0.400969 0.647421 0.328000
H33   H     H_    0.898788 0.366042 0.350051 0.329969
H34   H     H_    0.390835 0.437432 0.942093 0.312084
H35   H     H_    0.272303 0.794948 0.958977 0.104256
H36   H     H_    0.609202 0.437923 0.057772 0.312088
H37   H     H_    0.890837 0.937436 0.942094 0.312083
H38   H     H_    0.109241 0.937817 0.057695 0.312077
H39   H     H_    0.727663 0.794992 0.041298 0.104207
H40   H     H_    0.772301 0.294950 0.958978 0.104250
H41   H     H_    0.227658 0.294991 0.041296 0.104203
H42   H     H_    0.184693 0.749966 0.960315 0.145975
H43   H     H_    0.815281 0.749632 0.039880 0.145947
H44   H     H_    0.684692 0.249966 0.960315 0.146005
H45   H     H_    0.622677 0.806622 0.981751 0.081551
H46   H     H_    0.315278 0.249634 0.039880 0.145948
H47   H     H_    0.633801 0.076940 0.033372 0.140193
H48   H     H_    0.366211 0.076425 0.966580 0.140277
H49   H     H_    0.133801 0.576944 0.033372 0.140187
H50   H     H_    0.866211 0.576422 0.966579 0.140279
H51   H     H_    0.150094 0.550343 0.914006 0.110825
H52   H     H_    0.849904 0.549909 0.085931 0.110955
H53   H     H_    0.650096 0.050343 0.914006 0.110825
H54   H     H_    0.349903 0.049911 0.085932 0.110959
H55   H     H_    0.547817 0.640930 0.445130 0.118244
H56   H     H_    0.877301 0.306556 0.018314 0.081531
H57   H     H_    0.468221 0.633739 0.557489 0.118692
H58   H     H_    0.047816 0.140929 0.445130 0.118243
H59   H     H_    0.968221 0.133739 0.557489 0.118691
H60   H     H_    0.460754 0.659670 0.440863 0.172307
H61   H     H_    0.554963 0.673375 0.565019 0.173428
H62   H     H_    0.960754 0.159670 0.440863 0.172308
H63   H     H_    0.054962 0.173375 0.565019 0.173429
H64   H     H_    0.618933 0.893930 0.465724 0.137239
H65   H     H_    0.390242 0.819950 0.527728 0.147472
H66   H     H_    0.118933 0.393929 0.465724 0.137238
H67   H     H_    0.122671 0.306625 0.981747 0.081544
H68   H     H_    0.890242 0.319950 0.527728 0.147472
H69   H     H_    0.464778 0.996909 0.065515 0.115372
H70   H     H_    0.535007 0.996976 0.934767 0.115185
H71   H     H_    0.964772 0.496909 0.065518 0.115370
H72   H     H_    0.034997 0.496975 0.934764 0.115188
H73   H     H_    0.448007 0.984335 0.424804 0.106229
H74   H     H_    0.535942 0.000036 0.575228 0.103572
H75   H     H_    0.948007 0.484335 0.424804 0.106229
H76   H     H_    0.035941 0.500036 0.575227 0.103568
H77   H     H_    0.416163 0.969811 0.542358 0.085700
H78   H     H_    0.195344 0.748334 0.081685 0.202582
H79   H     H_    0.554270 0.998826 0.459376 0.058577
H80   H     H_    0.916163 0.469811 0.542358 0.085700
H81   H     H_    0.054271 0.498826 0.459376 0.058578
H82   H     H_    0.127514 0.613792 0.441990 0.142000
H83   H     H_    0.868887 0.636221 0.559416 0.138408
H84   H     H_    0.627514 0.113791 0.441990 0.142000
H85   H     H_    0.368887 0.136221 0.559416 0.138408
H86   H     H_    0.179629 0.733344 0.442534 0.108104
H87   H     H_    0.807891 0.749124 0.565554 0.114997
H88   H     H_    0.679628 0.233343 0.442534 0.108103
H89   H     H_    0.804658 0.748182 0.918537 0.202489
H90   H     H_    0.307891 0.249124 0.565554 0.114998
H91   H     H_    0.162804 0.729619 0.558330 0.133217
H92   H     H_    0.823572 0.753661 0.446175 0.136570
H93   H     H_    0.662804 0.229619 0.558329 0.133216
H94   H     H_    0.323573 0.253661 0.446175 0.136570
H95   H     H_    0.139651 0.579623 0.562729 0.153746
H96   H     H_    0.859199 0.614238 0.442143 0.117401
H97   H     H_    0.639652 0.079622 0.562729 0.153750
H98   H     H_    0.359199 0.114237 0.442144 0.117400
H99   H     H_    0.724499 0.879202 0.456987 0.117654
H100  H     H_    0.695341 0.248332 0.081685 0.202610
H101  H     H_    0.308288 0.925502 0.539924 0.119132
H102  H     H_    0.224499 0.379203 0.456987 0.117654
H103  H     H_    0.808288 0.425501 0.539924 0.119131
H104  H     H_    0.721025 0.917972 0.581981 0.176640
H105  H     H_    0.298325 0.941593 0.417799 0.175150
H106  H     H_    0.221025 0.417972 0.581981 0.176636
H107  H     H_    0.798325 0.441594 0.417800 0.175149
H108  H     H_    0.348158 0.608969 0.421568 0.146112
H109  H     H_    0.649880 0.579501 0.580859 0.118544
H110  H     H_    0.848158 0.108969 0.421568 0.146112
H111  H     H_    0.304655 0.248183 0.918536 0.202489
H112  H     H_    0.149880 0.079501 0.580858 0.118544
H113  H     H_    0.291931 0.734308 0.416917 0.175804
H114  H     H_    0.690421 0.722230 0.582699 0.183417
H115  H     H_    0.791931 0.234308 0.416917 0.175803
H116  H     H_    0.190420 0.222230 0.582699 0.183418
H117  H     H_    0.535051 0.642036 0.935533 0.121545
H118  H     H_    0.465128 0.641965 0.064227 0.121601
H119  H     H_    0.035043 0.142037 0.935532 0.121548
H120  H     H_    0.965123 0.141966 0.064231 0.121620
H121  H     H_    0.296598 0.753201 0.538315 0.113436
H122  H     H_    0.287135 0.745465 0.081378 0.107535
H123  H     H_    0.661422 0.729241 0.458651 0.118506
H124  H     H_    0.796598 0.253201 0.538315 0.113435
H125  H     H_    0.161422 0.229241 0.458650 0.118505
H126  H     H_    0.358179 0.635530 0.544281 0.128741
H127  H     H_    0.642290 0.578082 0.460954 0.120815
H128  H     H_    0.858179 0.135530 0.544281 0.128740
H129  H     H_    0.142290 0.078082 0.460954 0.120815
H130  H     H_    0.309408 0.429378 0.456466 0.117746
H131  H     H_    0.717863 0.399674 0.545744 0.131231
H132  H     H_    0.809408 0.929378 0.456467 0.117746
O1    O     O_R   0.214130 0.708570 0.829890 -0.543612
O2    O     O_R   0.542830 0.717300 0.331620 -0.520892
O3    O     O_R   0.957170 0.217300 0.668380 -0.526009
O4    O     O_R   0.042830 0.217300 0.331620 -0.520893
O5    O     O_R   0.320870 0.624890 0.673130 -0.512979
O6    O     O_R   0.679130 0.624890 0.326870 -0.513047
O7    O     O_R   0.820870 0.124890 0.673130 -0.512980
O8    O     O_R   0.179130 0.124890 0.326870 -0.513048
O9    O     O_3   0.334430 0.834430 0.749680 -0.294599
O10   O     O_3   0.665570 0.834430 0.250320 -0.298913
O11   O     O_3   0.834430 0.334430 0.749680 -0.294605
O12   O     O_R   0.785870 0.708570 0.170110 -0.542791
O13   O     O_3   0.165570 0.334430 0.250320 -0.298914
O14   O     O_R   0.236050 0.959150 0.825270 -0.515638
O15   O     O_R   0.763950 0.959150 0.174730 -0.514609
O16   O     O_R   0.736050 0.459150 0.825270 -0.515644
O17   O     O_R   0.263950 0.459150 0.174730 -0.514611
O18   O     O_R   0.332100 0.076650 0.832310 -0.524736
O19   O     O_R   0.667900 0.076650 0.167690 -0.524237
O20   O     O_R   0.832100 0.576650 0.832310 -0.524736
O21   O     O_R   0.167900 0.576650 0.167690 -0.524232
O22   O     O_R   0.446500 0.918620 0.826240 -0.504034
O23   O     O_R   0.714130 0.208570 0.829890 -0.543612
O24   O     O_R   0.553500 0.918620 0.173760 -0.503589
O25   O     O_R   0.946500 0.418620 0.826240 -0.504026
O26   O     O_R   0.053500 0.418620 0.173760 -0.503585
O27   O     O_R   0.457310 0.715830 0.831280 -0.517348
O28   O     O_R   0.542690 0.715830 0.168720 -0.516433
O29   O     O_R   0.957310 0.215830 0.831280 -0.517340
O30   O     O_R   0.042690 0.215830 0.168720 -0.516403
O31   O     O_R   0.321000 0.623520 0.824130 -0.471157
O32   O     O_R   0.679000 0.623520 0.175870 -0.470456
O33   O     O_R   0.821000 0.123520 0.824130 -0.471160
O34   O     O_R   0.285870 0.208570 0.170110 -0.542800
O35   O     O_R   0.179000 0.123520 0.175870 -0.470413
O36   O     O_R   0.213990 0.710040 0.667000 -0.533526
O37   O     O_R   0.786010 0.710040 0.333000 -0.532983
O38   O     O_R   0.713990 0.210040 0.667000 -0.533525
O39   O     O_R   0.286010 0.210040 0.333000 -0.532984
O40   O     O_R   0.235920 0.960520 0.674260 -0.510208
O41   O     O_R   0.764080 0.960520 0.325740 -0.510212
O42   O     O_R   0.735920 0.460520 0.674260 -0.510207
O43   O     O_R   0.264080 0.460520 0.325740 -0.510213
O44   O     O_R   0.331960 0.078120 0.669410 -0.530997
O45   O     O_R   0.446360 0.919990 0.675230 -0.519367
O46   O     O_R   0.668040 0.078120 0.330590 -0.530904
O47   O     O_R   0.831960 0.578120 0.669410 -0.530997
O48   O     O_R   0.168040 0.578120 0.330590 -0.530903
O49   O     O_3   0.605868 0.868349 0.598393 -0.777857
O50   O     O_3   0.396539 0.831930 0.398905 -0.774905
O51   O     O_3   0.105867 0.368349 0.598394 -0.777853
O52   O     O_3   0.896539 0.331931 0.398904 -0.774909
O53   O     O_3   0.342844 0.454958 0.927289 -0.726011
O54   O     O_3   0.657227 0.455188 0.072531 -0.725882
O55   O     O_3   0.842845 0.954961 0.927289 -0.726009
O56   O     O_R   0.553640 0.919990 0.324770 -0.521021
O57   O     O_3   0.157225 0.955192 0.072536 -0.725868
O58   O     O_R   0.946360 0.419990 0.675230 -0.519366
O59   O     O_R   0.053640 0.419990 0.324770 -0.521021
O60   O     O_R   0.457170 0.717300 0.668380 -0.526011

loop_
_geom_bond_atom_site_label_1
_geom_bond_atom_site_label_2
_ccdc_geom_bond_type
C37   H100  S    
C9    O6    A    
C33   O19   A    
C113  O34   A    
C46   C112  S    
C11   O8    A    
C34   C42   S    
C29   O57   S    
C14   C21   S    
C73   O51   S    
C90   C107  S    
Cr2   O10   S    
C81   H84   S    
C54   H44   S    
C5    C74   S    
Cr9   O19   S    
C36   C53   S    
C18   H45   S    
C89   C106  S    
C70   C74   S    
C35   H122  S    
C91   C100  S    
C94   H115  S    
C85   C103  S    
C83   H91   S    
C59   C60   S    
Cr9   O10   S    
H31   O50   S    
C7    O59   A    
C85   H97   S    
C57   H60   S    
Cr1   O1    S    
Cr11  O21   S    
H32   O51   S    
C19   C99   S    
C61   O27   A    
C81   H88   S    
Cr4   O4    S    
C17   C21   S    
C19   C23   S    
C19   H56   S    
C49   H52   S    
C16   C20   S    
C85   H93   S    
C13   H10   S    
C68   H81   S    
C87   H130  S    
C31   H25   S    
Cr4   O35   S    
C71   O49   S    
C73   H76   S    
C10   O7    A    
C17   H1    S    
C120  O47   A    
C104  C117  S    
C116  H124  S    
Cr12  O60   S    
C66   C77   S    
C18   C66   S    
C26   H17   S    
C10   O38   A    
C15   H71   S    
C45   C111  S    
C82   H90   S    
C58   H61   S    
C107  H6    S    
C103  C116  S    
C79   C96   S    
C115  H127  S    
Cr7   O34   S    
C67   H77   S    
C62   O24   A    
Cr8   O9    S    
C57   H55   S    
C88   C99   S    
H37   O55   S    
C2    C40   S    
C108  H105  S    
C81   C98   S    
C55   O17   A    
C103  C107  S    
C77   H118  S    
Cr8   O45   S    
C16   H72   S    
Cr10  O58   S    
Cr8   O44   S    
C21   C66   S    
C84   C102  S    
C3    O48   A    
Cr8   O18   S    
C86   C104  S    
C56   H46   S    
C50   H26   S    
C38   H111  S    
C48   H28   S    
C60   C78   S    
C34   C51   S    
C29   C47   S    
C30   C48   S    
C43   C52   S    
C15   C25   S    
C24   H11   S    
C12   C22   S    
C63   O29   A    
Cr1   O36   S    
C64   O26   A    
C8    O36   A    
C119  O46   A    
C32   C41   S    
C89   H131  S    
C90   H132  S    
C49   H29   S    
C65   H64   S    
Cr5   O37   S    
C45   C53   S    
Cr3   O33   S    
Cr4   O30   S    
Cr3   O11   S    
C92   C96   S    
C54   H40   S    
C109  O1    A    
C53   H39   S    
C106  H5    S    
C109  O31   A    
C111  O12   A    
C62   O28   A    
C65   C74   S    
C25   C64   S    
C69   C72   S    
C87   C105  S    
Cr12  O27   S    
C61   O22   A    
C2    C27   S    
C16   C23   S    
C23   C88   S    
C67   C75   S    
C13   H15   S    
Cr3   O29   S    
C93   C97   S    
C6    O3    A    
Cr2   O2    S    
Cr3   O7    S    
Cr4   O8    S    
C83   C101  S    
C18   C22   S    
C36   H2    S    
C108  H7    S    
C7    C76   S    
C27   H18   S    
C91   H101  S    
C28   C46   S    
C67   C70   S    
C89   H103  S    
C51   H54   S    
C93   H109  S    
C57   C58   S    
C44   O16   A    
C82   H85   S    
Cr12  O9    S    
C14   H70   S    
Cr10  O25   S    
C30   C39   S    
C37   C41   S    
Cr9   O56   S    
C40   C44   S    
C38   C56   S    
C28   H19   S    
C43   C109  S    
C59   C76   S    
C81   C85   S    
C60   H63   S    
C47   C56   S    
C107  H104  S    
C52   H42   S    
C24   C42   S    
C34   H48   S    
C80   C84   S    
C80   H87   S    
C13   C41   S    
Cr2   O32   S    
C70   H73   S    
C15   C19   S    
C53   H43   S    
C10   C103  S    
C35   H78   S    
C52   H35   S    
C80   C97   S    
C20   C25   S    
C94   C98   S    
C44   O20   A    
C55   O21   A    
C31   C40   S    
C24   C29   S    
C4    C75   S    
C102  C115  S    
C25   C99   S    
C79   H82   S    
C39   C55   S    
C9    C102  S    
C12   C17   S    
C69   H68   S    
C13   C28   S    
C11   C104  S    
C112  O23   A    
C119  O41   A    
C8    C101  S    
C21   C61   S    
C95   H112  S    
C117  H129  S    
C27   C45   S    
C23   C63   S    
C5    O2    A    
C113  O35   A    
C92   H113  S    
C101  C114  S    
C31   C49   S    
C80   H83   S    
Cr5   O10   S    
C34   H22   S    
Cr1   O40   S    
C86   H98   S    
C28   O55   S    
C6    O58   A    
Cr1   O14   S    
C84   H92   S    
Cr12  O5    S    
C94   C116  S    
C95   C100  S    
C72   O52   S    
C47   C51   S    
C82   C86   S    
C95   C117  S    
H38   O57   S    
C35   C39   S    
Cr6   O38   S    
C45   C49   S    
H34   O53   S    
Cr7   O43   S    
C46   C54   S    
C17   C77   S    
Cr2   O28   S    
C69   H80   S    
Cr7   O13   S    
C110  H12   S    
C88   H119  S    
C30   H23   S    
C31   H50   S    
C30   H49   S    
C100  C118  S    
C70   O50   S    
C104  C108  S    
C47   C113  S    
C114  H121  S    
C91   C108  S    
C22   C77   S    
C99   H120  S    
C67   H65   S    
C48   H51   S    
Cr4   O13   S    
Cr6   O42   S    
Cr11  O48   S    
Cr12  O31   S    
C56   H41   S    
C33   C41   S    
C1    O14   A    
C79   C83   S    
C20   C88   S    
Cr1   O9    S    
Cr11  O13   S    
C6    C78   S    
C93   H114  S    
Cr2   O6    S    
C32   H21   S    
Cr3   O3    S    
C1    C42   S    
C91   H3    S    
C35   C52   S    
C120  O42   A    
C59   H58   S    
Cr11  O59   S    
C5    O56   A    
C58   C75   S    
Cr5   O12   S    
Cr6   O11   S    
C27   O54   S    
C14   C18   S    
C38   H24   S    
C72   C76   S    
C98   C119  S    
C83   H95   S    
C92   H108  S    
C87   H102  S    
C38   C42   S    
Cr7   O39   S    
C1    O18   A    
C4    O45   A    
H33   O52   S    
C15   C16   S    
C68   H66   S    
C93   C115  S    
Cr10  O20   S    
C71   H74   S    
C118  O44   A    
C105  H106  S    
C32   H47   S    
C3    C96   S    
C43   C48   S    
C26   C110  S    
C116  H128  S    
C66   H117  S    
Cr6   O23   S    
Cr5   O41   S    
C69   C78   S    
C26   C43   S    
C72   H75   S    
Cr10  O47   S    
C39   C110  S    
C59   H62   S    
C101  C105  S    
C36   C40   S    
H36   O54   S    
C24   H16   S    
C79   H86   S    
Cr5   O15   S    
C68   C73   S    
C65   C71   S    
Cr6   O16   S    
C89   C97   S    
C57   C74   S    
H30   O49   S    
C20   H67   S    
C9    O37   A    
C8    O5    A    
C95   H116  S    
C22   C62   S    
C117  H125  S    
C11   O39   A    
C73   C78   S    
C87   C96   S    
C58   H57   S    
C118  O40   A    
C12   H69   S    
C114  H126  S    
C32   C50   S    
C105  H4    S    
C37   C54   S    
C26   O53   S    
C12   C14   S    
C86   H94   S    
C90   H99   S    
C84   H96   S    
C4    O60   A    
C33   O15   A    
C111  O32   A    
Cr11  O26   S    
C82   C100  S    
Cr9   O24   S    
Cr9   O46   S    
C2    H14   S    
C46   C50   S    
C112  O33   A    
C106  H107  S    
Cr7   O17   S    
C97   C120  S    
C110  H8    S    
C94   H110  S    
Cr8   O22   S    
C29   H20   S    
C71   C75   S    
C68   C76   S    
C60   H59   S    
C36   H89   S    
C51   H27   S    
C102  C106  S    
C7    O4    A    
C65   H79   S    
C115  H123  S    
C63   O25   A    
C2    H9    S    
C3    O43   A    
C64   O30   A    
C37   H13   S    
Cr10  O11   S    
C50   H53   S    
C92   C114  S    
C90   C98   S    
