data_mof_unit_65026.cif
_audit_creation_date              2012-12-10T17:07:11-0500
_audit_creation_method            fapswitch 2.2
_symmetry_space_group_name_H-M    P1
_symmetry_Int_Tables_number       1
_space_group_crystal_system       triclinic
_cell_length_a                    10.060904
_cell_length_b                    10.729765
_cell_length_c                    13.640428
_cell_angle_alpha                 90.115705
_cell_angle_beta                  82.899389
_cell_angle_gamma                 90.651362
_cell_volume                      1461.11183009

loop_
_atom_site_label
_atom_site_type_symbol
_atom_type_description
_atom_site_fract_x
_atom_site_fract_y
_atom_site_fract_z
_atom_type_partial_charge
C1    C     C_R   0.500724 0.737300 0.502161 0.856343
C2    C     C_R   0.500092 0.263061 0.494301 0.939205
C3    C     C_R   0.524092 0.500122 0.314452 0.903765
C4    C     C_1   0.542323 0.500144 0.210773 -0.147481
C5    C     C_2   0.554847 0.500209 0.019333 0.590741
C6    C     C_2   0.438804 0.500407 0.981550 0.293177
C7    C     C_1   0.444333 0.500314 0.876970 -0.014518
C8    C     C_1   0.553110 0.500172 0.123088 0.027477
C9    C     C_1   0.457136 0.500192 0.789238 -0.115796
C10   C     C_2   0.612313 0.067892 0.471014 -0.181619
C11   C     C_2   0.500005 0.132837 0.474964 -0.317932
C12   C     C_2   0.605175 0.934144 0.463238 0.594712
C13   C     C_2   0.503529 0.869742 0.513748 0.133472
C14   C     C_2   0.084082 0.454866 0.429331 0.103463
C15   C     C_2   0.937911 0.475392 0.422815 -0.056353
C16   C     C_R   0.475873 0.500039 0.685550 0.895848
F1    F     F_    0.674702 0.499980 0.960724 -0.652978
F2    F     F_    0.704453 0.876602 0.403345 -0.646700
H1    H     H_    0.883480 0.488300 0.567408 0.244172
H2    H     H_    0.709583 0.111941 0.473681 0.186938
H3    H     H_    0.405224 0.089242 0.463022 0.202247
H4    H     H_    0.140001 0.402888 0.369951 0.096994
H5    H     H_    0.902227 0.464037 0.351468 0.149932
H6    H     H_    0.244745 0.500730 0.999456 0.359471
H7    H     H_    0.349224 0.862836 0.615541 0.352737
H8    H     H_    0.153912 0.619853 0.596272 0.379364
N1    N     N_2   0.147970 0.498670 0.498970 0.045914
N2    N     N_2   0.852310 0.498640 0.498940 -0.161634
O1    O     O_R   0.386960 0.680940 0.500020 -0.623801
O2    O     O_3   0.410269 0.927149 0.582108 -0.785506
O3    O     O_3   0.086171 0.588660 0.555211 -0.679030
O4    O     O_R   0.613100 0.680900 0.499980 -0.548611
O5    O     O_R   0.370650 0.500000 0.640370 -0.625298
O6    O     O_R   0.596800 0.499960 0.640330 -0.595121
O7    O     O_R   0.386900 0.319100 0.500020 -0.616694
O8    O     O_R   0.613040 0.319060 0.499980 -0.622565
O9    O     O_R   0.403200 0.500040 0.359670 -0.610019
O10   O     O_R   0.629350 0.500000 0.359630 -0.606647
O11   O     O_3   0.317840 0.500626 0.042091 -0.772073
Zn1   Zn    Zn3+2 0.349000 0.500030 0.500020 1.003178
Zn2   Zn    Zn3+2 0.651000 0.499970 0.499980 1.021227

loop_
_geom_bond_atom_site_label_1
_geom_bond_atom_site_label_2
_ccdc_geom_bond_type
C2    O7    A    
C5    C8    S    
O4    Zn2   S    
C6    C7    S    
C14   N1    D    
C13   O2    S    
N1    Zn1   S    
C4    C8    T    
C14   H4    S    
C1    O1    A    
O7    Zn1   S    
C15   N2    D    
H8    O3    S    
H1    N2    S    
O8    Zn2   S    
O6    Zn2   S    
C10   C12   S    
C2    C11   S    
O1    Zn1   S    
C15   H5    S    
C9    C16   S    
O9    Zn1   S    
C5    C6    D    
C16   O5    A    
O5    Zn1   S    
C5    F1    S    
C10   C11   D    
N1    O3    S    
C3    C4    S    
N2    Zn2   S    
H6    O11   S    
C1    C13   S    
C12   C13   D    
C3    O9    A    
O10   Zn2   S    
C2    O8    A    
H7    O2    S    
C7    C9    T    
C6    O11   S    
C16   O6    A    
C14   C15   S    
C11   H3    S    
C1    O4    A    
C3    O10   A    
C10   H2    S    
C12   F2    S    
