data_mof_unit_28759.cif
_audit_creation_date              2012-12-11T15:59:26-0500
_audit_creation_method            fapswitch 2.2
_symmetry_space_group_name_H-M    P1
_symmetry_Int_Tables_number       1
_space_group_crystal_system       triclinic
_cell_length_a                    10.7639
_cell_length_b                    10.790865
_cell_length_c                    17.067947
_cell_angle_alpha                 100.227446
_cell_angle_beta                  100.339728
_cell_angle_gamma                 60.39948
_cell_volume                      1686.56548323

loop_
_atom_site_label
_atom_site_type_symbol
_atom_type_description
_atom_site_fract_x
_atom_site_fract_y
_atom_site_fract_z
_atom_type_partial_charge
C1    C     C_R   0.351144 0.780021 0.401898 0.542806
C2    C     C_R   0.831022 0.325375 0.325733 -0.001555
C3    C     C_R   0.288471 0.933332 0.180360 -0.008837
C4    C     C_R   0.365925 0.342879 0.358690 0.563885
C5    C     C_R   0.425920 0.869122 0.223730 0.002983
C6    C     C_R   0.433332 0.870275 0.307172 -0.045749
C7    C     C_R   0.183067 0.921975 0.288319 -0.025228
C8    C     C_R   0.168002 0.981030 0.219189 -0.152122
C9    C     C_R   0.555284 0.792619 0.187938 -0.158074
C10   C     C_R   0.686200 0.741640 0.235409 -0.125569
C11   C     C_R   0.690960 0.777970 0.318039 0.365804
C12   C     C_R   0.788002 0.251074 0.184011 0.004004
C13   C     C_R   0.564072 0.845273 0.353937 -0.028155
C14   C     C_R   0.317914 0.870113 0.336722 0.006394
C15   C     C_R   0.298617 0.277866 0.799269 -0.004589
C16   C     C_R   0.774454 0.374746 0.402832 0.551548
C17   C     C_R   0.423763 0.176541 0.762044 0.035943
C18   C     C_R   0.476847 0.224426 0.711965 0.036450
C19   C     C_R   0.248696 0.446687 0.707046 -0.147435
C20   C     C_R   0.210751 0.411797 0.770244 -0.142773
C21   C     C_R   0.501640 0.030514 0.776383 -0.080771
C22   C     C_R   0.639857 0.942612 0.754137 -0.107826
C23   C     C_R   0.785973 0.240733 0.265006 0.012242
C24   C     C_R   0.702977 0.999061 0.717440 -0.110335
C25   C     C_R   0.622558 0.138736 0.696568 -0.084869
C26   C     C_R   0.380590 0.353095 0.676561 -0.008528
C27   C     C_1   0.818343 0.342546 0.709042 -0.059692
C28   C     C_R   0.381720 0.715058 0.631344 0.533061
C29   C     C_1   0.845099 0.313548 0.776580 -0.051873
C30   C     C_1   0.359150 0.764261 0.713759 -0.056904
C31   C     C_1   0.325672 0.810870 0.780663 -0.061602
C32   C     C_R   0.895165 0.309553 0.088265 0.521605
C33   C     C_R   0.291259 0.260931 0.121903 0.558497
C34   C     C_R   0.902092 0.391722 0.306529 -0.138486
C35   C     C_R   0.260052 0.955583 0.096093 0.542975
C36   C     C_R   0.885949 0.297368 0.859053 0.550954
C37   C     C_R   0.278937 0.253415 0.876858 0.550413
C38   C     C_R   0.280816 0.880774 0.857814 0.552343
C39   C     C_R   0.407218 0.374972 0.600261 0.523006
C40   C     C_R   0.773461 0.380950 0.629757 0.534868
C41   C     C_1   0.324893 0.316140 0.276794 -0.055908
C42   C     C_1   0.305378 0.291457 0.206061 -0.061893
C43   C     C_R   0.852535 0.327431 0.166511 0.003567
C44   C     C_3   0.078656 0.865902 0.284768 -0.222848
C45   C     C_R   0.915017 0.390102 0.228128 -0.155722
C46   C     C_3   0.141103 0.715078 0.239155 -0.272344
C47   C     C_3   0.028674 0.666937 0.218349 -0.448864
C48   C     C_R   0.735095 0.176676 0.122710 -0.081549
C49   C     C_R   0.699086 0.079034 0.140800 -0.090997
C50   C     C_R   0.697255 0.066903 0.219765 -0.130288
C51   C     C_R   0.741429 0.144550 0.281218 -0.094783
Cr1   Cr    Cr6+3 0.608100 0.610860 0.522250 1.044985
Cr2   Cr    Cr6+3 0.288890 0.599990 0.488420 1.047356
Cr3   Cr    Cr6+3 0.603040 0.289190 0.489390 1.008083
Cr4   Cr    Cr6+3 0.053960 0.052250 0.967380 1.006547
Cr5   Cr    Cr6+3 0.059890 0.373160 0.992710 1.002569
Cr6   Cr    Cr6+3 0.373370 0.061690 0.991710 0.982024
F1    F     F_    0.818031 0.740905 0.364131 -0.677849
H1    H     H_    0.943531 0.449602 0.352247 0.188296
H2    H     H_    0.724310 0.189993 0.060142 0.142848
H3    H     H_    0.977407 0.436239 0.215860 0.128928
H4    H     H_    0.670873 0.013518 0.093201 0.137946
H5    H     H_    0.666383 0.993299 0.233806 0.138066
H6    H     H_    0.755274 0.112223 0.339614 0.172000
H7    H     H_    0.558687 0.762682 0.124343 0.162901
H8    H     H_    0.063458 0.030447 0.185089 0.141956
H9    H     H_    0.001915 0.650640 0.274010 0.220410
H10   H     H_    0.932598 0.747550 0.184634 0.143009
H11   H     H_    0.070687 0.565113 0.179651 0.172362
H12   H     H_    0.782306 0.676686 0.206751 0.123752
H13   H     H_    0.176960 0.715792 0.182075 0.181741
H14   H     H_    0.235579 0.635890 0.274276 0.198013
H15   H     H_    0.044106 0.872996 0.343459 0.195248
H16   H     H_    0.978327 0.933095 0.249193 0.141832
H17   H     H_    0.569940 0.870065 0.418318 0.157403
H18   H     H_    0.175215 0.547072 0.682304 0.146770
H19   H     H_    0.456925 0.984016 0.805493 0.149765
H20   H     H_    0.113248 0.489706 0.796548 0.146064
H21   H     H_    0.699199 0.832195 0.767513 0.122528
H22   H     H_    0.812752 0.933678 0.703162 0.125126
H23   H     H_    0.675117 0.177958 0.667725 0.153124
O1    O     O_R   0.749810 0.499790 0.438040 -0.478629
O2    O     O_R   0.411730 0.181020 0.091530 -0.507138
O3    O     O_R   0.365010 0.944360 0.063320 -0.527875
O4    O     O_R   0.477660 0.726260 0.439290 -0.501387
O5    O     O_R   0.159380 0.906670 0.876210 -0.492170
O6    O     O_R   0.930820 0.177420 0.886730 -0.489702
O7    O     O_R   0.910360 0.395420 0.895720 -0.517939
O8    O     O_R   0.186010 0.361730 0.919870 -0.483231
O9    O     O_R   0.400000 0.173010 0.914630 -0.513554
O10   O     O_R   0.354140 0.936940 0.899340 -0.529617
O11   O     O_3   0.162410 0.162370 0.983930 -0.302299
O12   O     O_R   0.298970 0.468800 0.557390 -0.498022
O13   O     O_R   0.260150 0.743000 0.412270 -0.517084
O14   O     O_R   0.297740 0.466550 0.394720 -0.488921
O15   O     O_R   0.488080 0.253500 0.386430 -0.512290
O16   O     O_R   0.722670 0.303800 0.421940 -0.521782
O17   O     O_R   0.751130 0.502220 0.613520 -0.506438
O18   O     O_R   0.478890 0.728510 0.601960 -0.486778
O19   O     O_R   0.261470 0.745430 0.587750 -0.504198
O20   O     O_R   0.489400 0.255930 0.561910 -0.511207
O21   O     O_R   0.723890 0.306050 0.584610 -0.533595
O22   O     O_3   0.500010 0.500010 0.500020 -0.288585
O23   O     O_R   0.171100 0.914680 0.053100 -0.504487
O24   O     O_R   0.941680 0.184840 0.050710 -0.529659
O25   O     O_R   0.922080 0.403420 0.072610 -0.534814
O26   O     O_R   0.196880 0.369150 0.083850 -0.499578

loop_
_geom_bond_atom_site_label_1
_geom_bond_atom_site_label_2
_ccdc_geom_bond_type
Cr1   O22   S    
C8    H8    S    
Cr6   O11   S    
Cr2   O14   S    
C41   C42   T    
Cr3   O20   S    
C19   C20   A    
C18   C26   A    
C12   C48   A    
C7    C8    A    
C36   O7    A    
C29   C36   S    
C37   O9    A    
Cr4   O24   S    
C33   C42   S    
C19   H18   S    
C22   H21   S    
C12   C43   A    
C40   O17   A    
C30   C31   T    
C26   C39   S    
Cr5   O7    S    
C27   C29   T    
C4    C41   S    
C45   H3    S    
C19   C26   A    
C39   O12   A    
C4    O15   A    
C24   H22   S    
C7    C14   A    
C47   H11   S    
C13   H17   S    
C1    O13   A    
C33   O26   A    
Cr6   O2    S    
Cr3   O16   S    
C48   H2    S    
C11   F1    S    
C2    C16   S    
C9    C10   A    
C46   H14   S    
C2    C34   A    
Cr2   O19   S    
C32   O25   A    
C21   C22   A    
C25   H23   S    
C50   H5    S    
C18   C25   A    
C47   H9    S    
C44   C46   S    
C39   O20   A    
C36   O6    A    
C1    O4    A    
C15   C20   A    
Cr6   O9    S    
Cr2   O12   S    
Cr3   O22   S    
C24   C25   A    
C3    C8    A    
C50   C51   A    
Cr4   O23   S    
C17   C21   A    
Cr1   O1    S    
Cr5   O26   S    
C5    C9    A    
Cr4   O11   S    
C6    C14   A    
C4    O14   A    
C33   O2    A    
C23   C51   A    
C12   C23   A    
C3    C35   S    
C27   C40   S    
C16   O1    A    
C17   C18   A    
Cr6   O3    S    
C34   C45   A    
C7    C44   S    
C44   H16   S    
C43   C45   A    
Cr5   O25   S    
C46   H13   S    
C10   H12   S    
C28   O18   A    
Cr5   O8    S    
C38   O5    A    
C35   O23   A    
C32   O24   A    
C34   H1    S    
C22   C24   A    
C47   H10   S    
C15   C17   A    
C46   C47   S    
Cr1   O4    S    
C49   H4    S    
Cr6   O10   S    
Cr2   O13   S    
Cr3   O15   S    
Cr3   O21   S    
C51   H6    S    
C3    C5    A    
C35   O3    A    
C37   O8    A    
Cr1   O18   S    
C31   C38   S    
C20   H20   S    
Cr4   O5    S    
C28   C30   S    
C15   C37   S    
C6    C13   A    
C11   C13   A    
C28   O19   A    
C5    C6    A    
Cr2   O22   S    
C48   C49   A    
C38   O10   A    
Cr1   O17   S    
C32   C43   S    
Cr4   O6    S    
C44   H15   S    
C16   O16   A    
C9    H7    S    
C10   C11   A    
C40   O21   A    
Cr5   O11   S    
C49   C50   A    
C21   H19   S    
C2    C23   A    
C1    C14   S    
