data_mof_unit_64015.cif
_audit_creation_date              2012-12-10T17:36:22-0500
_audit_creation_method            fapswitch 2.2
_symmetry_space_group_name_H-M    P1
_symmetry_Int_Tables_number       1
_space_group_crystal_system       triclinic
_cell_length_a                    24.576854
_cell_length_b                    24.576828
_cell_length_c                    32.778319
_cell_angle_alpha                 89.998926
_cell_angle_beta                  89.999284
_cell_angle_gamma                 89.599503
_cell_volume                      19798.3130549

loop_
_atom_site_label
_atom_site_type_symbol
_atom_type_description
_atom_site_fract_x
_atom_site_fract_y
_atom_site_fract_z
_atom_type_partial_charge
C1    C     C_1   0.500000 1.000000 0.981181 0.020277
C2    C     C_R   0.839357 0.200947 0.234816 -0.031060
C3    C     C_R   0.135913 0.299235 0.763719 -0.036132
C4    C     C_R   0.295773 0.866084 0.251745 -0.044116
C5    C     C_R   0.704227 0.133902 0.748418 -0.044115
C6    C     C_R   0.135849 0.299165 0.236467 -0.036133
C7    C     C_R   0.864080 0.700758 0.763731 -0.036131
C8    C     C_R   0.299238 0.135915 0.763721 -0.036130
C9    C     C_R   0.700838 0.864154 0.236473 -0.036133
C10   C     C_R   0.133902 0.704227 0.748435 -0.044118
C11   C     C_R   0.866084 0.295773 0.251747 -0.044115
C12   C     C_R   0.700760 0.864082 0.763728 -0.036132
C13   C     C_R   0.200912 0.160322 0.762303 -0.031353
C14   C     C_R   0.299165 0.135850 0.236466 -0.036131
C15   C     C_R   0.866097 0.295773 0.748416 -0.044115
C16   C     C_R   0.133916 0.704227 0.251744 -0.044116
C17   C     C_R   0.148712 0.648712 0.750000 -0.014774
C18   C     C_R   0.851286 0.351285 0.250001 -0.014854
C19   C     C_R   0.351686 0.148315 0.750000 -0.005226
C20   C     C_R   0.648316 0.851684 0.250000 -0.005328
C21   C     C_R   0.851288 0.351288 0.750000 -0.014780
C22   C     C_R   0.148715 0.648714 0.249999 -0.014854
C23   C     C_R   0.648315 0.851685 0.750000 -0.005223
C24   C     C_R   0.799154 0.839742 0.238124 -0.031346
C25   C     C_R   0.351684 0.148317 0.250000 -0.005326
C26   C     C_R   0.851684 0.648316 0.250000 -0.005327
C27   C     C_R   0.148314 0.351684 0.750000 -0.005226
C28   C     C_R   0.648715 0.148714 0.249999 -0.014854
C29   C     C_R   0.351289 0.851288 0.750000 -0.014774
C30   C     C_R   0.148316 0.351683 0.250000 -0.005325
C31   C     C_R   0.851684 0.648314 0.750001 -0.005224
C32   C     C_R   0.351286 0.851285 0.250001 -0.014854
C33   C     C_R   0.648712 0.148711 0.750000 -0.014780
C34   C     C_R   0.174057 0.744630 0.754419 -0.019280
C35   C     C_R   0.839301 0.201002 0.765472 -0.031051
C36   C     C_R   0.825958 0.255350 0.245751 -0.019318
C37   C     C_R   0.256630 0.174657 0.759083 -0.016441
C38   C     C_R   0.743419 0.825389 0.241127 -0.016467
C39   C     C_R   0.825945 0.255368 0.754400 -0.019285
C40   C     C_R   0.174043 0.744650 0.245749 -0.019318
C41   C     C_R   0.743369 0.825340 0.759093 -0.016438
C42   C     C_R   0.256583 0.174613 0.241121 -0.016466
C43   C     C_R   0.825389 0.743419 0.241126 -0.016467
C44   C     C_R   0.174656 0.256628 0.759081 -0.016439
C45   C     C_R   0.744650 0.174043 0.245749 -0.019317
C46   C     C_R   0.160644 0.799054 0.234816 -0.031060
C47   C     C_R   0.255370 0.825942 0.754418 -0.019282
C48   C     C_R   0.174613 0.256582 0.241121 -0.016466
C49   C     C_R   0.825340 0.743367 0.759094 -0.016439
C50   C     C_R   0.255351 0.825957 0.245750 -0.019317
C51   C     C_R   0.744632 0.174054 0.754401 -0.019283
C52   C     C_R   0.674043 0.244649 0.254250 -0.019318
C53   C     C_R   0.325943 0.755370 0.745582 -0.019281
C54   C     C_R   0.756580 0.674610 0.258874 -0.016467
C55   C     C_R   0.243369 0.325342 0.740915 -0.016441
C56   C     C_R   0.325958 0.755349 0.254250 -0.019317
C57   C     C_R   0.799086 0.839673 0.762323 -0.031354
C58   C     C_R   0.674056 0.244631 0.745596 -0.019284
C59   C     C_R   0.243418 0.325388 0.258880 -0.016466
C60   C     C_R   0.756629 0.674658 0.740915 -0.016438
C61   C     C_R   0.325343 0.243372 0.740918 -0.016439
C62   C     C_R   0.674611 0.756580 0.258874 -0.016467
C63   C     C_R   0.244630 0.674057 0.745582 -0.019282
C64   C     C_R   0.755350 0.325956 0.254251 -0.019318
C65   C     C_R   0.674659 0.756631 0.740912 -0.016439
C66   C     C_R   0.325388 0.243419 0.258879 -0.016466
C67   C     C_R   0.755369 0.325944 0.745596 -0.019283
C68   C     C_R   0.200849 0.160260 0.238114 -0.031346
C69   C     C_R   0.244650 0.674042 0.254248 -0.019317
C70   C     C_R   0.229681 0.729681 0.750000 0.022067
C71   C     C_R   0.770318 0.270317 0.250001 0.022072
C72   C     C_R   0.270475 0.229525 0.750000 0.019418
C73   C     C_R   0.729525 0.770475 0.250001 0.019412
C74   C     C_R   0.770319 0.270318 0.749998 0.022068
C75   C     C_R   0.229683 0.729682 0.249999 0.022073
C76   C     C_R   0.729524 0.770475 0.750003 0.019419
C77   C     C_R   0.270475 0.229526 0.250000 0.019412
C78   C     C_R   0.770474 0.729525 0.250000 0.019412
C79   C     C_R   0.839742 0.799153 0.238123 -0.031346
C80   C     C_R   0.229524 0.270475 0.749999 0.019418
C81   C     C_R   0.729683 0.229682 0.250000 0.022073
C82   C     C_R   0.270319 0.770319 0.750000 0.022067
C83   C     C_R   0.229526 0.270475 0.250000 0.019412
C84   C     C_R   0.770474 0.729523 0.750004 0.019419
C85   C     C_R   0.270318 0.770317 0.250000 0.022073
C86   C     C_R   0.729682 0.229680 0.749998 0.022068
C87   C     C_1   0.107312 0.813100 0.781727 0.227638
C88   C     C_1   0.892818 0.186778 0.218748 0.227672
C89   C     C_1   0.183823 0.103762 0.761137 0.233393
C90   C     C_R   0.160323 0.200909 0.762302 -0.031354
C91   C     C_1   0.816234 0.896295 0.239528 0.233409
C92   C     C_1   0.892703 0.186883 0.781672 0.227636
C93   C     C_1   0.107184 0.813226 0.218750 0.227673
C94   C     C_1   0.816179 0.896232 0.761164 0.233387
C95   C     C_1   0.183770 0.103707 0.239514 0.233410
C96   C     C_1   0.896295 0.816232 0.239527 0.233410
C97   C     C_1   0.103764 0.183816 0.761133 0.233389
C98   C     C_1   0.813227 0.107185 0.218747 0.227673
C99   C     C_1   0.186899 0.892689 0.781723 0.227640
C100  C     C_1   0.103708 0.183768 0.239513 0.233409
C101  C     C_R   0.799054 0.160644 0.234815 -0.031060
C102  C     C_1   0.896234 0.816173 0.761167 0.233390
C103  C     C_1   0.186777 0.892818 0.218748 0.227672
C104  C     C_1   0.813117 0.107297 0.781674 0.227634
C105  C     C_1   0.607184 0.313221 0.281254 0.227673
C106  C     C_1   0.392689 0.686900 0.718275 0.227638
C107  C     C_1   0.683766 0.603705 0.260473 0.233409
C108  C     C_1   0.316176 0.396238 0.738859 0.233393
C109  C     C_1   0.392816 0.686772 0.281250 0.227673
C110  C     C_1   0.607299 0.313116 0.718324 0.227637
C111  C     C_1   0.316230 0.396294 0.260490 0.233409
C112  C     C_1   0.500000 0.000000 0.018819 0.020270
C113  C     C_R   0.201010 0.839294 0.765506 -0.031047
C114  C     C_1   0.683819 0.603766 0.738850 0.233389
C115  C     C_1   0.396234 0.316183 0.738866 0.233389
C116  C     C_1   0.603705 0.683766 0.260473 0.233409
C117  C     C_1   0.313102 0.607312 0.718275 0.227640
C118  C     C_1   0.686775 0.392815 0.281253 0.227674
C119  C     C_1   0.603764 0.683825 0.738842 0.233392
C120  C     C_1   0.396293 0.316233 0.260488 0.233409
C121  C     C_1   0.686885 0.392702 0.718322 0.227635
C122  C     C_1   0.313223 0.607181 0.281249 0.227672
C123  C     C_1   0.219304 0.578219 0.761559 0.251979
C124  C     C_R   0.160261 0.200848 0.238113 -0.031345
C125  C     C_1   0.780717 0.421706 0.238055 0.252202
C126  C     C_1   0.414622 0.208308 0.714027 0.233620
C127  C     C_1   0.585212 0.791501 0.285633 0.233715
C128  C     C_1   0.780699 0.421775 0.761587 0.251989
C129  C     C_1   0.219282 0.578293 0.238054 0.252198
C130  C     C_1   0.585395 0.791706 0.714002 0.233618
C131  C     C_1   0.414782 0.208492 0.285642 0.233709
C132  C     C_1   0.791502 0.585211 0.285633 0.233714
C133  C     C_1   0.208300 0.414612 0.714013 0.233623
C134  C     C_1   0.578295 0.219284 0.238054 0.252198
C135  C     C_R   0.839674 0.799083 0.762323 -0.031353
C136  C     C_1   0.421782 0.780696 0.761557 0.251975
C137  C     C_1   0.208490 0.414779 0.285646 0.233709
C138  C     C_1   0.791699 0.585386 0.714016 0.233615
C139  C     C_1   0.421708 0.780718 0.238060 0.252199
C140  C     C_1   0.578226 0.219301 0.761593 0.251995
C141  C     C_1   0.719282 0.078292 0.261940 0.252199
C142  C     C_1   0.280696 0.921780 0.738437 0.251982
C143  C     C_1   0.914785 0.708497 0.214363 0.233713
C144  C     C_1   0.085378 0.291691 0.785973 0.233619
C145  C     C_1   0.280718 0.921706 0.261944 0.252196
C146  C     C_R   0.200947 0.839357 0.234815 -0.031060
C147  C     C_1   0.719301 0.078223 0.738412 0.251989
C148  C     C_1   0.085219 0.291508 0.214357 0.233708
C149  C     C_1   0.914605 0.708291 0.785999 0.233619
C150  C     C_1   0.291698 0.085386 0.785984 0.233623
C151  C     C_1   0.708498 0.914788 0.214367 0.233715
C152  C     C_1   0.078217 0.719303 0.738447 0.251973
C153  C     C_1   0.921706 0.280717 0.261947 0.252199
C154  C     C_1   0.708296 0.914613 0.785989 0.233616
C155  C     C_1   0.291510 0.085221 0.214354 0.233710
C156  C     C_1   0.921775 0.280699 0.738405 0.251995
C157  C     C_R   0.798997 0.160699 0.765473 -0.031051
C158  C     C_1   0.078294 0.719282 0.261944 0.252200
C159  C     C_R   0.660644 0.299052 0.265186 -0.031060
C160  C     C_R   0.339294 0.701010 0.734494 -0.031047
C161  C     C_R   0.700846 0.660258 0.261877 -0.031346
C162  C     C_R   0.299086 0.339678 0.737695 -0.031353
C163  C     C_R   0.339356 0.700945 0.265183 -0.031060
C164  C     C_1   1.000000 0.500000 0.981181 0.020277
C165  C     C_R   0.660701 0.298996 0.734524 -0.031051
C166  C     C_R   0.299151 0.339740 0.261888 -0.031346
C167  C     C_R   0.700912 0.660325 0.737687 -0.031354
C168  C     C_R   0.339676 0.299090 0.737697 -0.031354
C169  C     C_R   0.660258 0.700846 0.261877 -0.031346
C170  C     C_R   0.298990 0.660706 0.734494 -0.031047
C171  C     C_R   0.700947 0.339355 0.265186 -0.031060
C172  C     C_R   0.660324 0.700915 0.737685 -0.031353
C173  C     C_R   0.339740 0.299152 0.261887 -0.031346
C174  C     C_R   0.701004 0.339300 0.734524 -0.031051
C175  C     C_1   0.000000 0.500000 0.018819 0.020270
C176  C     C_R   0.299053 0.660642 0.265182 -0.031060
C177  C     C_1   0.500000 0.999999 0.899079 0.015083
C178  C     C_1   0.500000 0.000001 0.100921 0.015039
C179  C     C_1   0.999999 0.500000 0.899079 0.015083
C180  C     C_1   0.000001 0.500000 0.100921 0.015039
C181  C     C_1   1.000000 0.499999 0.399079 0.015039
C182  C     C_1   0.000000 0.500001 0.600921 0.015083
C183  C     C_1   0.499999 1.000000 0.399079 0.015039
C184  C     C_1   0.500001 1.000000 0.600921 0.015083
C185  C     C_1   0.500000 0.999999 0.936718 -0.014070
C186  C     C_1   0.000000 0.500000 0.481181 0.020270
C187  C     C_1   0.500000 0.000001 0.063282 -0.014094
C188  C     C_1   0.999999 0.500000 0.936718 -0.014070
C189  C     C_1   0.000001 0.500000 0.063282 -0.014094
C190  C     C_1   0.000000 0.499999 0.436718 -0.014094
C191  C     C_1   1.000000 0.500001 0.563282 -0.014070
C192  C     C_1   0.499999 1.000000 0.436718 -0.014094
C193  C     C_1   0.500001 1.000000 0.563282 -0.014071
C194  C     C_R   0.500000 1.000000 0.646150 0.493587
C195  C     C_R   0.500000 0.000000 0.353850 0.493517
C196  C     C_R   0.000000 0.500000 0.646150 0.493587
C197  C     C_1   1.000000 0.500000 0.518819 0.020277
C198  C     C_R   0.000000 0.499999 0.353850 0.493518
C199  C     C_R   0.000000 0.500000 0.146150 0.493517
C200  C     C_R   1.000000 0.500000 0.853850 0.493587
C201  C     C_R   0.500000 0.000000 0.146150 0.493517
C202  C     C_R   0.500000 1.000000 0.853850 0.493588
C203  C     C_R   0.605975 0.894024 0.750000 0.522768
C204  C     C_R   0.394024 0.105976 0.250000 0.522664
C205  C     C_R   0.106202 0.606202 0.750000 0.519162
C206  C     C_R   0.893796 0.393796 0.250000 0.519140
C207  C     C_R   0.394025 0.105976 0.750000 0.522756
C208  C     C_1   0.500000 1.000000 0.481181 0.020270
C209  C     C_R   0.605976 0.894024 0.250000 0.522654
C210  C     C_R   0.893798 0.393798 0.750000 0.519160
C211  C     C_R   0.106204 0.606203 0.250000 0.519138
C212  C     C_R   0.393796 0.893796 0.250000 0.519138
C213  C     C_R   0.606202 0.106202 0.750000 0.519161
C214  C     C_R   0.894024 0.605976 0.250000 0.522655
C215  C     C_R   0.105975 0.394024 0.750000 0.522757
C216  C     C_R   0.606203 0.106204 0.250000 0.519139
C217  C     C_R   0.393798 0.893798 0.750000 0.519162
C218  C     C_R   0.105976 0.394023 0.250000 0.522664
C219  C     C_1   0.500000 1.000000 0.518819 0.020277
C220  C     C_R   0.894024 0.605975 0.750000 0.522767
C221  C     C_R   0.204227 0.633902 0.751565 -0.044118
C222  C     C_R   0.795773 0.366084 0.248256 -0.044116
C223  C     C_R   0.364086 0.200765 0.736282 -0.036132
C224  C     C_R   0.635846 0.799162 0.263528 -0.036133
C225  C     C_R   0.795773 0.366096 0.751580 -0.044116
C226  C     C_R   0.204227 0.633915 0.248253 -0.044115
C227  C     C_R   0.635919 0.799240 0.736272 -0.036130
C228  C     C_R   0.364152 0.200836 0.263533 -0.036133
C229  C     C_R   0.799162 0.635845 0.263528 -0.036133
C230  C     C_R   0.160706 0.798990 0.765507 -0.031047
C231  C     C_R   0.200761 0.364084 0.736277 -0.036130
C232  C     C_R   0.633916 0.204227 0.248254 -0.044115
C233  C     C_R   0.366098 0.795773 0.751566 -0.044117
C234  C     C_R   0.200835 0.364151 0.263534 -0.036131
C235  C     C_R   0.799237 0.635916 0.736276 -0.036132
C236  C     C_R   0.366085 0.795773 0.248257 -0.044117
C237  C     C_R   0.633904 0.204227 0.751581 -0.044116
C238  C     C_R   0.704227 0.133915 0.251742 -0.044117
C239  C     C_R   0.295773 0.866097 0.748434 -0.044118
C240  C     C_R   0.864153 0.700837 0.236471 -0.036131
N1    N     N_1   0.065066 0.824646 0.794872 -0.201782
N2    N     N_1   0.058937 0.169750 0.760026 -0.197772
N3    N     N_1   0.824821 0.064886 0.205723 -0.201762
N4    N     N_1   0.175353 0.934935 0.794867 -0.201786
N5    N     N_1   0.058885 0.169715 0.240806 -0.197823
N6    N     N_1   0.941063 0.830238 0.760069 -0.197776
N7    N     N_1   0.175184 0.935118 0.205724 -0.201760
N8    N     N_1   0.824670 0.065045 0.794805 -0.201763
N9    N     N_1   0.564884 0.324813 0.294279 -0.201760
N10   N     N_1   0.434935 0.675355 0.705131 -0.201782
N11   N     N_1   0.669713 0.558882 0.259176 -0.197826
N12   N     N_1   0.935118 0.175186 0.205724 -0.201760
N13   N     N_1   0.330239 0.441066 0.739963 -0.197782
N14   N     N_1   0.435115 0.675176 0.294273 -0.201760
N15   N     N_1   0.565047 0.324669 0.705194 -0.201769
N16   N     N_1   0.330283 0.441117 0.259198 -0.197821
N17   N     N_1   0.669752 0.558938 0.739952 -0.197769
N18   N     N_1   0.441062 0.330250 0.739975 -0.197773
N19   N     N_1   0.558883 0.669712 0.259176 -0.197825
N20   N     N_1   0.324648 0.565066 0.705132 -0.201786
N21   N     N_1   0.675181 0.435114 0.294276 -0.201762
N22   N     N_1   0.558935 0.669761 0.739939 -0.197777
N23   N     N_1   0.169759 0.058933 0.760031 -0.197783
N24   N     N_1   0.441116 0.330287 0.259195 -0.197823
N25   N     N_1   0.675333 0.434954 0.705192 -0.201766
N26   N     N_1   0.324816 0.564880 0.294272 -0.201757
N27   N     N_1   0.231171 0.533933 0.769916 -0.217553
N28   N     N_1   0.768865 0.465939 0.229533 -0.217410
N29   N     N_1   0.454743 0.213819 0.696038 -0.245377
N30   N     N_1   0.545013 0.785894 0.303506 -0.245354
N31   N     N_1   0.768834 0.466058 0.769954 -0.217565
N32   N     N_1   0.231133 0.534059 0.229533 -0.217421
N33   N     N_1   0.545284 0.786202 0.696001 -0.245371
N34   N     N_1   0.830288 0.941117 0.240824 -0.197827
N35   N     N_1   0.454979 0.214096 0.303519 -0.245363
N36   N     N_1   0.785895 0.545012 0.303506 -0.245357
N37   N     N_1   0.213808 0.454726 0.696015 -0.245366
N38   N     N_1   0.534061 0.231137 0.229532 -0.217419
N39   N     N_1   0.466069 0.768830 0.769910 -0.217561
N40   N     N_1   0.214092 0.454973 0.303525 -0.245367
N41   N     N_1   0.786191 0.545269 0.696022 -0.245382
N42   N     N_1   0.465943 0.768867 0.229542 -0.217406
N43   N     N_1   0.533945 0.231167 0.769963 -0.217558
N44   N     N_1   0.731134 0.034057 0.270459 -0.217408
N45   N     N_1   0.934954 0.175330 0.794802 -0.201767
N46   N     N_1   0.268829 0.966065 0.730079 -0.217553
N47   N     N_1   0.954982 0.714103 0.196488 -0.245360
N48   N     N_1   0.045257 0.286180 0.803963 -0.245378
N49   N     N_1   0.268866 0.965941 0.270464 -0.217417
N50   N     N_1   0.731165 0.033940 0.730046 -0.217568
N51   N     N_1   0.045023 0.285905 0.196480 -0.245364
N52   N     N_1   0.954717 0.713794 0.804000 -0.245370
N53   N     N_1   0.286190 0.045270 0.803981 -0.245365
N54   N     N_1   0.714105 0.954987 0.196494 -0.245355
N55   N     N_1   0.033930 0.731170 0.730094 -0.217559
N56   N     N_1   0.064884 0.824822 0.205727 -0.201760
N57   N     N_1   0.965939 0.268864 0.270469 -0.217420
N58   N     N_1   0.713802 0.954731 0.803983 -0.245385
N59   N     N_1   0.285906 0.045027 0.196476 -0.245365
N60   N     N_1   0.966056 0.268833 0.730035 -0.217559
N61   N     N_1   0.034060 0.731134 0.270465 -0.217411
N62   N     N_1   0.830245 0.941060 0.760065 -0.197765
N63   N     N_1   0.169718 0.058884 0.240808 -0.197823
N64   N     N_1   0.941118 0.830285 0.240823 -0.197825
O1    O     O_3   0.500000 0.000000 0.750000 -0.445988
O2    O     O_R   0.454070 0.000000 0.333910 -0.526052
O3    O     O_R   1.000000 0.545930 0.666090 -0.526057
O4    O     O_R   0.000000 0.454070 0.333910 -0.526053
O5    O     O_R   0.954070 0.500000 0.166090 -0.526049
O6    O     O_R   0.045930 0.500000 0.833910 -0.526053
O7    O     O_R   0.500000 0.954070 0.166090 -0.526049
O8    O     O_R   0.500000 0.045930 0.833910 -0.526049
O9    O     O_R   0.045930 0.500000 0.166090 -0.526052
O10   O     O_R   0.954070 0.500000 0.833910 -0.526053
O11   O     O_R   0.500000 0.045930 0.166090 -0.526053
O12   O     O_3   0.500000 0.000000 0.250000 -0.445980
O13   O     O_R   0.500000 0.954070 0.833910 -0.526057
O14   O     O_R   0.610280 0.935490 0.728060 -0.522820
O15   O     O_R   0.389720 0.064510 0.271940 -0.522826
O16   O     O_R   0.064510 0.610280 0.728060 -0.525034
O17   O     O_R   0.935490 0.389720 0.271940 -0.525028
O18   O     O_R   0.389720 0.064510 0.728060 -0.522826
O19   O     O_R   0.610280 0.935490 0.271940 -0.522829
O20   O     O_R   0.935490 0.389720 0.728060 -0.525033
O21   O     O_R   0.064510 0.610280 0.271940 -0.525023
O22   O     O_R   0.389720 0.935490 0.271940 -0.525027
O23   O     O_3   1.000000 0.500000 0.750000 -0.445988
O24   O     O_R   0.610280 0.064510 0.728060 -0.525035
O25   O     O_R   0.935490 0.610280 0.271940 -0.522828
O26   O     O_R   0.064510 0.389720 0.728060 -0.522824
O27   O     O_R   0.610280 0.064510 0.271940 -0.525023
O28   O     O_R   0.389720 0.935490 0.728060 -0.525031
O29   O     O_R   0.064510 0.389720 0.271940 -0.522827
O30   O     O_R   0.935490 0.610280 0.728060 -0.522823
O31   O     O_R   0.110280 0.435490 0.228060 -0.522826
O32   O     O_R   0.889720 0.564510 0.771940 -0.522822
O33   O     O_R   0.564510 0.110280 0.228060 -0.525027
O34   O     O_3   1.000000 0.500000 0.250000 -0.445980
O35   O     O_R   0.435490 0.889720 0.771940 -0.525035
O36   O     O_R   0.889720 0.564510 0.228060 -0.522829
O37   O     O_R   0.110280 0.435490 0.771940 -0.522826
O38   O     O_R   0.435490 0.889720 0.228060 -0.525023
O39   O     O_R   0.564510 0.110280 0.771940 -0.525031
O40   O     O_R   0.889720 0.435490 0.771940 -0.525034
O41   O     O_R   0.110280 0.564510 0.228060 -0.525027
O42   O     O_R   0.435490 0.110280 0.771940 -0.522824
O43   O     O_R   0.564510 0.889720 0.228060 -0.522828
O44   O     O_R   0.110280 0.564510 0.771940 -0.525031
O45   O     O_R   0.454070 1.000000 0.666090 -0.526053
O46   O     O_R   0.889720 0.435490 0.228060 -0.525023
O47   O     O_R   0.564510 0.889720 0.771940 -0.522825
O48   O     O_R   0.435490 0.110280 0.228060 -0.522828
O49   O     O_R   0.545930 0.000000 0.333910 -0.526049
O50   O     O_R   0.000000 0.454070 0.666090 -0.526049
O51   O     O_R   1.000000 0.545930 0.333910 -0.526048
O52   O     O_R   0.545930 1.000000 0.666090 -0.526053
Zn1   Zn    Zn3+2 0.500000 0.934510 0.781550 0.990407
Zn2   Zn    Zn3+2 1.000000 0.565490 0.718450 0.990408
Zn3   Zn    Zn3+2 0.565490 0.000000 0.281550 0.990365
Zn4   Zn    Zn3+2 0.434510 0.000000 0.718450 0.990405
Zn5   Zn    Zn3+2 1.000000 0.565490 0.281550 0.990366
Zn6   Zn    Zn3+2 0.000000 0.434510 0.718450 0.990409
Zn7   Zn    Zn3+2 0.434510 0.000000 0.281550 0.990368
Zn8   Zn    Zn3+2 0.565490 0.000000 0.718450 0.990412
Zn9   Zn    Zn3+2 0.500000 0.065490 0.218450 0.990368
Zn10  Zn    Zn3+2 0.065490 0.500000 0.781550 0.990405
Zn11  Zn    Zn3+2 0.934510 0.500000 0.218450 0.990366
Zn12  Zn    Zn3+2 0.500000 0.065490 0.781550 0.990410
Zn13  Zn    Zn3+2 0.500000 0.934510 0.218450 0.990365
Zn14  Zn    Zn3+2 0.934510 0.500000 0.781550 0.990411
Zn15  Zn    Zn3+2 0.065490 0.500000 0.218450 0.990368
Zn16  Zn    Zn3+2 0.000000 0.434510 0.281550 0.990369

loop_
_geom_bond_atom_site_label_1
_geom_bond_atom_site_label_2
_ccdc_geom_bond_type
C28   C216  S    
C19   C207  S    
C137  N40   T    
O28   Zn4   S    
C108  N13   T    
O30   Zn2   S    
C218  O29   A    
C213  O24   A    
C102  N6    T    
O42   Zn12  S    
C104  C157  S    
C25   C204  S    
C113  C230  A    
C125  C222  S    
C40   C46   A    
C12   C23   A    
C207  O18   A    
C206  O46   A    
O38   Zn13  S    
C87   N1    T    
C181  C198  S    
C184  C193  T    
C132  N36   T    
C133  N37   T    
C39   C74   A    
C58   C165  A    
C100  N5    T    
C117  C170  S    
C166  C173  A    
C127  N30   T    
C129  C226  S    
C54   C229  A    
C36   C71   A    
C88   N12   T    
C203  O47   A    
C138  C235  S    
C94   N62   T    
C212  O38   A    
O4    Zn16  S    
C142  C239  S    
O51   Zn5   S    
O36   Zn11  S    
C16   C158  S    
C60   C167  A    
C136  N39   T    
C109  C163  S    
C121  N25   T    
C33   C213  S    
C179  C188  T    
O7    Zn13  S    
C148  N51   T    
C51   C157  A    
C103  N7    T    
O43   Zn13  S    
C93   N56   T    
C53   C82   A    
C100  C124  S    
C186  C190  S    
C8    C150  S    
C35   C157  A    
C220  O32   A    
O26   Zn6   S    
C181  C190  T    
C20   C224  A    
C67   C74   A    
C130  N33   T    
C15   C39   A    
C4    C32   A    
C16   C40   A    
C6    C30   A    
C214  O36   A    
C201  O7    A    
O17   Zn16  S    
C202  O8    A    
O15   Zn7   S    
C98   C101  S    
C31   C220  S    
C32   C236  A    
C153  N57   T    
C66   C77   A    
C9    C151  S    
C45   C81   A    
C12   C154  S    
C92   N45   T    
C164  C188  S    
C1    C185  S    
C61   C168  A    
C106  N10   T    
C64   C171  A    
C79   C96   S    
C204  O15   A    
C41   C76   A    
C55   C80   A    
C46   C146  A    
C118  C171  S    
C122  C176  S    
C138  N41   T    
C70   C82   A    
C17   C221  A    
C105  N9    T    
C198  O51   A    
C95   N63   T    
C57   C135  A    
O8    Zn12  S    
C11   C18   A    
C199  O5    A    
C132  C229  S    
C133  C231  S    
C114  C167  S    
C204  O48   A    
C123  C221  S    
C214  O25   A    
C49   C84   A    
C180  C189  T    
C1    C112  T    
C196  O50   A    
O14   Zn8   S    
C179  C200  S    
C67   C174  A    
C109  N14   T    
C21   C210  S    
C65   C227  A    
C164  C175  T    
O34   Zn5   S    
C99   N4    T    
C102  C135  S    
C97   N2    T    
C131  C228  S    
C5    C33   A    
C186  C197  T    
C89   N23   T    
C134  C232  S    
O29   Zn16  S    
C28   C232  A    
C215  O26   A    
C30   C218  S    
C28   C238  A    
C208  C219  T    
C49   C135  A    
C198  O4    A    
O12   Zn13  S    
C60   C235  A    
O20   Zn6   S    
C199  O9    A    
C58   C86   A    
O45   Zn4   S    
C3    C44   A    
C8    C19   A    
C65   C172  A    
C107  C161  S    
C203  O14   A    
C194  O52   A    
C126  C223  S    
C63   C170  A    
O39   Zn12  S    
C165  C174  A    
C31   C235  A    
C141  N44   T    
C209  O19   A    
C62   C73   A    
C24   C79   A    
C15   C156  S    
C64   C222  A    
O49   Zn3   S    
C116  N19   T    
C127  C224  S    
C47   C239  A    
O23   Zn2   S    
C57   C94   S    
C211  O41   A    
C162  C168  A    
C58   C237  A    
C122  N26   T    
C193  C219  S    
O1    Zn4   S    
C91   N34   T    
C5    C51   A    
C22   C226  A    
O48   Zn9   S    
C210  O20   A    
O50   Zn6   S    
C48   C83   A    
O34   Zn11  S    
C17   C205  S    
C72   C80   A    
C118  N21   T    
C194  O45   A    
C184  C194  S    
C4    C145  S    
C140  C237  S    
C201  O11   A    
C54   C161  A    
C52   C81   A    
C114  N17   T    
C11   C153  S    
C26   C240  A    
C217  O28   A    
C154  N58   T    
C42   C77   A    
C178  C201  S    
C66   C228  A    
C56   C236  A    
C96   N64   T    
C137  C234  S    
C206  O17   A    
C71   C81   A    
O27   Zn3   S    
O41   Zn15  S    
C143  N47   T    
C141  C238  S    
C5    C147  S    
O31   Zn15  S    
C13   C90   A    
C144  N48   T    
C202  O13   A    
C63   C221  A    
C183  C192  T    
C76   C84   A    
C112  C187  S    
C217  O35   A    
C43   C78   A    
O16   Zn2   S    
C65   C76   A    
C159  C171  A    
C210  O40   A    
C59   C83   A    
O34   Zn15  S    
O22   Zn7   S    
C110  C165  S    
C119  N22   T    
C67   C225  A    
C209  O43   A    
C155  N59   T    
O46   Zn11  S    
C177  C185  T    
O6    Zn10  S    
C64   C71   A    
C50   C85   A    
C10   C152  S    
C75   C85   A    
O24   Zn8   S    
C104  N8    T    
C183  C195  S    
C205  O44   A    
O12   Zn3   S    
C34   C70   A    
C90   C97   S    
C35   C92   S    
C50   C146  A    
C149  N52   T    
C69   C226  A    
C27   C215  S    
C51   C86   A    
O1    Zn8   S    
C26   C229  A    
C134  N38   T    
C55   C231  A    
C44   C80   A    
C152  N55   T    
C19   C223  A    
O37   Zn10  S    
C117  N20   T    
O21   Zn5   S    
C4    C50   A    
C35   C39   A    
C175  C189  S    
C12   C41   A    
C9    C20   A    
O25   Zn5   S    
C121  C174  S    
C110  N15   T    
C22   C211  S    
C20   C209  S    
C30   C234  A    
C200  O10   A    
C98   N3    T    
O12   Zn7   S    
C45   C101  A    
C178  C187  T    
C61   C72   A    
C130  C227  S    
C216  O33   A    
C213  O39   A    
O2    Zn7   S    
C182  C191  T    
C53   C233  A    
C111  N16   T    
C47   C113  A    
C62   C169  A    
C53   C160  A    
C16   C22   A    
O35   Zn1   S    
C139  N42   T    
C150  N53   T    
C143  C240  S    
C3    C144  S    
C195  O2    A    
C99   C113  S    
C167  C172  A    
C87   C230  S    
C196  O3    A    
C40   C75   A    
C107  N11   T    
C26   C214  S    
C41   C57   A    
C129  N32   T    
C56   C85   A    
C105  C159  S    
C106  C160  S    
C3    C27   A    
O11   Zn9   S    
C69   C75   A    
C14   C25   A    
C18   C222  A    
C33   C237  A    
C43   C240  A    
C200  O6    A    
C123  N27   T    
C37   C72   A    
C139  C236  S    
C77   C83   A    
C54   C78   A    
C147  N50   T    
C14   C155  S    
C151  N54   T    
C126  N29   T    
C68   C124  A    
O19   Zn3   S    
O9    Zn15  S    
O3    Zn2   S    
C56   C163  A    
C6    C48   A    
C11   C36   A    
O1    Zn1   S    
C32   C212  S    
C195  O49   A    
C10   C17   A    
C43   C79   A    
O23   Zn10  S    
C47   C82   A    
C45   C238  A    
C9    C38   A    
O12   Zn9   S    
C7    C149  S    
C205  O16   A    
C128  C225  S    
C120  N24   T    
C24   C38   A    
C73   C78   A    
C66   C173  A    
C2    C88   S    
C69   C176  A    
C158  N61   T    
C13   C37   A    
C119  C172  S    
C14   C42   A    
O5    Zn11  S    
C52   C159  A    
C29   C217  S    
C42   C68   A    
C192  C208  S    
C34   C230  A    
C163  C176  A    
C161  C169  A    
O52   Zn8   S    
C7    C31   A    
C218  O31   A    
O18   Zn4   S    
C7    C49   A    
C52   C232  A    
C207  O42   A    
C2    C101  A    
C212  O22   A    
C108  C162  S    
O23   Zn14  S    
C23   C203  S    
O13   Zn1   S    
C61   C223  A    
C131  N35   T    
C6    C148  S    
C63   C70   A    
C29   C233  A    
C136  C233  S    
C215  O37   A    
C10   C34   A    
C111  C166  S    
C74   C86   A    
C68   C95   S    
C59   C166  A    
C145  N49   T    
C142  N46   T    
O1    Zn12  S    
C27   C231  A    
O33   Zn9   S    
C62   C224  A    
C125  N28   T    
C128  N31   T    
O23   Zn6   S    
C59   C234  A    
C182  C196  S    
C140  N43   T    
C24   C91   S    
C44   C90   A    
C2    C36   A    
C13   C89   S    
C156  N60   T    
C191  C197  S    
C55   C162  A    
O32   Zn14  S    
C115  N18   T    
C48   C124  A    
C23   C227  A    
C211  O21   A    
C21   C225  A    
C25   C228  A    
C18   C206  S    
C115  C168  S    
O34   Zn16  S    
C180  C199  S    
C60   C84   A    
O44   Zn10  S    
C46   C93   S    
C116  C169  S    
C216  O27   A    
O40   Zn14  S    
C220  O30   A    
C120  C173  S    
C15   C21   A    
C8    C37   A    
O10   Zn14  S    
C160  C170  A    
C177  C202  S    
C29   C239  A    
O47   Zn1   S    
C103  C146  S    
C38   C73   A    
