data_mof_unit_5851.cif
_audit_creation_date              2012-12-11T15:36:52-0500
_audit_creation_method            fapswitch 2.2
_symmetry_space_group_name_H-M    P1
_symmetry_Int_Tables_number       1
_space_group_crystal_system       triclinic
_cell_length_a                    15.062717
_cell_length_b                    15.097603
_cell_length_c                    34.839513
_cell_angle_alpha                 91.060553
_cell_angle_beta                  91.478547
_cell_angle_gamma                 59.998579
_cell_volume                      6858.89377674

loop_
_atom_site_label
_atom_site_type_symbol
_atom_type_description
_atom_site_fract_x
_atom_site_fract_y
_atom_site_fract_z
_atom_type_partial_charge
C1    C     C_R   0.610787 0.303838 0.443788 0.548032
C2    C     C_R   0.714721 0.658453 0.175622 0.041157
C3    C     C_R   0.612924 0.151064 0.830809 0.033770
C4    C     C_R   0.682662 0.170880 0.851347 -0.116271
C5    C     C_R   0.712489 0.135723 0.888708 -0.122981
C6    C     C_R   0.592841 0.259891 0.774370 -0.121363
C7    C     C_R   0.596412 0.270769 0.734934 -0.119190
C8    C     C_R   0.602588 0.194732 0.709553 0.026356
C9    C     C_R   0.599735 0.110163 0.723961 -0.118287
C10   C     C_R   0.597397 0.098564 0.763533 -0.116133
C11   C     C_R   0.596718 0.172075 0.789151 0.027784
C12   C     C_R   0.547361 0.197300 0.641226 -0.121113
C13   C     C_R   0.804726 0.596489 0.155447 -0.147857
C14   C     C_R   0.549639 0.220979 0.602837 -0.125475
C15   C     C_R   0.692989 0.247334 0.617600 -0.125721
C16   C     C_R   0.689702 0.225081 0.655976 -0.123682
C17   C     C_R   0.614625 0.203482 0.668255 0.028275
C18   C     C_R   0.620081 0.249898 0.590994 0.022184
C19   C     C_R   0.045027 0.739210 0.048698 0.540118
C20   C     C_R   0.745936 0.745197 0.063450 0.543445
C21   C     C_R   0.750834 0.040628 0.050569 0.540544
C22   C     C_R   0.016006 0.722899 0.939445 0.543879
C23   C     C_R   0.717359 0.730320 0.954788 0.546120
C24   C     C_R   0.813550 0.621151 0.117850 -0.135397
C25   C     C_R   0.721416 0.024716 0.942145 0.542399
C26   C     C_R   0.727490 0.564123 0.235069 -0.169733
C27   C     C_R   0.722360 0.560763 0.274851 -0.137871
C28   C     C_R   0.703912 0.645991 0.297594 -0.023100
C29   C     C_R   0.694332 0.733344 0.280156 -0.097888
C30   C     C_R   0.702400 0.736172 0.240432 0.268248
C31   C     C_R   0.714963 0.652375 0.217610 0.018968
C32   C     C_R   0.600186 0.727614 0.355770 -0.118334
C33   C     C_R   0.593312 0.609807 0.449193 0.543502
C34   C     C_R   0.573210 0.719409 0.393008 -0.126482
C35   C     C_R   0.724534 0.551398 0.398317 -0.128448
C36   C     C_R   0.751035 0.559423 0.361072 -0.121133
C37   C     C_R   0.686951 0.645818 0.339025 0.032986
C38   C     C_R   0.632941 0.629385 0.414014 0.020201
C39   C     C_R   0.100578 0.729170 0.085356 0.019266
C40   C     C_R   0.145299 0.635831 0.105056 -0.127883
C41   C     C_R   0.167115 0.632558 0.144231 -0.124587
C42   C     C_R   0.145898 0.722155 0.164310 0.030566
C43   C     C_R   0.112483 0.813120 0.143984 -0.126980
C44   C     C_R   0.304213 0.591279 0.442367 0.541833
C45   C     C_R   0.089561 0.816759 0.104674 -0.132985
C46   C     C_R   0.200098 0.761178 0.227963 -0.133557
C47   C     C_R   0.206665 0.753025 0.267919 -0.167288
C48   C     C_R   0.160662 0.705519 0.287068 0.028819
C49   C     C_R   0.103449 0.670062 0.265826 0.262657
C50   C     C_R   0.095853 0.680465 0.225755 -0.118451
C51   C     C_R   0.147445 0.721885 0.206621 -0.018542
C52   C     C_R   0.221980 0.580904 0.340625 -0.088135
C53   C     C_R   0.253784 0.554029 0.378513 -0.135790
C54   C     C_R   0.212196 0.728084 0.392855 -0.129672
C55   C     C_R   0.605485 0.300630 0.553765 0.542745
C56   C     C_R   0.177646 0.755685 0.354899 -0.137517
C57   C     C_R   0.183736 0.681734 0.328352 0.055790
C58   C     C_R   0.251870 0.626501 0.404787 0.023191
C59   C     C_R   0.721885 0.100897 0.086353 0.019116
C60   C     C_R   0.791934 0.122431 0.105747 -0.137421
C61   C     C_R   0.776151 0.154854 0.143960 -0.128690
C62   C     C_R   0.689911 0.166747 0.163072 0.031135
C63   C     C_R   0.615253 0.154742 0.142557 -0.124528
C64   C     C_R   0.631044 0.122178 0.104487 -0.130036
C65   C     C_R   0.589287 0.246187 0.222020 -0.138494
C66   C     C_R   0.587551 0.606418 0.559059 0.541788
C67   C     C_R   0.581274 0.252006 0.261750 -0.127459
C68   C     C_R   0.666299 0.189521 0.285270 0.067589
C69   C     C_R   0.761026 0.121010 0.268475 0.270953
C70   C     C_R   0.769100 0.117992 0.228484 -0.109153
C71   C     C_R   0.683135 0.179219 0.205080 -0.019891
C72   C     C_R   0.727181 0.224392 0.346925 -0.143783
C73   C     C_R   0.716035 0.248360 0.385621 -0.154337
C74   C     C_R   0.564798 0.230729 0.386508 -0.122966
C75   C     C_R   0.575896 0.205581 0.347076 0.256753
C76   C     C_R   0.657437 0.203752 0.327232 0.052705
C77   C     C_R   0.297487 0.589149 0.551587 0.543582
C78   C     C_R   0.632751 0.255566 0.405527 -0.022437
C79   C     C_R   0.692550 0.691356 0.919261 -0.024154
C80   C     C_R   0.767976 0.601263 0.901825 -0.148111
C81   C     C_R   0.755125 0.578129 0.863911 -0.179699
C82   C     C_R   0.667268 0.644931 0.842470 0.079067
C83   C     C_R   0.588442 0.733320 0.860178 0.311964
C84   C     C_R   0.600376 0.753330 0.899089 -0.123303
C85   C     C_R   0.583495 0.625793 0.781507 0.321438
C86   C     C_R   0.583617 0.619806 0.740840 -0.129351
C87   C     C_R   0.661127 0.621021 0.719823 -0.017493
C88   C     C_R   0.731876 0.707259 0.100099 0.015840
C89   C     C_R   0.743556 0.620964 0.739036 -0.138279
C90   C     C_R   0.745831 0.625147 0.778975 -0.182098
C91   C     C_R   0.665760 0.629539 0.800372 0.066235
C92   C     C_R   0.727720 0.549338 0.654804 -0.120751
C93   C     C_R   0.710500 0.546807 0.615255 -0.130468
C94   C     C_R   0.547022 0.703464 0.620799 -0.127196
C95   C     C_R   0.563606 0.704995 0.660255 -0.123170
C96   C     C_R   0.652377 0.626269 0.677647 0.034194
C97   C     C_R   0.618213 0.621990 0.598103 0.021298
C98   C     C_R   0.058931 0.701543 0.900750 0.022493
C99   C     C_R   0.638568 0.762703 0.119283 -0.135887
C100  C     C_R   0.068062 0.777174 0.881271 -0.122471
C101  C     C_R   0.086621 0.767525 0.842096 -0.124959
C102  C     C_R   0.096998 0.681881 0.821833 0.027934
C103  C     C_R   0.094948 0.602952 0.841688 -0.122017
C104  C     C_R   0.076025 0.612680 0.880908 -0.126428
C105  C     C_R   0.180646 0.586150 0.762308 -0.126639
C106  C     C_R   0.192426 0.582309 0.722768 -0.122244
C107  C     C_R   0.130987 0.668964 0.700349 0.024108
C108  C     C_R   0.056124 0.759090 0.717665 -0.120913
C109  C     C_R   0.043184 0.762526 0.757249 -0.125545
C110  C     C_R   0.630215 0.738541 0.156822 -0.078853
C111  C     C_R   0.106715 0.676558 0.779883 0.020784
C112  C     C_R   0.182024 0.729587 0.643738 -0.125275
C113  C     C_R   0.223887 0.709692 0.607171 -0.130835
C114  C     C_R   0.192536 0.567354 0.600235 -0.124956
C115  C     C_R   0.152018 0.586534 0.636788 -0.123015
C116  C     C_R   0.150422 0.664997 0.659252 0.028568
C117  C     C_R   0.233563 0.625485 0.585870 0.022178
C118  C     C_R   0.673247 0.080023 0.906345 0.023655
C119  C     C_R   0.598002 0.066491 0.886964 -0.135971
C120  C     C_R   0.568324 0.101451 0.849360 -0.127889
Cr1   Cr    Cr6+3 0.426010 0.422500 0.497000 1.008277
Cr2   Cr    Cr6+3 0.651300 0.426310 0.501970 1.008270
Cr3   Cr    Cr6+3 0.422670 0.651170 0.501050 1.010687
Cr4   Cr    Cr6+3 0.905130 0.911420 0.992650 1.008897
Cr5   Cr    Cr6+3 0.911860 0.682710 0.002320 1.009270
Cr6   Cr    Cr6+3 0.682710 0.906840 0.004710 1.007892
H1    H     H_    0.573766 0.828484 0.106150 0.127908
H2    H     H_    0.502458 0.780851 0.404381 0.128035
H3    H     H_    0.870695 0.534585 0.169771 0.101059
H4    H     H_    0.772767 0.481361 0.413893 0.123850
H5    H     H_    0.155736 0.566840 0.090926 0.125834
H6    H     H_    0.054897 0.889929 0.090328 0.125807
H7    H     H_    0.149044 0.833833 0.345958 0.105823
H8    H     H_    0.251951 0.779424 0.283762 0.117942
H9    H     H_    0.239273 0.794554 0.213639 0.119850
H10   H     H_    0.194929 0.561134 0.159364 0.101059
H11   H     H_    0.886041 0.576566 0.103592 0.126635
H12   H     H_    0.050220 0.655467 0.209378 0.100409
H13   H     H_    0.232794 0.521234 0.320440 0.102251
H14   H     H_    0.286164 0.474697 0.386565 0.118716
H15   H     H_    0.095894 0.883008 0.159031 0.104790
H16   H     H_    0.210674 0.785221 0.412511 0.120374
H17   H     H_    0.862456 0.107084 0.092425 0.125267
H18   H     H_    0.575321 0.106983 0.090154 0.124631
H19   H     H_    0.509181 0.307682 0.274168 0.114948
H20   H     H_    0.522423 0.294981 0.204484 0.112983
H21   H     H_    0.819228 0.496231 0.348859 0.103707
H22   H     H_    0.833881 0.165364 0.159164 0.105236
H23   H     H_    0.842285 0.066227 0.215776 0.109433
H24   H     H_    0.788214 0.226542 0.331957 0.156570
H25   H     H_    0.769683 0.267594 0.399270 0.142438
H26   H     H_    0.548309 0.163047 0.156722 0.109191
H27   H     H_    0.502019 0.233588 0.401953 0.119433
H28   H     H_    0.839722 0.551592 0.916675 0.137177
H29   H     H_    0.540516 0.821086 0.912792 0.123844
H30   H     H_    0.505170 0.765537 0.677520 0.101743
H31   H     H_    0.728813 0.492994 0.287739 0.122006
H32   H     H_    0.523540 0.615914 0.724685 0.096360
H33   H     H_    0.816482 0.510541 0.850540 0.111308
H34   H     H_    0.804247 0.621206 0.723101 0.123749
H35   H     H_    0.808693 0.628733 0.793293 0.116951
H36   H     H_    0.796807 0.488131 0.667861 0.104375
H37   H     H_    0.766708 0.483013 0.598539 0.119744
H38   H     H_    0.475153 0.762531 0.608592 0.126009
H39   H     H_    0.055877 0.846248 0.895852 0.126376
H40   H     H_    0.738660 0.499002 0.217832 0.118933
H41   H     H_    0.069158 0.553276 0.895145 0.126527
H42   H     H_    0.127050 0.536661 0.648396 0.106388
H43   H     H_    0.251614 0.512567 0.709733 0.111150
H44   H     H_    0.230941 0.519419 0.779255 0.105795
H45   H     H_    0.090241 0.828249 0.827443 0.097422
H46   H     H_    0.008379 0.826437 0.700608 0.110461
H47   H     H_    0.984735 0.832648 0.770288 0.110220
H48   H     H_    0.181175 0.790540 0.660908 0.101160
H49   H     H_    0.254464 0.755958 0.596700 0.122300
H50   H     H_    0.102965 0.536109 0.826542 0.102969
H51   H     H_    0.560104 0.786578 0.172118 0.132032
H52   H     H_    0.197486 0.502861 0.584257 0.129104
H53   H     H_    0.566919 0.023559 0.900015 0.116327
H54   H     H_    0.743309 0.228585 0.676423 0.106044
H55   H     H_    0.596063 0.337865 0.724213 0.109867
H56   H     H_    0.590207 0.318707 0.793379 0.115430
H57   H     H_    0.513630 0.086318 0.834222 0.094963
H58   H     H_    0.601633 0.029507 0.774083 0.100664
H59   H     H_    0.489215 0.180283 0.650213 0.103508
H60   H     H_    0.680254 0.799515 0.297333 0.124384
H61   H     H_    0.492615 0.222263 0.582913 0.120020
H62   H     H_    0.719384 0.207810 0.837766 0.105837
H63   H     H_    0.747959 0.269576 0.609427 0.127130
H64   H     H_    0.549517 0.794987 0.339197 0.110642
O1    O     O_R   0.324990 0.503440 0.453910 -0.520465
O2    O     O_R   0.639980 0.519500 0.542640 -0.502075
O3    O     O_R   0.500750 0.673190 0.545480 -0.520726
O4    O     O_R   0.336260 0.640450 0.538210 -0.502987
O5    O     O_3   0.499990 0.499990 0.500010 -0.235364
O6    O     O_R   0.834210 0.019400 0.034570 -0.522088
O7    O     O_R   0.002210 0.824620 0.031030 -0.502081
O8    O     O_R   0.024400 0.669340 0.039790 -0.519615
O9    O     O_R   0.830490 0.694950 0.045870 -0.501491
O10   O     O_R   0.675430 0.831160 0.051290 -0.520240
O11   O     O_R   0.698870 0.998880 0.039560 -0.502331
O12   O     O_R   0.522030 0.339050 0.458320 -0.503185
O13   O     O_R   0.811290 0.006780 0.950620 -0.518702
O14   O     O_R   0.980960 0.812920 0.953200 -0.501392
O15   O     O_R   0.001480 0.656720 0.955830 -0.520303
O16   O     O_R   0.809240 0.683250 0.968050 -0.498914
O17   O     O_R   0.652500 0.818540 0.967340 -0.522102
O18   O     O_R   0.677620 0.987170 0.961730 -0.502158
O19   O     O_3   0.833240 0.833660 0.999890 -0.235439
O20   O     O_R   0.676180 0.324490 0.458320 -0.519267
O21   O     O_R   0.643570 0.521510 0.464260 -0.504476
O22   O     O_R   0.504630 0.675350 0.460920 -0.516814
O23   O     O_R   0.339850 0.642450 0.459830 -0.499835
O24   O     O_R   0.321120 0.501280 0.538470 -0.519603
O25   O     O_R   0.518440 0.337050 0.536710 -0.499812
O26   O     O_R   0.672300 0.322330 0.542880 -0.519656
O27   O     O_3   0.048938 0.633145 0.284924 -0.593768
C121  C     C_3   0.077522 0.532164 0.273032 -0.006854
H65   H     H_    0.104075 0.483256 0.298963 0.144574
H66   H     H_    0.141948 0.497209 0.252366 0.106902
C122  C     C_3   0.984300 0.529512 0.256097 -0.256851
H67   H     H_    0.921871 0.561746 0.277332 0.186188
H68   H     H_    0.956553 0.576836 0.229825 0.141942
C123  C     C_3   0.010668 0.420385 0.245919 -0.485964
H69   H     H_    0.072971 0.386758 0.224634 0.140242
H70   H     H_    0.942275 0.420606 0.233221 0.149484
H71   H     H_    0.035406 0.372229 0.272073 0.144863
O28   O     O_3   0.513306 0.174983 0.328200 -0.575990
C124  C     C_3   0.408515 0.251874 0.329539 -0.000586
H72   H     H_    0.379112 0.270336 0.299469 0.141095
H73   H     H_    0.394039 0.325346 0.343143 0.103115
C125  C     C_3   0.347872 0.210833 0.349956 -0.253342
H74   H     H_    0.362899 0.137678 0.336225 0.179650
H75   H     H_    0.373134 0.195524 0.380527 0.154197
C126  C     C_3   0.232900 0.286695 0.347954 -0.491746
H76   H     H_    0.215651 0.360832 0.361318 0.144538
H77   H     H_    0.191320 0.255577 0.363630 0.149061
H78   H     H_    0.205297 0.299404 0.317598 0.134304
O29   O     O_3   0.848057 0.065857 0.291252 -0.594608
C127  C     C_3   0.876016 0.961457 0.291896 0.006496
H79   H     H_    0.958939 0.917181 0.299670 0.164981
H80   H     H_    0.867551 0.932192 0.263326 0.116187
C128  C     C_3   0.815523 0.942611 0.322339 -0.274932
H81   H     H_    0.816155 0.982126 0.349501 0.186451
H82   H     H_    0.734660 0.974532 0.312312 0.184748
C129  C     C_3   0.861252 0.828875 0.330496 -0.456556
H83   H     H_    0.860722 0.787185 0.304057 0.182083
H84   H     H_    0.814993 0.818488 0.352388 0.147532
H85   H     H_    0.941241 0.795829 0.341672 0.186622
O30   O     O_3   0.508718 0.625153 0.804385 -0.543229
C130  C     C_3   0.412777 0.656838 0.785743 0.030064
H86   H     H_    0.363486 0.647648 0.806633 0.160544
H87   H     H_    0.419227 0.605250 0.761521 0.109128
C131  C     C_3   0.357879 0.770486 0.774393 -0.260632
H88   H     H_    0.339145 0.818176 0.800761 0.197596
H89   H     H_    0.407149 0.787820 0.756545 0.161647
C132  C     C_3   0.258839 0.800757 0.752019 -0.499539
H90   H     H_    0.274248 0.751165 0.726243 0.158951
H91   H     H_    0.223514 0.881512 0.742671 0.137883
H92   H     H_    0.204425 0.793729 0.770698 0.162907
O31   O     O_3   0.499836 0.796589 0.839127 -0.555851
C133  C     C_3   0.471845 0.901137 0.841671 -0.013299
H93   H     H_    0.463978 0.929778 0.811916 0.140332
H94   H     H_    0.530004 0.915554 0.856407 0.109659
C134  C     C_3   0.367719 0.961853 0.861017 -0.263513
H95   H     H_    0.309427 0.951941 0.844338 0.159326
H96   H     H_    0.372421 0.932495 0.890420 0.163059
C135  C     C_3   0.332274 0.075715 0.863459 -0.487013
H97   H     H_    0.385223 0.088753 0.882285 0.148505
H98   H     H_    0.254564 0.117489 0.875877 0.146385
H99   H     H_    0.328802 0.106650 0.834430 0.142472
H100  H     H_    0.770339 0.147649 0.903080 0.126056
H101  H     H_    0.604038 0.050994 0.704729 0.105534
O32   O     O_3   0.689346 0.824630 0.223912 -0.575087
C136  C     C_3   0.785623 0.809294 0.212714 0.008217
H102  H     H_    0.834744 0.733110 0.199279 0.128975
H103  H     H_    0.827605 0.815709 0.238194 0.133509
C137  C     C_3   0.768549 0.890612 0.183469 -0.252140
H104  H     H_    0.721911 0.887403 0.158811 0.186729
H105  H     H_    0.725650 0.967366 0.197040 0.180345
C138  C     C_3   0.870065 0.874136 0.168586 -0.479594
H106  H     H_    0.917163 0.879635 0.192538 0.143703
H107  H     H_    0.855346 0.933303 0.147049 0.165438
H108  H     H_    0.913267 0.797851 0.154571 0.162407

loop_
_geom_bond_atom_site_label_1
_geom_bond_atom_site_label_2
_ccdc_geom_bond_type
C8    C9    A    
C15   C18   A    
C112  H48   S    
C115  H42   S    
C101  C102  A    
C81   H33   S    
C94   H38   S    
C53   H14   S    
C10   H58   S    
C41   C42   A    
C14   C18   A    
C35   C36   A    
C112  C116  A    
Cr2   O5    S    
C72   C76   A    
C25   C118  S    
C133  C134  S    
C56   H7    S    
C85   C91   A    
C12   H59   S    
C7    C8    A    
C85   C86   A    
C56   C57   A    
C138  H108  S    
Cr3   O23   S    
C59   C64   A    
C124  H72   S    
Cr4   O14   S    
C22   C98   S    
Cr4   O13   S    
Cr1   O25   S    
C66   C97   S    
C9    H101  S    
C28   C29   A    
C136  H103  S    
C61   H22   S    
Cr1   O12   S    
C21   C59   S    
C124  C125  S    
C77   C117  S    
C69   C70   A    
C109  C111  A    
C44   O1    A    
C55   O25   A    
C79   C84   A    
C80   C81   A    
C84   H29   S    
C109  H47   S    
C130  H87   S    
C106  C107  A    
C93   H37   S    
Cr6   O10   S    
C128  H81   S    
Cr5   O16   S    
C92   C96   A    
C52   H13   S    
C108  C109  A    
O32   C136  S    
C26   C31   A    
C46   C51   A    
C49   C50   A    
C2    C13   A    
C118  C119  A    
C20   O10   A    
C131  H89   S    
C46   H9    S    
C46   C47   A    
C43   H15   S    
C75   O28   S    
O29   C127  S    
C44   C58   S    
C16   C17   A    
C114  H52   S    
C137  C138  S    
C66   O2    A    
C12   C17   A    
C67   H19   S    
C36   C37   A    
C65   H20   S    
C126  H76   S    
Cr2   O20   S    
Cr3   O4    S    
C70   C71   A    
C25   O18   A    
C134  H95   S    
C42   C51   S    
C113  H49   S    
C15   H63   S    
C85   O30   S    
C100  H39   S    
C123  H69   S    
C24   C88   A    
C1    C78   S    
C126  H77   S    
Cr3   O5    S    
C102  C111  S    
C61   C62   A    
C70   H23   S    
C119  H53   S    
C1    O12   A    
C125  H75   S    
C112  C113  A    
C134  C135  S    
C77   O24   A    
C114  C115  A    
C129  H84   S    
C95   C96   A    
Cr6   O11   S    
C107  C116  S    
C54   C56   A    
C19   O7    A    
C105  H44   S    
C7    H55   S    
C90   H35   S    
C44   O23   A    
C114  C117  A    
C47   C48   A    
C21   O11   A    
C130  H86   S    
C35   C38   A    
Cr2   O21   S    
C128  H82   S    
C74   C75   A    
Cr6   O18   S    
C6    C11   A    
Cr5   O19   S    
C86   C87   A    
C68   C69   A    
C130  C131  S    
C133  H94   S    
C64   H18   S    
C94   C97   A    
C65   C67   A    
C138  H106  S    
C65   C71   A    
C99   C110  A    
Cr4   O7    S    
C127  C128  S    
C81   C82   A    
C82   C91   S    
C67   C68   A    
C22   O15   A    
C49   O27   S    
C60   C61   A    
C132  H91   S    
C32   C34   A    
O28   C124  S    
C75   C76   A    
Cr1   O5    S    
C20   O9    A    
C131  H88   S    
C138  H107  S    
C126  H78   S    
C122  H67   S    
C134  H96   S    
C36   H21   S    
C121  H66   S    
C83   C84   A    
C135  H99   S    
C115  C116  A    
Cr6   O17   S    
C73   C78   A    
C128  C129  S    
Cr3   O22   S    
Cr4   O6    S    
C62   C63   A    
C127  H80   S    
C50   C51   A    
C26   C27   A    
C32   H64   S    
C94   C95   A    
C32   C37   A    
C95   H30   S    
C119  C120  A    
Cr2   O2    S    
C92   C93   A    
C69   O29   S    
C35   H4    S    
Cr5   O9    S    
C6    C7    A    
C19   C39   S    
C18   C55   S    
C55   O26   A    
C29   H60   S    
C113  C117  A    
C26   H40   S    
C40   C41   A    
C54   H16   S    
C136  H102  S    
C135  H98   S    
Cr5   O8    S    
C30   O32   S    
C72   H24   S    
C108  H46   S    
C47   H8    S    
C74   C78   A    
C124  H73   S    
C106  H43   S    
C137  H105  S    
C83   O31   S    
C68   C76   S    
C42   C43   A    
C107  C108  A    
C90   C91   A    
C3    C4    A    
C123  H71   S    
C93   C97   A    
C132  H90   S    
C66   O3    A    
C103  H50   S    
C52   C53   A    
C13   C24   A    
C89   H34   S    
C9    C10   A    
C92   H36   S    
C121  C122  S    
C129  H83   S    
C2    C110  A    
C5    H100  S    
C63   C64   A    
C23   O17   A    
C1    O20   A    
C34   C38   A    
C19   O8    A    
C136  C137  S    
C40   H5    S    
Cr3   O3    S    
C3    C120  A    
C33   C38   S    
C12   C14   A    
C72   C73   A    
C25   O13   A    
Cr6   O19   S    
C123  H70   S    
Cr1   O1    S    
C52   C57   A    
C99   H1    S    
C53   C58   A    
C86   H32   S    
C87   C96   S    
C80   H28   S    
C133  H93   S    
C60   H17   S    
C22   O14   A    
C24   H11   S    
C122  C123  S    
C105  C106  A    
C98   C100  A    
C8    C17   S    
C110  H51   S    
C39   C45   A    
C5    C118  A    
C122  H68   S    
C132  H92   S    
C50   H12   S    
Cr1   O24   S    
C4    H62   S    
C87   C89   A    
O30   C130  S    
C28   C37   S    
C43   C45   A    
C77   O4    A    
C104  H41   S    
C127  H79   S    
C14   H61   S    
C33   O21   A    
C121  H65   S    
C30   C31   A    
C23   O16   A    
C48   C49   A    
C4    C5    A    
C20   C88   S    
O27   C121  S    
Cr5   O15   S    
C125  H74   S    
C33   O22   A    
Cr2   O26   S    
C62   C71   S    
C101  H45   S    
C125  C126  S    
C21   O6    A    
C105  C111  A    
C102  C103  A    
C120  H57   S    
C63   H26   S    
C6    H56   S    
C88   C99   A    
C3    C11   S    
C10   C11   A    
C29   C30   A    
C79   C80   A    
C39   C40   A    
C16   H54   S    
C131  C132  S    
C59   C60   A    
C48   C57   S    
C27   H31   S    
C135  H97   S    
C74   H27   S    
C45   H6    S    
C34   H2    S    
C82   C83   A    
Cr4   O19   S    
C54   C58   A    
C103  C104  A    
O31   C133  S    
C13   H3    S    
C137  H104  S    
C2    C31   S    
C100  C101  A    
C23   C79   S    
C89   C90   A    
C98   C104  A    
C41   H10   S    
C73   H25   S    
C15   C16   A    
C27   C28   A    
C129  H85   S    
