data_mof_unit_19064.cif
_audit_creation_date              2012-12-10T20:39:53-0500
_audit_creation_method            fapswitch 2.2
_symmetry_space_group_name_H-M    P1
_symmetry_Int_Tables_number       1
_space_group_crystal_system       triclinic
_cell_length_a                    23.173783
_cell_length_b                    10.678707
_cell_length_c                    9.853493
_cell_angle_alpha                 89.508629
_cell_angle_beta                  90.494944
_cell_angle_gamma                 90.319517
_cell_volume                      2438.18731749

loop_
_atom_site_label
_atom_site_type_symbol
_atom_type_description
_atom_site_fract_x
_atom_site_fract_y
_atom_site_fract_z
_atom_type_partial_charge
C1    C     C_R   0.502801 0.260238 0.500643 0.911567
C2    C     C_R   0.972698 0.524794 0.746594 -0.159608
C3    C     C_R   0.032612 0.528331 0.746573 -0.149126
C4    C     C_R   0.062300 0.574771 0.633076 -0.026056
C5    C     C_R   0.031460 0.623561 0.520617 -0.056475
C6    C     C_R   0.061148 0.671784 0.406390 -0.045679
C7    C     C_R   0.029109 0.722317 0.295467 0.118047
C8    C     C_R   0.968636 0.718074 0.297965 -0.199613
C9    C     C_R   0.122253 0.568725 0.627172 0.579213
C10   C     C_R   0.121853 0.663141 0.406144 0.545096
C11   C     C_R   0.249557 0.650711 0.589145 0.720293
C12   C     C_R   0.389180 0.502113 0.499748 0.914888
C13   C     C_R   0.307595 0.619970 0.587725 -0.359724
C14   C     C_R   0.327544 0.526769 0.500567 -0.137223
C15   C     C_R   0.288932 0.463311 0.413937 0.086556
C16   C     C_R   0.230383 0.494500 0.416668 -0.223270
C17   C     C_R   0.210826 0.587360 0.504346 0.153216
C18   C     C_R   0.768380 0.494279 0.409133 -0.136444
C19   C     C_R   0.709226 0.466857 0.405417 0.073641
C20   C     C_R   0.673119 0.521618 0.502551 -0.054083
C21   C     C_R   0.696207 0.603057 0.600108 -0.259252
C22   C     C_R   0.754681 0.630583 0.601819 -0.094587
C23   C     C_R   0.502820 0.740037 0.499401 0.884385
C24   C     C_R   0.790949 0.575709 0.507168 0.281324
C25   C     C_R   0.498901 0.062390 0.620083 0.094687
C26   C     C_R   0.513413 0.129409 0.503858 -0.157190
C27   C     C_R   0.540249 0.068310 0.395158 0.084786
C28   C     C_R   0.539758 0.937441 0.393005 0.032443
C29   C     C_R   0.512543 0.871780 0.500748 -0.169979
C30   C     C_R   0.498330 0.935226 0.618256 0.105633
C31   C     C_3   0.445667 0.926403 0.704458 -0.443464
C32   C     C_3   0.446452 0.068396 0.707002 -0.470154
C33   C     C_R   0.471801 0.407793 0.071373 0.207334
C34   C     C_R   0.610894 0.501790 0.500519 0.866374
C35   C     C_R   0.533667 0.581166 0.072305 -0.184535
C36   C     C_R   0.533604 0.581923 0.927864 0.156956
C37   C     C_R   0.471331 0.408598 0.928776 0.132634
C38   C     C_3   0.408359 0.379835 0.921283 -0.544896
C39   C     C_3   0.408954 0.376926 0.076060 -0.115896
C40   C     C_R   0.879147 0.653609 0.407865 0.517100
C41   C     C_R   0.881406 0.556609 0.627313 0.505194
C42   C     C_R   0.941428 0.568009 0.633296 -0.008450
C43   C     C_R   0.970734 0.620123 0.521232 -0.016661
C44   C     C_R   0.939372 0.665179 0.408454 -0.040351
H1    H     H_    0.951070 0.485700 0.834428 0.193454
H2    H     H_    0.668719 0.647641 0.673463 0.168178
H3    H     H_    0.772013 0.693882 0.677378 0.156980
H4    H     H_    0.407788 0.886732 0.649250 0.204034
H5    H     H_    0.454930 0.882887 0.805159 0.203896
H6    H     H_    0.408900 0.111753 0.653950 0.201534
H7    H     H_    0.456530 0.106489 0.809160 0.198774
H8    H     H_    0.560475 0.646819 0.127174 0.147908
H9    H     H_    0.055546 0.491688 0.834429 0.196202
H10   H     H_    0.382924 0.459043 0.878445 0.223881
H11   H     H_    0.399309 0.288010 0.873267 0.201910
H12   H     H_    0.382441 0.450867 0.123475 0.210686
H13   H     H_    0.944510 0.755056 0.212038 0.189090
H14   H     H_    0.337251 0.670181 0.653592 0.180957
H15   H     H_    0.199570 0.444903 0.353326 0.168128
H16   H     H_    0.797208 0.451153 0.337511 0.145536
N1    N     N_R   0.851743 0.597495 0.514913 -0.352350
N2    N     N_R   0.150383 0.610005 0.513997 -0.337709
N3    N     N_R   0.499610 0.499140 0.142800 -0.121787
N4    N     N_R   0.499610 0.499180 0.857150 -0.099366
O1    O     O_R   0.500010 0.316790 0.614690 -0.619754
O2    O     O_2   0.852942 0.502092 0.731395 -0.557619
O3    O     O_2   0.152315 0.518269 0.731949 -0.530487
O4    O     O_2   0.152442 0.704841 0.298879 -0.516921
O5    O     O_R   0.500000 0.316760 0.385350 -0.582704
O6    O     O_R   0.416160 0.499980 0.614700 -0.624387
O7    O     O_R   0.416150 0.499940 0.385360 -0.594091
O8    O     O_R   0.500000 0.683240 0.614650 -0.597766
O9    O     O_R   0.499990 0.683210 0.385310 -0.635114
O10   O     O_R   0.583850 0.500060 0.614640 -0.605153
O11   O     O_R   0.583840 0.500020 0.385300 -0.595808
O12   O     O_2   0.848160 0.696947 0.300952 -0.557403
Zn1   Zn    Zn3+2 0.500000 0.500020 0.653130 0.962559
Zn2   Zn    Zn3+2 0.500000 0.499980 0.346870 0.970001
N5    N     N_3   0.685925 0.382319 0.306040 -0.425480
H17   H     H_    0.672355 0.301586 0.357641 0.178146
H18   H     H_    0.718049 0.354524 0.238967 0.189972
N6    N     N_3   0.565401 0.138378 0.285411 -0.421834
H19   H     H_    0.608666 0.112493 0.277268 0.193947
H20   H     H_    0.544045 0.114013 0.195434 0.198265
N7    N     N_3   0.564846 0.875542 0.279442 -0.472849
H21   H     H_    0.592031 0.804342 0.314802 0.200952
H22   H     H_    0.531674 0.838150 0.219659 0.204462
N8    N     N_3   0.568399 0.670557 0.855858 -0.399207
H23   H     H_    0.611186 0.658382 0.887494 0.168078
H24   H     H_    0.555762 0.760293 0.884544 0.162790
N9    N     N_3   0.398660 0.251900 0.133509 -0.417980
H25   H     H_    0.425489 0.186346 0.087568 0.186625
H26   H     H_    0.356162 0.226239 0.109982 0.207533
N10   N     N_3   0.057549 0.776988 0.180000 -0.365849
H27   H     H_    0.071558 0.866383 0.208138 0.215184
H28   H     H_    0.028576 0.789090 0.099045 0.179583
F1    F     F_    0.230774 0.741045 0.673862 -0.639168
N11   N     N_3   0.308994 0.365397 0.327618 -0.435406
H29   H     H_    0.322243 0.291127 0.390089 0.184860
H30   H     H_    0.275240 0.331303 0.267020 0.193439

loop_
_geom_bond_atom_site_label_1
_geom_bond_atom_site_label_2
_ccdc_geom_bond_type
C24   N1    S    
C3    H9    S    
N4    Zn1   S    
C35   C36   A    
C41   N1    A    
C7    C8    A    
N7    H21   S    
C36   N8    S    
C26   C27   A    
C33   C39   S    
C18   C24   A    
C5    C6    A    
C23   C29   S    
C28   C29   A    
C37   C38   S    
C23   O9    A    
C30   C31   S    
C17   N2    S    
C15   C16   A    
C18   C19   A    
C41   C42   A    
O8    Zn1   S    
C38   H11   S    
C31   C32   S    
C16   C17   A    
O10   Zn1   S    
C1    O1    A    
O9    Zn2   S    
C13   C14   A    
C34   O11   A    
C20   C34   S    
C25   C32   S    
C22   H3    S    
C5    C43   A    
C21   C22   A    
O6    Zn1   S    
O5    Zn2   S    
C10   N2    A    
C31   H5    S    
C39   N9    S    
N7    H22   S    
C2    H1    S    
O1    Zn1   S    
C9    N2    A    
N9    H25   S    
N5    H18   S    
C13   H14   S    
C25   C26   A    
C1    O5    A    
C40   N1    A    
C40   O12   S    
C16   H15   S    
C19   N5    S    
C43   C44   A    
C9    O3    S    
C32   H7    S    
C29   C30   A    
C8    H13   S    
N9    H26   S    
C39   H12   S    
C38   H10   S    
C33   N3    A    
C20   C21   A    
N10   H28   S    
C32   H6    S    
C6    C7    A    
C34   O10   A    
C18   H16   S    
C12   O7    A    
C12   C14   S    
N11   H29   S    
N6    H20   S    
C31   H4    S    
C1    C26   S    
C22   C24   A    
C42   C43   A    
C15   N11   S    
C3    C4    A    
C35   H8    S    
C37   N4    A    
C21   H2    S    
C25   C30   A    
C7    N10   S    
C12   O6    A    
C11   C17   A    
C23   O8    A    
C27   N6    S    
C8    C44   A    
N8    H24   S    
C4    C5    A    
C6    C10   A    
C41   O2    S    
C10   O4    S    
N11   H30   S    
C11   F1    S    
C19   C20   A    
C2    C3    A    
C11   C13   A    
C38   C39   S    
C2    C42   A    
N10   H27   S    
O11   Zn2   S    
C33   C37   A    
N5    H17   S    
C40   C44   A    
N8    H23   S    
N6    H19   S    
C28   N7    S    
C14   C15   A    
C35   N3    A    
C4    C9    A    
C36   N4    A    
O7    Zn2   S    
C27   C28   A    
N3    Zn2   S    
