data_mof_unit_68510.cif
_audit_creation_date              2012-12-10T18:00:17-0500
_audit_creation_method            fapswitch 2.2
_symmetry_space_group_name_H-M    P1
_symmetry_Int_Tables_number       1
_space_group_crystal_system       triclinic
_cell_length_a                    10.859781
_cell_length_b                    9.703554
_cell_length_c                    10.766051
_cell_angle_alpha                 90.27764
_cell_angle_beta                  92.357607
_cell_angle_gamma                 90.899362
_cell_volume                      1133.39291241

loop_
_atom_site_label
_atom_site_type_symbol
_atom_type_description
_atom_site_fract_x
_atom_site_fract_y
_atom_site_fract_z
_atom_type_partial_charge
C1    C     C_R   0.872673 0.504934 0.483129 -0.240863
C2    C     C_R   0.129067 0.497061 0.525270 -0.225261
C3    C     C_R   0.263468 0.498908 0.512278 0.866088
C4    C     C_R   0.737279 0.501517 0.490393 0.830507
C5    C     C_R   0.498770 0.499159 0.259498 0.860417
C6    C     C_R   0.499456 0.500722 0.739807 0.909347
C7    C     C_3   0.381240 0.512819 0.034505 0.024100
C8    C     C_3   0.615413 0.486413 0.961220 0.024758
C9    C     C_3   0.452965 0.619579 0.958224 0.159754
C10   C     C_3   0.544955 0.377740 0.038305 0.054091
C11   C     C_3   0.429474 0.396486 0.951469 0.378774
C12   C     C_3   0.567515 0.601333 0.044863 0.405614
C13   C     C_3   0.499745 0.503058 0.876041 -0.245556
C14   C     C_3   0.497281 0.496137 0.122028 -0.310505
C15   C     C_R   0.423205 0.072218 0.419882 0.229424
C16   C     C_R   0.574577 0.927647 0.582988 0.233012
C17   C     C_R   0.576421 0.075230 0.580823 0.236013
C18   C     C_R   0.423436 0.924745 0.419456 0.243880
C19   C     C_R   0.060121 0.374230 0.506972 0.161256
C20   C     C_R   0.941650 0.628327 0.505659 0.134958
C21   C     C_R   0.935595 0.380039 0.472353 0.151806
C22   C     C_R   0.066941 0.621861 0.538134 0.166619
Cu1   Cu    Cu3+1 0.500000 0.640660 0.500000 1.049338
Cu2   Cu    Cu3+1 0.500000 0.359340 0.500000 1.067857
N1    N     N_R   0.500000 0.852070 0.500000 -0.243154
N2    N     N_R   0.500000 0.147930 0.500000 -0.234822
O1    O     O_R   0.319640 0.618740 0.499990 -0.549388
O2    O     O_R   0.680360 0.381260 0.500010 -0.543891
O3    O     O_R   0.680360 0.618740 0.500010 -0.568697
O4    O     O_R   0.319640 0.381260 0.499990 -0.545878
O5    O     O_R   0.499970 0.618770 0.316850 -0.559610
O6    O     O_R   0.500030 0.381230 0.683150 -0.530884
O7    O     O_R   0.500030 0.618770 0.683150 -0.561898
O8    O     O_R   0.499970 0.381230 0.316850 -0.553030
I1    I     I_    0.298582 0.173062 0.293225 -0.252579
I2    I     I_    0.689001 0.828443 0.723778 -0.136799
I3    I     I_    0.704730 0.178950 0.705802 -0.128177
I4    I     I_    0.296626 0.820899 0.292642 -0.175453
O9    O     O_3   0.357781 0.294771 0.885744 -0.548113
C23   C     C_3   0.301273 0.204371 0.968597 0.102873
H1    H     H_    0.261508 0.259969 0.046411 0.183895
H2    H     H_    0.368496 0.128300 0.004803 0.207636
C24   C     C_3   0.195340 0.127151 0.901776 -0.609123
H3    H     H_    0.229792 0.069226 0.821621 0.276390
H4    H     H_    0.152759 0.053153 0.966384 0.227142
H5    H     H_    0.124211 0.200988 0.868788 0.265369
O10   O     O_3   0.634805 0.718931 0.087808 -0.522874
C25   C     C_3   0.738038 0.682055 0.163479 0.079632
H6    H     H_    0.762911 0.571263 0.158546 0.136807
H7    H     H_    0.717428 0.704101 0.261120 0.190734
C26   C     C_3   0.848656 0.769822 0.128131 -0.596092
H8    H     H_    0.831896 0.880085 0.148685 0.270410
H9    H     H_    0.932538 0.736650 0.181623 0.223789
H10   H     H_    0.864662 0.758709 0.027483 0.272081
I5    I     I_    0.191221 0.536379 0.078396 -0.267449
I6    I     I_    0.801085 0.478784 0.899645 -0.241915
I7    I     I_    0.390113 0.820023 0.910048 -0.205293
I8    I     I_    0.622839 0.184602 0.092335 -0.203441
I9    I     I_    0.124052 0.182051 0.576678 -0.194196
I10   I     I_    0.877026 0.828062 0.455608 -0.248360
I11   I     I_    0.858007 0.208805 0.369256 -0.190470
I12   I     I_    0.150592 0.791338 0.640047 -0.190602

loop_
_geom_bond_atom_site_label_1
_geom_bond_atom_site_label_2
_ccdc_geom_bond_type
C7    C14   S    
C2    C22   A    
C15   C18   A    
C7    C11   S    
Cu1   Cu2   S    
Cu2   O6    S    
C1    C21   A    
C8    C13   S    
Cu1   O1    S    
C22   I12   S    
C11   C13   S    
C21   I11   S    
C4    O3    A    
C6    O7    A    
C7    I5    S    
C8    C12   S    
C26   H10   S    
C15   N2    A    
C5    O8    A    
C8    I6    S    
C3    O1    A    
C2    C3    S    
C18   I4    S    
C17   I3    S    
C16   I2    S    
C6    C13   S    
C11   O9    S    
C25   H7    S    
C24   H4    S    
C5    C14   S    
C18   N1    A    
C12   O10   S    
C17   N2    A    
Cu1   O3    S    
C3    O4    A    
C23   H2    S    
C25   H6    S    
C19   C21   A    
Cu2   N2    S    
C9    I7    S    
Cu1   N1    S    
C24   H3    S    
C24   H5    S    
Cu2   O4    S    
C1    C4    S    
C20   I10   S    
C10   C11   S    
C26   H8    S    
O10   C25   S    
C12   C14   S    
C16   N1    A    
Cu1   O7    S    
C8    C10   S    
C6    O6    A    
C10   C14   S    
C15   I1    S    
O9    C23   S    
C7    C9    S    
C9    C13   S    
C23   H1    S    
C1    C20   A    
C5    O5    A    
C10   I8    S    
C19   I9    S    
C2    C19   A    
C9    C12   S    
C4    O2    A    
C25   C26   S    
Cu2   O8    S    
Cu2   O2    S    
C20   C22   A    
C16   C17   A    
C26   H9    S    
C23   C24   S    
Cu1   O5    S    
