data_mof_unit_58757.cif
_audit_creation_date              2012-12-11T15:43:07-0500
_audit_creation_method            fapswitch 2.2
_symmetry_space_group_name_H-M    P1
_symmetry_Int_Tables_number       1
_space_group_crystal_system       triclinic
_cell_length_a                    19.189705
_cell_length_b                    11.031728
_cell_length_c                    18.796925
_cell_angle_alpha                 90.463332
_cell_angle_beta                  89.547689
_cell_angle_gamma                 89.813452
_cell_volume                      3978.95040321

loop_
_atom_site_label
_atom_site_type_symbol
_atom_type_description
_atom_site_fract_x
_atom_site_fract_y
_atom_site_fract_z
_atom_type_partial_charge
C1    C     C_R   0.713322 0.334662 0.138376 0.588681
C2    C     C_R   0.926342 0.956494 0.061577 -0.067538
C3    C     C_R   0.751323 0.421739 0.574632 -0.075275
C4    C     C_R   0.729677 0.380835 0.351662 0.627286
C5    C     C_R   0.271178 0.375879 0.646776 0.558561
C6    C     C_R   0.229677 0.880834 0.351663 0.627279
C7    C     C_R   0.771179 0.875878 0.646775 0.558556
C8    C     C_R   0.530347 0.156733 0.352400 0.564826
C9    C     C_R   0.436076 0.152402 0.639455 0.539878
C10   C     C_R   0.030347 0.656733 0.352399 0.564820
C11   C     C_R   0.936075 0.652402 0.639456 0.539877
C12   C     C_R   0.741854 0.970800 0.353816 0.581620
C13   C     C_R   0.438214 0.480879 0.990080 -0.029735
C14   C     C_R   0.258968 0.971085 0.645720 0.546523
C15   C     C_R   0.241854 0.470800 0.353816 0.581612
C16   C     C_R   0.758968 0.471085 0.645720 0.546520
C17   C     C_R   0.498395 0.173339 0.924363 -0.059291
C18   C     C_R   0.506192 0.151233 0.072788 0.012542
C19   C     C_R   0.998395 0.673339 0.924363 -0.059291
C20   C     C_R   0.006192 0.651234 0.072788 0.012542
C21   C     C_R   0.477280 0.271966 0.969636 -0.044193
C22   C     C_R   0.475003 0.254710 0.044151 0.020599
C23   C     C_R   0.977280 0.771966 0.969636 -0.044193
C24   C     C_R   0.426342 0.456495 0.061577 -0.067538
C25   C     C_R   0.975003 0.754710 0.044151 0.020599
C26   C     C_R   0.527261 0.054670 0.026744 0.234258
C27   C     C_R   0.529415 0.071338 0.953781 0.255797
C28   C     C_R   0.027261 0.554670 0.026744 0.234258
C29   C     C_R   0.029415 0.571338 0.953781 0.255797
C30   C     C_R   0.745349 0.921568 0.921775 0.046779
C31   C     C_R   0.224667 0.858730 0.063377 0.051537
C32   C     C_R   0.245349 0.421568 0.921775 0.046779
C33   C     C_R   0.724667 0.358730 0.063377 0.051537
C34   C     C_R   0.704182 0.848821 0.965707 0.041895
C35   C     C_R   0.290018 0.843977 0.032007 -0.076595
C36   C     C_R   0.204182 0.348821 0.965707 0.041895
C37   C     C_R   0.269766 0.376018 0.853834 0.573751
C38   C     C_R   0.790018 0.343977 0.032007 -0.076594
C39   C     C_R   0.702367 0.865794 0.037955 0.046794
C40   C     C_R   0.300618 0.875783 0.962558 0.074831
C41   C     C_R   0.202367 0.365794 0.037955 0.046794
C42   C     C_R   0.800618 0.375783 0.962558 0.074831
C43   C     C_R   0.773737 0.041796 0.024952 -0.169746
C44   C     C_R   0.178270 0.903802 0.946019 -0.092971
C45   C     C_R   0.273737 0.541796 0.024952 -0.169746
C46   C     C_R   0.678270 0.403801 0.946019 -0.092971
C47   C     C_R   0.773602 0.027290 0.950956 0.186349
C48   C     C_R   0.213322 0.834662 0.138376 0.588682
C49   C     C_R   0.168382 0.891216 0.019058 0.197504
C50   C     C_R   0.273602 0.527290 0.950956 0.186349
C51   C     C_R   0.668382 0.391215 0.019058 0.197504
C52   C     C_3   0.693985 0.715674 0.971715 0.156451
C53   C     C_3   0.361496 0.884017 0.052746 0.149815
C54   C     C_3   0.193985 0.215674 0.971715 0.156451
C55   C     C_3   0.861496 0.384017 0.052746 0.149815
C56   C     C_3   0.693254 0.734181 0.052160 0.294380
C57   C     C_3   0.371942 0.922570 0.975531 0.327614
C58   C     C_3   0.193254 0.234180 0.052160 0.294380
C59   C     C_R   0.769766 0.876018 0.853834 0.573751
C60   C     C_3   0.871942 0.422570 0.975531 0.327615
C61   C     C_R   0.743291 0.953796 0.069484 -0.000015
C62   C     C_R   0.245881 0.908721 0.918347 -0.004859
C63   C     C_R   0.243291 0.453796 0.069484 -0.000016
C64   C     C_R   0.745881 0.408721 0.918347 -0.004859
C65   C     C_R   0.532959 0.152682 0.146022 0.564424
C66   C     C_R   0.467918 0.157272 0.853274 0.567955
C67   C     C_R   0.032959 0.652682 0.146022 0.564425
C68   C     C_R   0.967918 0.657272 0.853274 0.567955
C69   C     C_R   0.449755 0.157046 0.562996 -0.005904
C70   C     C_R   0.461974 0.389572 0.944065 -0.025629
C71   C     C_R   0.489177 0.159075 0.418401 0.028981
C72   C     C_R   0.949754 0.657047 0.562996 -0.005906
C73   C     C_R   0.989176 0.659076 0.418400 0.028978
C74   C     C_R   0.464856 0.049942 0.526668 -0.027547
C75   C     C_R   0.484175 0.050940 0.456483 0.086981
C76   C     C_R   0.964854 0.549943 0.526667 -0.027552
C77   C     C_R   0.984173 0.550941 0.456482 0.086978
C78   C     C_R   0.460588 0.264078 0.449833 -0.072803
C79   C     C_R   0.443071 0.263771 0.522928 -0.078703
C80   C     C_R   0.960587 0.764079 0.449833 -0.072809
C81   C     C_R   0.443900 0.343694 0.088632 0.006864
C82   C     C_R   0.943070 0.763773 0.522928 -0.078708
C83   C     C_3   0.515260 0.951394 0.544262 -0.178280
C84   C     C_3   0.536959 0.953018 0.466972 -0.196517
C85   C     C_3   0.015259 0.451395 0.544262 -0.178274
C86   C     C_3   0.036958 0.453019 0.466971 -0.196515
C87   C     C_R   0.758181 0.903036 0.572617 -0.022279
C88   C     C_R   0.242073 0.916534 0.424969 0.014866
C89   C     C_R   0.258181 0.403038 0.572618 -0.022271
C90   C     C_R   0.742074 0.416537 0.424969 0.014877
C91   C     C_R   0.812738 0.955317 0.535247 -0.132718
C92   C     C_R   0.961974 0.889571 0.944065 -0.025629
C93   C     C_R   0.183359 0.918465 0.469144 -0.087935
C94   C     C_R   0.312740 0.455309 0.535246 -0.132736
C95   C     C_R   0.683360 0.418471 0.469144 -0.087924
C96   C     C_R   0.811734 0.963354 0.462367 -0.012460
C97   C     C_R   0.186662 0.915028 0.541710 -0.010136
C98   C     C_R   0.311738 0.463341 0.462366 -0.012485
C99   C     C_R   0.686663 0.415030 0.541710 -0.010125
C100  C     C_R   0.704177 0.851765 0.459306 -0.156564
C101  C     C_R   0.311754 0.906574 0.531717 -0.113465
C102  C     C_R   0.204175 0.351770 0.459307 -0.156560
C103  C     C_R   0.943900 0.843694 0.088632 0.006864
C104  C     C_R   0.811755 0.406573 0.531717 -0.113457
C105  C     C_R   0.704250 0.847598 0.533884 0.348298
C106  C     C_R   0.307458 0.906695 0.457154 0.416555
C107  C     C_R   0.204248 0.347606 0.533885 0.348307
C108  C     C_R   0.807459 0.406693 0.457154 0.416556
C109  C     C_3   0.842730 0.078071 0.546495 0.332725
C110  C     C_3   0.118877 0.993537 0.468697 0.352442
C111  C     C_3   0.342744 0.578056 0.546492 0.332724
C112  C     C_3   0.618875 0.493536 0.468697 0.352447
C113  C     C_R   0.739925 0.976153 0.145269 0.569080
C114  C     C_R   0.938214 0.980879 0.990080 -0.029735
C115  C     C_R   0.258627 0.969522 0.851877 0.536773
C116  C     C_R   0.239925 0.476153 0.145269 0.569082
C117  C     C_R   0.758627 0.469523 0.851877 0.536773
C118  C     C_3   0.839002 0.090030 0.467032 0.771623
C119  C     C_3   0.117561 0.978710 0.548866 0.792711
C120  C     C_3   0.339021 0.590009 0.467028 0.771626
C121  C     C_3   0.617560 0.478704 0.548866 0.792716
C122  C     C_R   0.755339 0.918809 0.423354 -0.059505
C123  C     C_R   0.251323 0.921739 0.574632 -0.075277
C124  C     C_R   0.255339 0.418807 0.423354 -0.059506
Cl1   Cl    Cl    0.541724 0.904815 0.056673 -0.481053
Cl2   Cl    Cl    0.361449 0.007580 0.114620 -0.509362
Cl3   Cl    Cl    0.110682 0.175977 0.936983 -0.432305
Cl4   Cl    Cl    0.861448 0.507580 0.114620 -0.509363
Cl5   Cl    Cl    0.570757 0.962419 0.898001 -0.408556
Cl6   Cl    Cl    0.041724 0.404815 0.056673 -0.481053
Cl7   Cl    Cl    0.070757 0.462419 0.898001 -0.408555
Cl8   Cl    Cl    0.814898 0.134015 0.896014 -0.553009
Cl9   Cl    Cl    0.090898 0.951183 0.053369 -0.579204
Cl10  Cl    Cl    0.314898 0.634015 0.896014 -0.553010
Cl11  Cl    Cl    0.590898 0.451183 0.053369 -0.579204
Cl12  Cl    Cl    0.610682 0.675977 0.936983 -0.432305
Cr1   Cr    Cr6+3 0.772010 0.169670 0.250090 1.141973
Cr2   Cr    Cr6+3 0.383290 0.010760 0.749160 1.143129
Cr3   Cr    Cr6+3 0.116710 0.510760 0.250840 1.099889
Cr4   Cr    Cr6+3 0.883290 0.510760 0.749160 1.143132
Cr5   Cr    Cr6+3 0.227990 0.169670 0.749910 1.185547
Cr6   Cr    Cr6+3 0.272010 0.669670 0.250090 1.141973
Cr7   Cr    Cr6+3 0.727990 0.669670 0.749910 1.185546
Cr8   Cr    Cr6+3 0.615000 0.323260 0.249260 1.129002
Cr9   Cr    Cr6+3 0.385000 0.323260 0.750740 1.122265
Cr10  Cr    Cr6+3 0.115000 0.823260 0.249260 1.128994
Cr11  Cr    Cr6+3 0.885000 0.823260 0.750740 1.122263
Cr12  Cr    Cr6+3 0.616710 0.010760 0.250840 1.099892
F1    F     F_    0.648909 0.799479 0.568095 -0.570637
F2    F     F_    0.117276 0.087693 0.584656 -0.516142
F3    F     F_    0.288894 0.671696 0.447102 -0.644576
F4    F     F_    0.617271 0.587684 0.584659 -0.516133
F5    F     F_    0.902813 0.104956 0.433386 -0.512795
F6    F     F_    0.066008 0.901581 0.572896 -0.548288
F7    F     F_    0.402837 0.604906 0.433384 -0.512813
F8    F     F_    0.566009 0.401568 0.572894 -0.548289
F9    F     F_    0.751222 0.685183 0.084290 -0.607020
F10   F     F_    0.421510 0.852643 0.940384 -0.522110
F11   F     F_    0.251222 0.185183 0.084290 -0.607020
F12   F     F_    0.365932 0.891275 0.417033 -0.581373
F13   F     F_    0.921510 0.352643 0.940384 -0.522110
F14   F     F_    0.148905 0.299494 0.568098 -0.570637
F15   F     F_    0.865933 0.391269 0.417033 -0.581371
F16   F     F_    0.910488 0.072909 0.571074 -0.547218
F17   F     F_    0.065295 0.936123 0.434487 -0.590781
F18   F     F_    0.410500 0.572879 0.571075 -0.547216
F19   F     F_    0.565296 0.436120 0.434485 -0.590769
F20   F     F_    0.788863 0.171698 0.447113 -0.644614
H1    H     H_    0.456202 0.346918 0.419886 0.228546
H2    H     H_    0.523846 0.868228 0.437712 0.218082
H3    H     H_    0.057130 0.482284 0.580692 0.206978
H4    H     H_    0.023844 0.368229 0.437711 0.218086
H5    H     H_    0.660482 0.814011 0.430692 0.146653
H6    H     H_    0.362493 0.901361 0.555736 0.161391
H7    H     H_    0.160478 0.314020 0.430694 0.146655
H8    H     H_    0.862494 0.401357 0.555737 0.161395
H9    H     H_    0.808209 0.140973 0.577163 0.110454
H10   H     H_    0.128047 0.087832 0.450467 0.115690
H11   H     H_    0.308226 0.640970 0.577155 0.110454
H12   H     H_    0.429405 0.347560 0.549153 0.238749
H13   H     H_    0.628043 0.587834 0.450470 0.115693
H14   H     H_    0.473646 0.416375 0.890234 0.186253
H15   H     H_    0.436252 0.328617 0.144989 0.148696
H16   H     H_    0.973646 0.916375 0.890234 0.186253
H17   H     H_    0.936252 0.828617 0.144989 0.148695
H18   H     H_    0.930892 0.071916 0.970746 0.227396
H19   H     H_    0.907704 0.027409 0.096984 0.142733
H20   H     H_    0.430892 0.571916 0.970746 0.227396
H21   H     H_    0.407704 0.527409 0.096984 0.142734
H22   H     H_    0.800761 0.117832 0.047755 0.140327
H23   H     H_    0.956201 0.846919 0.419886 0.228532
H24   H     H_    0.134293 0.928438 0.913322 0.202972
H25   H     H_    0.300761 0.617832 0.047755 0.140327
H26   H     H_    0.634293 0.428438 0.913322 0.202972
H27   H     H_    0.239053 0.162078 0.951419 0.113933
H28   H     H_    0.894895 0.306461 0.068682 0.191478
H29   H     H_    0.739053 0.662078 0.951419 0.113933
H30   H     H_    0.394895 0.806461 0.068682 0.191478
H31   H     H_    0.643347 0.712163 0.079341 0.231494
H32   H     H_    0.376700 0.021764 0.966957 0.109563
H33   H     H_    0.143346 0.212163 0.079341 0.231494
H34   H     H_    0.929404 0.847562 0.549153 0.238735
H35   H     H_    0.876700 0.521764 0.966957 0.109563
H36   H     H_    0.988934 0.365885 0.559784 0.221109
H37   H     H_    0.090597 0.487724 0.458913 0.143487
H38   H     H_    0.488935 0.865884 0.559784 0.221101
H39   H     H_    0.590599 0.987722 0.458914 0.143494
H40   H     H_    0.557132 0.982283 0.580692 0.206973
O1    O     O_R   0.787520 0.042810 0.170440 -0.554998
O2    O     O_R   0.454050 0.051210 0.669140 -0.500382
O3    O     O_R   0.045950 0.551210 0.330860 -0.508525
O4    O     O_R   0.954050 0.551210 0.669140 -0.500380
O5    O     O_R   0.681390 0.959480 0.325510 -0.516655
O6    O     O_R   0.318610 0.959480 0.674490 -0.531496
O7    O     O_R   0.181390 0.459480 0.325510 -0.516658
O8    O     O_R   0.818610 0.459480 0.674490 -0.531494
O9    O     O_3   0.667900 0.167900 0.250060 -0.333012
O10   O     O_3   0.332100 0.167900 0.749940 -0.353796
O11   O     O_3   0.167900 0.667900 0.250060 -0.333014
O12   O     O_R   0.212480 0.042810 0.829560 -0.494819
O13   O     O_3   0.832100 0.667900 0.749940 -0.353796
O14   O     O_R   0.765640 0.292100 0.175020 -0.492238
O15   O     O_R   0.234360 0.292100 0.824980 -0.477028
O16   O     O_R   0.265640 0.792100 0.175020 -0.492236
O17   O     O_R   0.734360 0.792100 0.824980 -0.477028
O18   O     O_R   0.670190 0.408840 0.168540 -0.414157
O19   O     O_R   0.329810 0.408840 0.831460 -0.470360
O20   O     O_R   0.170190 0.908840 0.168540 -0.414156
O21   O     O_R   0.829810 0.908840 0.831460 -0.470359
O22   O     O_R   0.556620 0.251410 0.175160 -0.514426
O23   O     O_R   0.287520 0.542810 0.170440 -0.554997
O24   O     O_R   0.443380 0.251410 0.824840 -0.534470
O25   O     O_R   0.056620 0.751410 0.175160 -0.514425
O26   O     O_R   0.943380 0.751410 0.824840 -0.534470
O27   O     O_R   0.545960 0.049620 0.170320 -0.435935
O28   O     O_R   0.454040 0.049620 0.829680 -0.400618
O29   O     O_R   0.045960 0.549620 0.170320 -0.435935
O30   O     O_R   0.954040 0.549620 0.829680 -0.400617
O31   O     O_R   0.681390 0.958010 0.176690 -0.475284
O32   O     O_R   0.318610 0.958010 0.823310 -0.453951
O33   O     O_R   0.181390 0.458010 0.176690 -0.475283
O34   O     O_R   0.712480 0.542810 0.829560 -0.494819
O35   O     O_R   0.818610 0.458010 0.823310 -0.453951
O36   O     O_R   0.787510 0.044390 0.330970 -0.425743
O37   O     O_R   0.212490 0.044390 0.669030 -0.408445
O38   O     O_R   0.287510 0.544390 0.330970 -0.425736
O39   O     O_R   0.712490 0.544390 0.669030 -0.408445
O40   O     O_R   0.765630 0.293570 0.323840 -0.381677
O41   O     O_R   0.234370 0.293570 0.676160 -0.420554
O42   O     O_R   0.265630 0.793570 0.323840 -0.381678
O43   O     O_R   0.734370 0.793570 0.676160 -0.420555
O44   O     O_R   0.670190 0.410420 0.329080 -0.491530
O45   O     O_R   0.556610 0.252880 0.323980 -0.451653
O46   O     O_R   0.329810 0.410420 0.670920 -0.486297
O47   O     O_R   0.170190 0.910420 0.329080 -0.491533
O48   O     O_R   0.829810 0.910420 0.670920 -0.486297
O49   O     O_R   0.443390 0.252880 0.676020 -0.443165
O50   O     O_R   0.056610 0.752880 0.323980 -0.451658
O51   O     O_R   0.943390 0.752880 0.676020 -0.443169
O52   O     O_R   0.545950 0.051210 0.330860 -0.508525

loop_
_geom_bond_atom_site_label_1
_geom_bond_atom_site_label_2
_ccdc_geom_bond_type
C3    C104  A    
C44   C49   A    
Cr11  O21   S    
C57   F10   S    
C8    O52   A    
Cr6   O42   S    
C121  F8    S    
C87   C91   A    
C7    O48   A    
C35   C53   S    
Cr12  O31   S    
Cr5   O41   S    
C94   C111  S    
C20   C67   S    
Cr2   O28   S    
C18   C26   A    
C74   C83   S    
C72   C76   A    
C112  C121  S    
Cr12  O5    S    
C101  H6    S    
C1    C33   S    
C90   C95   A    
C104  H8    S    
C85   C86   S    
C18   C65   S    
C98   C124  A    
Cr9   O19   S    
Cr4   O4    S    
C100  C105  A    
C85   H3    S    
Cr7   O43   S    
C65   O22   A    
C101  C123  A    
C86   H4    S    
C53   H30   S    
C32   C36   A    
C96   C118  S    
C28   C29   A    
C9    C69   S    
C41   C58   S    
C38   C42   A    
C83   H38   S    
C84   H2    S    
C95   C112  S    
Cr5   O12   S    
C115  O32   A    
Cr10  O47   S    
C10   C73   S    
C95   C99   A    
C75   C84   S    
Cr3   O29   S    
C20   C25   A    
C94   C98   A    
Cr2   O2    S    
C3    C99   A    
C66   O24   A    
Cr11  O48   S    
C101  C106  A    
C6    C88   S    
C14   O6    A    
C118  F5    S    
C89   C94   A    
C16   O8    A    
C73   C77   A    
C2    H19   S    
C4    O40   A    
C85   H36   S    
C91   C96   A    
C88   C93   A    
Cr1   O36   S    
C51   Cl11  S    
C70   H14   S    
C7    C87   S    
C38   C55   S    
C83   C84   S    
C58   H33   S    
Cr3   O7    S    
Cr6   O38   S    
C103  H17   S    
C62   C115  S    
Cr5   O37   S    
C10   O50   A    
Cr2   O32   S    
C24   H21   S    
C54   H27   S    
C5    C89   S    
C43   C47   A    
Cr12  O9    S    
C28   Cl6   S    
Cr11  O13   S    
C93   C110  S    
C99   C121  S    
C14   O37   A    
C117  O34   A    
C119  F2    S    
C23   C25   A    
C55   H28   S    
Cr8   O44   S    
C40   C62   A    
C13   H20   S    
C18   C22   A    
C55   C60   S    
C111  H11   S    
C54   Cl3   S    
Cr8   O18   S    
C36   C41   A    
C4    O44   A    
C12   O5    A    
Cr7   O17   S    
C102  C124  A    
C86   H37   S    
Cr6   O16   S    
Cr4   O35   S    
C109  C118  S    
C46   H26   S    
C4    C90   S    
C11   O4    A    
C45   H25   S    
C39   C61   A    
C108  F15   S    
C74   C75   A    
Cr9   O10   S    
Cr9   O49   S    
C34   C39   A    
C17   C27   A    
C22   C81   A    
C5    O41   A    
C30   C47   A    
C102  C107  A    
C36   C54   S    
C76   C77   A    
C43   H22   S    
C15   O7    A    
C50   Cl10  S    
C42   C60   S    
C82   H34   S    
Cr1   O40   S    
C30   C34   A    
C11   C72   S    
C25   C103  A    
C20   C28   A    
C44   C62   A    
C9    O49   A    
C112  F19   S    
Cr1   O14   S    
C45   C63   A    
C120  F7    S    
C17   C21   A    
C64   C117  S    
C13   C24   A    
C7    O43   A    
C111  C120  S    
C26   Cl1   S    
C11   O51   A    
C5    O46   A    
C97   C119  S    
C19   C23   A    
C24   C81   A    
Cr3   O33   S    
C1    O18   A    
C83   H40   S    
C6    O42   A    
Cr3   O11   S    
Cr5   O10   S    
C56   F9    S    
C88   C106  A    
C60   H35   S    
C39   C56   S    
C87   C105  A    
C15   O38   A    
C113  O31   A    
C9    O2    A    
C32   C50   A    
C30   C59   S    
Cr12  O52   S    
Cr4   O30   S    
C60   F13   S    
C26   C27   A    
Cr7   O34   S    
C67   O29   A    
C19   C68   S    
C111  F18   S    
C66   O28   A    
C32   C37   S    
C37   O15   A    
C68   O26   A    
Cr5   O15   S    
C63   C116  S    
C117  O35   A    
C80   C82   A    
C15   C124  S    
Cr9   O24   S    
C77   C86   S    
C119  F6    S    
C31   C48   S    
C3    C16   S    
C116  O23   A    
C92   H16   S    
C52   Cl12  S    
C80   H23   S    
C31   C35   A    
C115  O12   A    
Cr10  O50   S    
Cr10  O11   S    
Cr1   O9    S    
C19   C29   A    
C93   C97   A    
C104  C108  A    
C41   C63   A    
C43   C61   A    
Cr2   O6    S    
C54   C58   S    
C16   O39   A    
Cr8   O22   S    
C12   O36   A    
C48   O20   A    
C49   Cl9   S    
C116  O33   A    
C67   O25   A    
C120  F3    S    
C53   C57   S    
C14   C123  S    
C78   C79   A    
C65   O27   A    
Cr9   O46   S    
Cr8   O45   S    
C40   C57   S    
C109  F16   S    
C110  C119  S    
Cr7   O13   S    
C42   C64   A    
C110  H10   S    
C98   C120  S    
C112  H13   S    
C33   C51   A    
C105  F1    S    
C59   O17   A    
C21   C70   A    
C34   C52   S    
C33   C38   A    
C114  H18   S    
C121  F4    S    
C96   C122  A    
C47   Cl8   S    
C58   F11   S    
Cr12  O27   S    
Cr3   O3    S    
C56   H31   S    
C35   C40   A    
C102  H7    S    
C113  O1    A    
Cr8   O9    S    
C57   H32   S    
C68   O30   A    
C44   H24   S    
C71   C75   A    
C2    C114  A    
C84   H39   S    
C91   C109  S    
Cr6   O23   S    
C29   Cl7   S    
Cr10  O20   S    
C45   C50   A    
C27   Cl5   S    
C46   C51   A    
C48   O16   A    
C118  F20   S    
C110  F17   S    
C73   C80   A    
Cr7   O39   S    
C6    O47   A    
C100  C122  A    
C78   H1    S    
C79   H12   S    
Cr11  O51   S    
Cr4   O13   S    
C2    C103  A    
Cr6   O11   S    
Cr10  O25   S    
C69   C79   A    
C53   Cl2   S    
Cr4   O8    S    
C61   C113  S    
C90   C108  A    
C89   C107  A    
Cr11  O26   S    
C109  H9    S    
C10   O3    A    
C37   O19   A    
C12   C122  S    
C55   Cl4   S    
Cr2   O10   S    
C97   C123  A    
C13   C70   A    
C107  F14   S    
Cr1   O1    S    
C100  H5    S    
C17   C66   S    
C81   H15   S    
C23   C92   A    
C1    O14   A    
C52   H29   S    
C31   C49   A    
C46   C64   A    
C69   C74   A    
C21   C22   A    
C92   C114  A    
C76   C85   S    
C71   C78   A    
C72   C82   A    
C8    O45   A    
C52   C56   S    
C106  F12   S    
C8    C71   S    
C59   O21   A    
