data_mof_unit_51096.cif
_audit_creation_date              2012-12-10T19:12:23-0500
_audit_creation_method            fapswitch 2.2
_symmetry_space_group_name_H-M    P1
_symmetry_Int_Tables_number       1
_space_group_crystal_system       triclinic
_cell_length_a                    15.701242
_cell_length_b                    10.64144
_cell_length_c                    9.812522
_cell_angle_alpha                 88.631678
_cell_angle_beta                  89.57717
_cell_angle_gamma                 90.171282
_cell_volume                      1638.99334058

loop_
_atom_site_label
_atom_site_type_symbol
_atom_type_description
_atom_site_fract_x
_atom_site_fract_y
_atom_site_fract_z
_atom_type_partial_charge
C1    C     C_R   0.504185 0.258357 0.501216 0.825780
C2    C     C_3   0.082960 0.500581 0.498104 0.030822
C3    C     C_3   0.971899 0.607190 0.542374 0.120284
C4    C     C_3   0.916698 0.498696 0.495354 0.066854
C5    C     C_3   0.028440 0.595133 0.415415 0.160912
C6    C     C_3   0.973184 0.483847 0.367374 0.157400
C7    C     C_1   0.173933 0.500723 0.500293 -0.075687
C8    C     C_1   0.825850 0.499344 0.497347 -0.054814
C9    C     C_3   0.567341 0.070170 0.620022 0.020611
C10   C     C_3   0.566605 0.924723 0.616159 -0.409449
C11   C     C_3   0.416881 0.072198 0.525954 -0.449484
C12   C     C_R   0.338123 0.500143 0.500372 0.910014
C13   C     C_3   0.542802 0.076111 0.363950 -0.399566
C14   C     C_3   0.508833 0.122164 0.503179 0.130747
C15   C     C_3   0.507374 0.879311 0.500467 0.168261
C16   C     C_3   0.416325 0.928392 0.526827 -0.414597
C17   C     C_3   0.542174 0.933421 0.363262 -0.426657
C18   C     C_3   0.476806 0.372717 0.085103 -0.299613
C19   C     C_3   0.482573 0.369447 0.923440 -0.326382
C20   C     C_3   0.431448 0.585551 0.073396 0.070568
C21   C     C_3   0.583536 0.533308 0.080310 0.075736
C22   C     C_3   0.429965 0.576632 0.912605 -0.286358
C23   C     C_R   0.504056 0.742258 0.499178 0.831578
C24   C     C_3   0.583109 0.539248 0.918518 0.086071
C25   C     C_R   0.661830 0.500309 0.499602 0.889367
C26   C     C_3   0.970967 0.404364 0.578364 -0.224507
C27   C     C_3   0.028300 0.389712 0.450688 0.190764
C28   C     C_1   0.249235 0.500540 0.500983 -0.216223
C29   C     C_1   0.750606 0.499869 0.498586 -0.194155
C30   C     C_3   0.027034 0.515341 0.626173 -0.268183
H1    H     H_    0.543344 0.888303 0.716856 0.156841
H2    H     H_    0.390643 0.105385 0.624489 0.163139
H3    H     H_    0.392092 0.892002 0.627222 0.167774
H4    H     H_    0.501673 0.111161 0.279248 0.178254
H5    H     H_    0.608171 0.112344 0.342635 0.162301
H6    H     H_    0.607282 0.897227 0.342118 0.161074
H7    H     H_    0.500101 0.907028 0.279799 0.193788
H8    H     H_    0.374415 0.108373 0.443543 0.173551
H9    H     H_    0.371846 0.895043 0.447921 0.168010
H10   H     H_    0.411561 0.344452 0.118983 0.143989
H11   H     H_    0.945024 0.326811 0.644178 0.149355
H12   H     H_    0.518808 0.299382 0.129870 0.174163
H13   H     H_    0.533966 0.303834 0.892923 0.148137
H14   H     H_    0.422624 0.329747 0.882379 0.167194
H15   H     H_    0.367985 0.550678 0.109704 0.162656
H16   H     H_    0.367270 0.537543 0.881989 0.149981
H17   H     H_    0.601057 0.625905 0.121129 0.133924
H18   H     H_    0.632128 0.473396 0.879668 0.154405
H19   H     H_    0.432875 0.668387 0.857018 0.163665
H20   H     H_    0.050618 0.530006 0.731010 0.154957
H21   H     H_    0.538380 0.098121 0.718855 0.155977
H22   H     H_    0.631661 0.885986 0.600668 0.167543
N1    N     N_3   0.498170 0.499750 0.138610 -0.064148
N2    N     N_3   0.498850 0.496730 0.861320 -0.071034
O1    O     O_R   0.499980 0.314910 0.616040 -0.633077
O2    O     O_R   0.500040 0.314680 0.383960 -0.625965
O3    O     O_R   0.376750 0.500100 0.616020 -0.613259
O4    O     O_R   0.376810 0.499870 0.383940 -0.620352
O5    O     O_R   0.499960 0.685320 0.616040 -0.659660
O6    O     O_R   0.500020 0.685090 0.383960 -0.624182
O7    O     O_R   0.623190 0.500130 0.616060 -0.637103
O8    O     O_R   0.623250 0.499900 0.383980 -0.591812
Zn1   Zn    Zn3+2 0.499960 0.500150 0.654960 0.891370
Zn2   Zn    Zn3+2 0.500040 0.499850 0.345040 0.918772
C31   C     C_3   0.067409 0.264685 0.408554 -0.395418
C32   C     C_3   0.999750 0.166570 0.377188 -0.890960
H23   H     H_    0.955424 0.152967 0.465044 0.258834
H24   H     H_    0.963173 0.195115 0.285481 0.262797
H25   H     H_    0.031137 0.075479 0.357008 0.252719
H26   H     H_    0.109571 0.280304 0.318476 0.199807
H27   H     H_    0.107304 0.228123 0.493632 0.205707
N3    N     N_3   0.649465 0.445510 0.129592 -0.416023
H28   H     H_    0.709204 0.487434 0.114046 0.168698
H29   H     H_    0.649892 0.363032 0.073856 0.145284
C33   C     C_3   0.613962 0.671018 0.866979 -0.409143
C34   C     C_3   0.706957 0.697971 0.903704 -0.988139
H30   H     H_    0.714650 0.711747 0.014540 0.257551
H31   H     H_    0.748864 0.620148 0.871068 0.269587
H32   H     H_    0.728522 0.785439 0.849995 0.259640
H33   H     H_    0.613051 0.677476 0.755877 0.279487
H34   H     H_    0.573060 0.746334 0.907579 0.184036
C35   C     C_3   0.436522 0.726489 0.110584 -0.375114
C36   C     C_3   0.357466 0.770652 0.188339 -0.894775
H35   H     H_    0.299294 0.752671 0.127954 0.241106
H36   H     H_    0.351047 0.721258 0.288378 0.284913
H37   H     H_    0.361337 0.873360 0.204364 0.233670
H38   H     H_    0.495898 0.746173 0.162492 0.218134
H39   H     H_    0.441073 0.790422 0.019942 0.166284
C37   C     C_3   0.932974 0.466112 0.227036 -0.390150
C38   C     C_3   0.999065 0.452183 0.113747 -0.904283
H40   H     H_    0.041585 0.535384 0.106951 0.262217
H41   H     H_    0.037781 0.366538 0.131172 0.262620
H42   H     H_    0.966080 0.443620 0.014665 0.247751
H43   H     H_    0.891361 0.381627 0.231158 0.203535
H44   H     H_    0.891585 0.547825 0.202658 0.203319
C39   C     C_3   0.068308 0.705377 0.333953 -0.399579
C40   C     C_3   0.001813 0.787503 0.262872 -0.879521
H45   H     H_    0.968546 0.734565 0.183209 0.262017
H46   H     H_    0.954485 0.822518 0.337296 0.276950
H47   H     H_    0.033871 0.869661 0.212788 0.242796
H48   H     H_    0.105083 0.764153 0.404936 0.203152
H49   H     H_    0.113584 0.668811 0.257187 0.200566
N4    N     N_3   0.937843 0.724567 0.592936 -0.463074
H50   H     H_    0.989598 0.779566 0.621845 0.179911
H51   H     H_    0.903040 0.702941 0.681673 0.186385
C41   C     C_3   0.659670 0.123425 0.614004 -0.399715
C42   C     C_3   0.705807 0.104028 0.749387 -0.905207
H52   H     H_    0.671933 0.154034 0.831693 0.247449
H53   H     H_    0.709657 0.002628 0.777190 0.261905
H54   H     H_    0.771514 0.142383 0.740261 0.252387
H55   H     H_    0.697110 0.078295 0.532124 0.212116
H56   H     H_    0.659324 0.225921 0.590628 0.207449

loop_
_geom_bond_atom_site_label_1
_geom_bond_atom_site_label_2
_ccdc_geom_bond_type
C32   H24   S    
C39   H49   S    
C11   H8    S    
C2    C7    S    
C9    H21   S    
C34   H32   S    
C4    C8    S    
C10   H22   S    
C40   H47   S    
C40   H45   S    
C22   N2    S    
C41   H56   S    
C23   O5    A    
C26   C27   S    
C12   C28   S    
C8    C29   T    
C1    O2    A    
C34   H31   S    
C13   H5    S    
C20   C35   S    
C10   C15   S    
C18   H12   S    
C5    C6    S    
N1    Zn2   S    
C32   H25   S    
C41   C42   S    
C24   N2    S    
C15   C16   S    
C18   C19   S    
C37   H43   S    
O7    Zn1   S    
C18   H10   S    
O8    Zn2   S    
C18   N1    S    
C10   H1    S    
C36   H35   S    
O1    Zn1   S    
C42   H52   S    
O2    Zn2   S    
C2    C27   S    
C17   H6    S    
C9    C10   S    
C20   H15   S    
N3    H28   S    
C12   O4    A    
C15   C23   S    
C32   H23   S    
C30   H20   S    
C39   H48   S    
C25   C29   S    
C42   H53   S    
C40   H46   S    
C19   H13   S    
O3    Zn1   S    
C41   H55   S    
O4    Zn2   S    
C23   O6    A    
C21   N3    S    
C24   H18   S    
C34   H30   S    
N3    H29   S    
C9    C14   S    
C33   H34   S    
C17   H7    S    
C9    C41   S    
C31   H27   S    
C7    C28   T    
C37   H44   S    
C3    C30   S    
C33   C34   S    
C27   C31   S    
C16   H3    S    
C11   C16   S    
C38   H41   S    
C6    C27   S    
C39   C40   S    
C35   H38   S    
N4    H51   S    
C25   O7    A    
C22   H19   S    
C12   O3    A    
C19   N2    S    
C4    C6    S    
C36   H36   S    
C20   C22   S    
C11   H2    S    
C26   C30   S    
C42   H54   S    
C2    C5    S    
C2    C30   S    
C3    C4    S    
C5    C39   S    
C19   H14   S    
C38   H42   S    
C33   H33   S    
C3    N4    S    
C15   C17   S    
C22   H16   S    
C20   N1    S    
C3    C5    S    
C4    C26   S    
C24   C33   S    
C6    C37   S    
O5    Zn1   S    
C13   C17   S    
O6    Zn2   S    
C1    O1    A    
C13   H4    S    
C21   N1    S    
C38   H40   S    
C35   H39   S    
C11   C14   S    
C25   O8    A    
C31   C32   S    
C16   H9    S    
C36   H37   S    
C35   C36   S    
N2    Zn1   S    
C21   C24   S    
N4    H50   S    
C1    C14   S    
C37   C38   S    
C13   C14   S    
C31   H26   S    
C26   H11   S    
C21   H17   S    
