data_mof_unit_40417.cif
_audit_creation_date              2012-12-10T17:27:51-0500
_audit_creation_method            fapswitch 2.2
_symmetry_space_group_name_H-M    P1
_symmetry_Int_Tables_number       1
_space_group_crystal_system       triclinic
_cell_length_a                    10.863917
_cell_length_b                    12.057154
_cell_length_c                    12.936144
_cell_angle_alpha                 94.79582
_cell_angle_beta                  92.636232
_cell_angle_gamma                 86.630057
_cell_volume                      1684.18842844

loop_
_atom_site_label
_atom_site_type_symbol
_atom_type_description
_atom_site_fract_x
_atom_site_fract_y
_atom_site_fract_z
_atom_type_partial_charge
C1    C     C_R   0.489643 0.522942 0.700520 0.930179
C2    C     C_R   0.937753 0.400807 0.430849 -0.115949
C3    C     C_R   0.869503 0.498387 0.468708 -0.218646
C4    C     C_R   0.928895 0.598475 0.488628 0.371000
C5    C     C_R   0.054437 0.595561 0.511166 0.433649
C6    C     C_R   0.125594 0.497505 0.482909 -0.223766
C7    C     C_R   0.504571 0.461011 0.186364 -0.259211
C8    C     C_R   0.468928 0.538725 0.812423 -0.361259
C9    C     C_R   0.493278 0.652378 0.974761 0.436210
C10   C     C_R   0.476388 0.644535 0.867164 0.345118
C11   C     C_R   0.441937 0.446699 0.866637 0.484938
C12   C     C_R   0.738789 0.499005 0.489858 0.977804
C13   C     C_R   0.443661 0.458190 0.975403 -0.229915
C14   C     C_R   0.491209 0.555218 0.028058 -0.207031
C15   C     C_R   0.531671 0.551857 0.131946 0.402405
C16   C     C_R   0.458855 0.364285 0.133368 0.445893
C17   C     C_R   0.411639 0.370418 0.032067 0.323155
C18   C     C_R   0.369488 0.954950 0.418089 -0.283064
C19   C     C_R   0.383097 0.839498 0.422024 0.502749
C20   C     C_R   0.563150 0.856891 0.533338 0.543744
C21   C     C_R   0.554272 0.975335 0.529104 -0.203054
C22   C     C_R   0.453813 0.023652 0.472062 -0.123210
C23   C     C_R   0.505012 0.476816 0.299291 1.070834
C24   C     C_R   0.440784 0.140242 0.467726 -0.049033
C25   C     C_R   0.622029 0.163113 0.574386 0.364394
C26   C     C_R   0.641979 0.047316 0.578151 0.366111
C27   C     C_R   0.259434 0.499345 0.497679 0.974512
C28   C     C_R   0.882124 0.309826 0.373016 0.330867
C29   C     C_R   0.952199 0.209945 0.346641 0.476572
C30   C     C_R   0.079466 0.214285 0.349595 -0.289051
C31   C     C_R   0.133450 0.314267 0.379088 0.353081
C32   C     C_R   0.067612 0.402149 0.434963 -0.090548
H1    H     H_    0.365126 0.177237 0.422865 0.190513
H2    H     H_    0.294003 0.990629 0.371647 0.190126
H3    H     H_    0.133375 0.146614 0.309830 0.211849
N1    N     N_R   0.523130 0.207800 0.519340 -0.147556
N2    N     N_R   0.476870 0.792180 0.480660 -0.179818
O1    O     O_R   0.506170 0.421690 0.658830 -0.551442
O2    O     O_R   0.491330 0.609320 0.646410 -0.622576
O3    O     O_R   0.690660 0.406170 0.506210 -0.570730
O4    O     O_R   0.675810 0.593790 0.493790 -0.545423
O5    O     O_R   0.508670 0.390680 0.353590 -0.534219
O6    O     O_R   0.493830 0.578310 0.341170 -0.568725
O7    O     O_R   0.324190 0.406210 0.506210 -0.620161
O8    O     O_R   0.309340 0.593830 0.493790 -0.544364
Zn1   Zn    Zn3+2 0.509910 0.374720 0.508290 1.055768
Zn2   Zn    Zn3+2 0.490090 0.625280 0.491710 1.075143
O9    O     O_3   0.864638 0.700472 0.486638 -0.571635
C33   C     C_3   0.872957 0.738235 0.386889 -0.096165
H4    H     H_    0.864054 0.670640 0.323116 0.194140
H5    H     H_    0.961316 0.779032 0.381618 0.186074
H6    H     H_    0.795874 0.800607 0.374192 0.176650
Cl1   Cl    Cl    0.295226 0.279456 0.985654 -0.473012
O10   O     O_3   0.475206 0.740770 0.816548 -0.604578
C34   C     C_3   0.351704 0.775654 0.793859 -0.215396
H7    H     H_    0.299535 0.794719 0.865860 0.192991
H8    H     H_    0.305633 0.711835 0.741444 0.163186
H9    H     H_    0.350567 0.852982 0.752903 0.178159
O11   O     O_3   0.419065 0.344951 0.812855 -0.551783
C35   C     C_3   0.522255 0.269221 0.825708 -0.075448
H10   H     H_    0.611692 0.309424 0.823993 0.176885
H11   H     H_    0.517768 0.201820 0.762350 0.190133
H12   H     H_    0.520332 0.228137 0.898837 0.137028
Cl2   Cl    Cl    0.727382 0.248670 0.645191 -0.616893
O12   O     O_3   0.738947 0.008077 0.640577 -0.590479
C36   C     C_3   0.847198 0.992894 0.583711 -0.150986
H13   H     H_    0.885084 0.073898 0.570960 0.175204
H14   H     H_    0.832070 0.942938 0.508790 0.158920
H15   H     H_    0.918276 0.946260 0.629694 0.188079
Cl3   Cl    Cl    0.280394 0.757617 0.344902 -0.515033
O13   O     O_3   0.668505 0.804351 0.574634 -0.564940
C37   C     C_3   0.665986 0.804450 0.683610 -0.007581
H16   H     H_    0.658733 0.718516 0.704932 0.186272
H17   H     H_    0.756707 0.828662 0.718241 0.170198
H18   H     H_    0.593847 0.862759 0.719833 0.169690
Cl4   Cl    Cl    0.755280 0.337052 0.289031 -0.632366
O14   O     O_3   0.902949 0.118641 0.290112 -0.565105
C38   C     C_3   0.795773 0.085703 0.334324 -0.193183
H19   H     H_    0.783818 0.119592 0.415832 0.115960
H20   H     H_    0.799869 0.993559 0.332105 0.157774
H21   H     H_    0.713374 0.111178 0.286961 0.207526
Cl5   Cl    Cl    0.246116 0.346106 0.297209 -0.538016
O15   O     O_3   0.108608 0.692289 0.550938 -0.559541
C39   C     C_3   0.071544 0.719539 0.653643 -0.308544
H22   H     H_    0.114916 0.797148 0.684387 0.176755
H23   H     H_    0.101806 0.652101 0.704427 0.145446
H24   H     H_    0.970360 0.737067 0.657931 0.201945
Cl6   Cl    Cl    0.642857 0.643949 0.187786 -0.537959
O16   O     O_3   0.449599 0.268530 0.184171 -0.520957
C40   C     C_3   0.524532 0.180476 0.137402 -0.138051
H25   H     H_    0.620319 0.205162 0.128390 0.172651
H26   H     H_    0.484264 0.148260 0.061295 0.187334
H27   H     H_    0.528863 0.110340 0.187887 0.190391
Cl7   Cl    Cl    0.497780 0.787866 0.038997 -0.489600

loop_
_geom_bond_atom_site_label_1
_geom_bond_atom_site_label_2
_ccdc_geom_bond_type
C36   H14   S    
C34   H7    S    
C1    C8    S    
C6    C32   A    
C39   H24   S    
C21   C26   A    
O14   C38   S    
O3    Zn1   S    
C24   N1    A    
C23   O5    A    
C30   H3    S    
C35   H12   S    
C35   H11   S    
C28   C29   A    
C39   H23   S    
C5    C6    A    
C5    O15   S    
C38   H20   S    
C36   H15   S    
C23   O6    A    
C2    C32   A    
C18   C19   A    
O5    Zn1   S    
C3    C12   S    
C19   N2    A    
C27   O7    A    
C31   C32   A    
C16   C17   A    
C33   H5    S    
C20   O13   S    
N1    Zn1   S    
N2    Zn2   S    
C9    C10   A    
C6    C27   S    
C27   O8    A    
C7    C15   A    
C36   H13   S    
C16   O16   S    
C21   C22   A    
C37   H18   S    
C11   O11   S    
O7    Zn1   S    
C31   Cl5   S    
O8    Zn2   S    
C39   H22   S    
C37   H17   S    
C38   H19   S    
C4    C5    A    
C25   C26   A    
C35   H10   S    
C25   Cl2   S    
C12   O3    A    
C9    C14   A    
C29   C30   A    
C40   H26   S    
O15   C39   S    
C33   H6    S    
O4    Zn2   S    
C18   H2    S    
C1    O1    A    
O9    C33   S    
O12   C36   S    
C34   H8    S    
C22   C24   A    
C3    C4    A    
C28   Cl4   S    
C17   Cl1   S    
C40   H27   S    
O2    Zn2   S    
C4    O9    S    
O10   C34   S    
C7    C16   A    
C18   C22   A    
C26   O12   S    
C37   H16   S    
C12   O4    A    
C24   H1    S    
C13   C17   A    
C2    C3    A    
O13   C37   S    
C20   N2    A    
C11   C13   A    
C38   H21   S    
C40   H25   S    
C30   C31   A    
C8    C11   A    
C7    C23   S    
C10   O10   S    
O1    Zn1   S    
C1    O2    A    
C25   N1    A    
O11   C35   S    
C29   O14   S    
C20   C21   A    
C8    C10   A    
C33   H4    S    
C34   H9    S    
C14   C15   A    
C19   Cl3   S    
C2    C28   A    
O16   C40   S    
C13   C14   A    
O6    Zn2   S    
C9    Cl7   S    
C15   Cl6   S    
