data_mof_unit_25702.cif
_audit_creation_date              2012-12-10T20:47:09-0500
_audit_creation_method            fapswitch 2.2
_symmetry_space_group_name_H-M    P1
_symmetry_Int_Tables_number       1
_space_group_crystal_system       triclinic
_cell_length_a                    10.668189
_cell_length_b                    8.919713
_cell_length_c                    8.191854
_cell_angle_alpha                 89.980059
_cell_angle_beta                  88.822451
_cell_angle_gamma                 89.819209
_cell_volume                      779.345224942

loop_
_atom_site_label
_atom_site_type_symbol
_atom_type_description
_atom_site_fract_x
_atom_site_fract_y
_atom_site_fract_z
_atom_type_partial_charge
C1    C     C_R   0.498906 0.218384 0.500012 0.961933
C2    C     C_R   0.055958 0.529454 0.649472 -0.102544
C3    C     C_R   0.126691 0.538977 0.504169 -0.020793
C4    C     C_R   0.875230 0.475059 0.495396 -0.035942
C5    C     C_R   0.066384 0.539323 0.355744 -0.163399
C6    C     C_R   0.938331 0.523024 0.354219 -0.209364
C7    C     C_1   0.499131 0.065298 0.500034 -0.085829
C8    C     C_1   0.499743 0.934702 0.499989 -0.086019
C9    C     C_R   0.500404 0.781629 0.499951 0.959517
C10   C     C_R   0.260116 0.516456 0.501771 0.902502
C11   C     C_R   0.740641 0.487372 0.498657 0.912465
C12   C     C_R   0.084477 0.601920 0.797481 0.496168
C13   C     C_R   0.892774 0.387236 0.783748 0.447079
C14   C     C_R   0.013229 0.564776 0.936336 -0.266752
C15   C     C_R   0.928982 0.444994 0.933022 -0.331890
C16   C     C_R   0.941803 0.454264 0.640432 -0.059074
H1    H     H_    0.119536 0.554408 0.244030 0.177576
H2    H     H_    0.888058 0.551955 0.246295 0.170859
H3    H     H_    0.021673 0.631917 0.043808 0.199849
H4    H     H_    0.887089 0.400378 0.043507 0.182823
H5    H     H_    0.165959 0.979179 0.926170 0.390220
H6    H     H_    0.884137 0.112258 0.993523 0.359361
N1    N     N_1   0.500000 0.500000 0.073640 0.005184
N2    N     N_1   0.500000 0.500000 0.926360 0.039240
O1    O     O_R   0.500000 0.285350 0.636850 -0.567249
O2    O     O_2   0.207982 0.826724 0.640959 -0.329819
O3    O     O_3   0.106763 0.893928 0.922253 -0.513317
O4    O     O_2   0.682722 0.241569 0.872571 -0.304483
O5    O     O_2   0.781150 0.169158 0.610346 -0.308436
O6    O     O_3   0.886763 0.084449 0.876487 -0.468282
O7    O     O_R   0.500000 0.714650 0.636850 -0.566237
O8    O     O_R   0.500000 0.285360 0.363100 -0.623417
O9    O     O_R   0.500000 0.714640 0.363100 -0.621768
O10   O     O_R   0.316770 0.500000 0.636900 -0.602478
O11   O     O_R   0.683230 0.500000 0.636900 -0.603438
O12   O     O_R   0.316780 0.500000 0.363150 -0.634509
O13   O     O_R   0.683220 0.500000 0.363150 -0.638276
O14   O     O_2   0.301263 0.722750 0.888637 -0.307099
S1    S     S_3+6 0.180735 0.763170 0.807851 0.036776
S2    S     S_3+6 0.805169 0.219279 0.781923 0.046830
Zn1   Zn    Zn3+2 0.500000 0.500000 0.682780 1.118360
Zn2   Zn    Zn3+2 0.500000 0.500000 0.317220 1.043669

loop_
_geom_bond_atom_site_label_1
_geom_bond_atom_site_label_2
_ccdc_geom_bond_type
C4    C16   A    
C1    O1    A    
N1    N2    T    
C2    C16   A    
O12   Zn2   S    
C2    C12   A    
C12   S1    S    
C11   O11   A    
C2    C3    A    
H5    O3    S    
O6    S2    S    
C7    C8    T    
C10   O10   A    
C3    C10   S    
O7    Zn1   S    
C4    C11   S    
C9    O9    A    
N2    Zn1   S    
N1    Zn2   S    
O14   S1    D    
O10   Zn1   S    
C5    C6    A    
O9    Zn2   S    
O5    S2    D    
C12   C14   A    
C13   C15   A    
C15   H4    S    
O11   Zn1   S    
C6    H2    S    
O2    S1    D    
C5    H1    S    
C9    O7    A    
C4    C6    A    
C13   C16   A    
O1    Zn1   S    
O13   Zn2   S    
C11   O13   A    
O4    S2    D    
C14   C15   A    
C13   S2    S    
O8    Zn2   S    
H6    O6    S    
C3    C5    A    
C1    C7    S    
C14   H3    S    
C1    O8    A    
O3    S1    S    
C8    C9    S    
C10   O12   A    
