data_mof_unit_5908.cif
_audit_creation_date              2012-12-10T17:47:44-0500
_audit_creation_method            fapswitch 2.2
_symmetry_space_group_name_H-M    P1
_symmetry_Int_Tables_number       1
_space_group_crystal_system       triclinic
_cell_length_a                    10.700015
_cell_length_b                    10.619101
_cell_length_c                    9.929923
_cell_angle_alpha                 89.57247
_cell_angle_beta                  90.349285
_cell_angle_gamma                 92.745264
_cell_volume                      1126.93808239

loop_
_atom_site_label
_atom_site_type_symbol
_atom_type_description
_atom_site_fract_x
_atom_site_fract_y
_atom_site_fract_z
_atom_type_partial_charge
C1    C     C_R   0.523029 0.264001 0.502051 0.921879
C2    C     C_R   0.534766 0.064366 0.630255 0.052574
C3    C     C_R   0.555092 0.133284 0.509757 -0.144544
C4    C     C_R   0.257679 0.498409 0.500108 0.994790
C5    C     C_R   0.572961 0.071189 0.389414 -0.261202
C6    C     C_R   0.544131 0.943921 0.381109 0.410160
C7    C     C_R   0.497571 0.877880 0.496762 -0.213053
C8    C     C_R   0.305803 0.352990 0.129294 0.583155
C9    C     C_R   0.201394 0.314573 0.050429 -0.301846
C10   C     C_R   0.213315 0.305917 0.913403 -0.286746
C11   C     C_R   0.321697 0.352972 0.853348 -0.101507
C12   C     C_3   0.879006 0.504521 0.502308 -0.106452
C13   C     C_R   0.411154 0.426968 0.925635 0.002428
C14   C     C_R   0.407546 0.427702 0.070056 0.031661
C15   C     C_R   0.583955 0.571904 0.072002 -0.239978
C16   C     C_R   0.494653 0.741196 0.498902 0.917240
C17   C     C_R   0.581236 0.576757 0.927196 0.566034
C18   C     C_R   0.742158 0.503841 0.500594 0.946881
C19   C     C_3   0.074892 0.521178 0.646931 -0.507319
C20   C     C_3   0.930786 0.516237 0.652315 0.873694
C21   C     C_3   0.078753 0.607449 0.409479 -0.556040
C22   C     C_3   0.063473 0.369212 0.452240 0.362455
C23   C     C_3   0.935025 0.615412 0.410701 0.652087
C24   C     C_3   0.120872 0.498625 0.501520 -0.175182
C25   C     C_3   0.211401 0.874413 0.648475 -0.348730
C26   C     C_3   0.315874 0.167830 0.245441 -0.319281
C27   C     C_3   0.700195 0.767215 0.917934 -0.247772
C28   C     C_3   0.898822 0.421346 0.867330 -0.156290
C29   C     C_3   0.089077 0.152145 0.489218 -0.205650
C30   C     C_3   0.919115 0.377441 0.440607 0.129410
C31   C     C_R   0.556022 0.115139 0.759956 -0.163701
C32   C     C_R   0.503464 0.055273 0.872932 -0.403592
C33   C     C_R   0.423229 0.947933 0.856917 0.415390
C34   C     C_R   0.408750 0.894095 0.728800 0.587452
C35   C     C_R   0.481351 0.942873 0.619062 -0.178739
H1    H     H_    0.116801 0.610762 0.686545 0.193192
H2    H     H_    0.140779 0.257474 0.854229 0.207652
H3    H     H_    0.330711 0.331910 0.749595 0.229295
H4    H     H_    0.124618 0.698312 0.442265 0.207217
H5    H     H_    0.101654 0.352025 0.350253 0.085209
H6    H     H_    0.918154 0.680178 0.226732 0.351340
H7    H     H_    0.371986 0.947549 0.043950 0.320024
H8    H     H_    0.230723 0.893854 0.540266 0.139386
H9    H     H_    0.123364 0.816580 0.654311 0.196178
H10   H     H_    0.193937 0.963666 0.702330 0.170365
H11   H     H_    0.473799 0.849159 0.234023 0.344132
H12   H     H_    0.894325 0.376810 0.331067 0.100343
H13   H     H_    0.392153 0.140649 0.177442 0.154769
H14   H     H_    0.225021 0.123226 0.212275 0.146097
H15   H     H_    0.334719 0.127839 0.345938 0.179666
H16   H     H_    0.734706 0.836783 0.841236 0.202932
H17   H     H_    0.778965 0.750985 0.988384 0.166065
H18   H     H_    0.621270 0.809618 0.970985 0.175167
H19   H     H_    0.814908 0.466273 0.905690 0.203089
H20   H     H_    0.984440 0.477040 0.899303 0.148626
H21   H     H_    0.901917 0.326790 0.915088 0.141590
H22   H     H_    0.940043 0.700015 0.693840 0.334260
H23   H     H_    0.111242 0.591851 0.304799 0.199195
H24   H     H_    0.813696 0.743708 0.443181 0.353340
H25   H     H_    0.058769 0.147968 0.381788 0.119205
H26   H     H_    0.021976 0.091802 0.548754 0.206673
H27   H     H_    0.181571 0.111010 0.499329 0.139729
H28   H     H_    0.835429 0.209885 0.433960 0.318054
H29   H     H_    0.597499 0.123291 0.298260 0.175080
H30   H     H_    0.612829 0.201156 0.774496 0.208435
H31   H     H_    0.519012 0.096991 0.971120 0.170926
H32   H     H_    0.652949 0.627407 0.128639 0.198516
H33   H     H_    0.110454 0.447614 0.714727 0.238202
H34   H     H_    0.118574 0.271309 0.097030 0.147794
N1    N     N_R   0.498810 0.498800 0.142780 -0.125176
N2    N     N_R   0.498760 0.498720 0.857170 -0.145133
O1    O     O_R   0.500000 0.316780 0.614690 -0.664834
O2    O     O_3   0.355037 0.895850 0.962654 -0.749703
O3    O     O_3   0.309533 0.808187 0.707690 -0.572649
O4    O     O_3   0.556706 0.889076 0.257162 -0.778311
O5    O     O_3   0.311716 0.300890 0.255893 -0.571610
O6    O     O_3   0.663035 0.654253 0.851679 -0.548729
O7    O     O_3   0.889211 0.406040 0.726009 -0.535210
O8    O     O_3   0.885278 0.624854 0.714385 -0.744533
O9    O     O_3   0.904210 0.733959 0.460535 -0.809037
O10   O     O_3   0.096739 0.274078 0.545666 -0.571586
O11   O     O_3   0.855438 0.274057 0.504050 -0.701936
O12   O     O_R   0.499990 0.316750 0.385360 -0.565315
O13   O     O_R   0.314800 0.499990 0.614670 -0.628460
O14   O     O_R   0.314790 0.499970 0.385330 -0.597090
O15   O     O_R   0.500010 0.683250 0.614640 -0.549874
O16   O     O_R   0.500000 0.683220 0.385310 -0.618696
O17   O     O_R   0.685210 0.500030 0.614670 -0.529950
O18   O     O_R   0.685200 0.500010 0.385330 -0.615039
O19   O     O_3   0.889925 0.602912 0.277150 -0.807054
Zn1   Zn    Zn3+2 0.500010 0.500020 0.653130 1.032476
Zn2   Zn    Zn3+2 0.499990 0.499980 0.346870 0.996039

loop_
_geom_bond_atom_site_label_1
_geom_bond_atom_site_label_2
_ccdc_geom_bond_type
C2    C35   A    
H22   O8    S    
C19   C20   S    
C25   H8    S    
C28   H21   S    
C6    O4    S    
O12   Zn2   S    
C12   C23   S    
C10   H2    S    
C9    H34   S    
C34   C35   A    
C19   H1    S    
C26   H15   S    
C5    C6    A    
C4    C24   S    
C8    O5    S    
C15   C17   A    
C25   O3    S    
C28   H20   S    
C8    C9    A    
C4    O13   A    
C16   O16   A    
C26   O5    S    
O17   Zn1   S    
O13   Zn1   S    
C23   O9    S    
C28   O7    S    
C9    C10   A    
C26   H13   S    
H6    O19   S    
C15   H32   S    
O16   Zn2   S    
C16   O15   A    
C14   N1    A    
C25   H9    S    
H11   O4    S    
O14   Zn2   S    
C27   H16   S    
C29   H26   S    
C1    O1    A    
H28   O11   S    
C22   O10   S    
C30   H12   S    
C26   H14   S    
O1    Zn1   S    
C28   H19   S    
C4    O14   A    
C13   N2    A    
C27   O6    S    
C18   O17   A    
C5    H29   S    
C2    C31   A    
C1    C3    S    
C30   O11   S    
C11   H3    S    
C29   O10   S    
C31   C32   A    
C21   H4    S    
C29   H25   S    
C22   H5    S    
C12   C20   S    
C17   O6    S    
C33   C34   A    
C23   O19   S    
C19   H33   S    
O18   Zn2   S    
C34   O3    S    
C33   O2    S    
C7    C16   S    
C17   N2    A    
C21   C23   S    
C22   C24   S    
C25   H10   S    
C27   H17   S    
C32   H31   S    
C31   H30   S    
C15   N1    A    
C29   H27   S    
H7    O2    S    
C8    C14   A    
C22   C30   S    
C20   O8    S    
C12   C30   S    
C18   O18   A    
C7    C35   A    
N1    Zn2   S    
C3    C5    A    
H24   O9    S    
C27   H18   S    
C6    C7    A    
C1    O12   A    
C20   O7    S    
O15   Zn1   S    
C32   C33   A    
C2    C3    A    
C21   H23   S    
C11   C13   A    
C19   C24   S    
C10   C11   A    
N2    Zn1   S    
C21   C24   S    
C12   C18   S    
C13   C14   A    
