data_mof_unit_20813.cif
_audit_creation_date              2012-12-10T18:45:08-0500
_audit_creation_method            fapswitch 2.2
_symmetry_space_group_name_H-M    P1
_symmetry_Int_Tables_number       1
_space_group_crystal_system       triclinic
_cell_length_a                    10.815651
_cell_length_b                    9.875703
_cell_length_c                    10.685154
_cell_angle_alpha                 88.578805
_cell_angle_beta                  91.639633
_cell_angle_gamma                 90.636013
_cell_volume                      1140.42445636

loop_
_atom_site_label
_atom_site_type_symbol
_atom_type_description
_atom_site_fract_x
_atom_site_fract_y
_atom_site_fract_z
_atom_type_partial_charge
C1    C     C_R   0.260645 0.498713 0.510474 0.961138
C2    C     C_R   0.504635 0.498138 0.739698 1.094005
C3    C     C_R   0.731050 0.588007 0.131784 0.378144
C4    C     C_R   0.743309 0.520056 0.879008 0.431775
C5    C     C_R   0.845812 0.590699 0.072660 -0.133562
C6    C     C_R   0.852180 0.556665 0.946909 -0.120631
C7    C     C_R   0.626857 0.518167 0.938156 -0.105892
C8    C     C_R   0.623095 0.538284 0.067595 -0.111463
C9    C     C_R   0.510095 0.509008 0.127837 -0.153876
C10   C     C_R   0.513203 0.492436 0.872722 -0.151362
C11   C     C_R   0.400077 0.478024 0.062516 0.315121
C12   C     C_R   0.739910 0.500779 0.491264 1.053847
C13   C     C_R   0.402535 0.465706 0.933132 0.285461
C14   C     C_R   0.061563 0.373295 0.509585 -0.092233
C15   C     C_R   0.936662 0.377637 0.479070 -0.143708
C16   C     C_R   0.873722 0.501640 0.487245 -0.235870
C17   C     C_R   0.127901 0.496073 0.523244 -0.227840
C18   C     C_1   0.958102 0.623294 0.143606 0.183731
C19   C     C_1   0.970001 0.566703 0.885804 0.194007
C20   C     C_1   0.117038 0.241569 0.535559 0.282867
C21   C     C_1   0.876545 0.254474 0.434400 0.263201
C22   C     C_1   0.654078 0.141460 0.669946 0.252502
C23   C     C_R   0.938944 0.624104 0.508033 0.432715
C24   C     C_1   0.344533 0.146864 0.331207 0.250399
C25   C     C_1   0.656486 0.853150 0.667610 0.302478
C26   C     C_1   0.347191 0.856770 0.329870 0.281143
C27   C     C_R   0.065426 0.619865 0.532929 0.342923
C28   C     C_R   0.574917 0.070771 0.582019 -0.009831
C29   C     C_R   0.425178 0.073192 0.417701 -0.008004
C30   C     C_R   0.575318 0.926708 0.581646 -0.009230
C31   C     C_R   0.425272 0.928944 0.417757 -0.001442
C32   C     C_R   0.504583 0.502287 0.260547 1.071905
H1    H     H_    0.220824 0.490215 0.071241 0.357324
H2    H     H_    0.248418 0.363975 0.914849 0.353921
H3    H     H_    0.787950 0.708624 0.264454 0.360269
H4    H     H_    0.833278 0.450012 0.739056 0.329057
H5    H     H_    0.935646 0.823546 0.507140 0.381763
H6    H     H_    0.182787 0.711909 0.641454 0.362654
N1    N     N_R   0.500000 0.857200 0.500000 -0.126507
N2    N     N_1   0.284552 0.799652 0.258741 -0.148631
N3    N     N_R   0.500000 0.142810 0.500000 -0.126865
N4    N     N_1   0.047369 0.648971 0.200736 -0.159838
N5    N     N_1   0.064065 0.575135 0.837282 -0.178119
N6    N     N_1   0.159837 0.136392 0.557363 -0.179352
N7    N     N_1   0.829377 0.156428 0.398608 -0.193421
N8    N     N_1   0.718421 0.195590 0.741556 -0.174962
N9    N     N_1   0.278880 0.204446 0.261602 -0.140545
N10   N     N_1   0.722446 0.796162 0.737274 -0.156755
O1    O     O_R   0.316770 0.614620 0.499990 -0.609618
O2    O     O_3   0.299650 0.425787 0.862874 -0.784190
O3    O     O_3   0.721221 0.641197 0.248951 -0.774344
O4    O     O_3   0.748964 0.480791 0.756563 -0.787354
O5    O     O_3   0.876767 0.746108 0.506653 -0.741975
O6    O     O_3   0.124611 0.736938 0.571471 -0.752973
O7    O     O_R   0.683230 0.614620 0.500010 -0.526258
O8    O     O_R   0.316800 0.385290 0.500000 -0.621216
O9    O     O_R   0.683200 0.385290 0.500000 -0.640378
O10   O     O_R   0.500010 0.614690 0.316770 -0.585881
O11   O     O_R   0.499990 0.614690 0.683230 -0.648764
O12   O     O_R   0.500040 0.385360 0.316770 -0.637062
O13   O     O_R   0.499960 0.385360 0.683230 -0.598409
O14   O     O_3   0.291648 0.465997 0.127824 -0.763594
Zn1   Zn    Zn3+2 0.500000 0.653120 0.500000 1.032644
Zn2   Zn    Zn3+2 0.500000 0.346880 0.500000 1.006957

loop_
_geom_bond_atom_site_label_1
_geom_bond_atom_site_label_2
_ccdc_geom_bond_type
O13   Zn2   S    
C18   N4    T    
O8    Zn2   S    
O1    Zn1   S    
C23   C27   A    
C7    C10   A    
N1    Zn1   S    
O11   Zn1   S    
H4    O4    S    
C2    O13   A    
C32   O10   A    
O12   Zn2   S    
C11   O14   S    
H5    O5    S    
C28   C30   A    
C27   O6    S    
C29   N3    A    
C7    C8    A    
C29   C31   A    
C22   C28   S    
O10   Zn1   S    
C6    C19   S    
C11   C13   A    
C14   C17   A    
C26   N2    T    
C4    O4    S    
C4    C7    A    
C14   C15   A    
C12   O9    A    
C13   O2    S    
C22   N8    T    
C1    O8    A    
C31   N1    A    
C30   N1    A    
C23   O5    S    
C16   C23   A    
C21   N7    T    
C25   N10   T    
C9    C11   A    
H3    O3    S    
C5    C6    A    
H2    O2    S    
C12   O7    A    
C32   O12   A    
C15   C16   A    
C17   C27   A    
C14   C20   S    
C28   N3    A    
C15   C21   S    
C1    C17   S    
O9    Zn2   S    
C4    C6    A    
C3    C8    A    
C26   C31   S    
C25   C30   S    
C3    O3    S    
C24   C29   S    
H1    O14   S    
C5    C18   S    
C19   N5    T    
N3    Zn2   S    
C20   N6    T    
C9    C32   S    
C2    O11   A    
C24   N9    T    
C1    O1    A    
C2    C10   S    
C12   C16   S    
O7    Zn1   S    
C8    C9    A    
C3    C5    A    
C10   C13   A    
H6    O6    S    
