data_mof_unit_48494.cif
_audit_creation_date              2012-12-11T16:56:21-0500
_audit_creation_method            fapswitch 2.2
_symmetry_space_group_name_H-M    P1
_symmetry_Int_Tables_number       1
_space_group_crystal_system       triclinic
_cell_length_a                    6.946031
_cell_length_b                    14.548923
_cell_length_c                    16.187084
_cell_angle_alpha                 90.354822
_cell_angle_beta                  90.116278
_cell_angle_gamma                 90.053933
_cell_volume                      1635.78704077

loop_
_atom_site_label
_atom_site_type_symbol
_atom_type_description
_atom_site_fract_x
_atom_site_fract_y
_atom_site_fract_z
_atom_type_partial_charge
O1    O     O_R   0.505830 0.583360 0.413880 -0.533336
O2    O     O_R   0.175830 0.595460 0.585520 -0.521556
O3    O     O_R   0.005520 0.416640 0.586120 -0.547732
C1    C     C_R   0.344850 0.618309 0.613618 0.783066
O4    O     O_R   0.176120 0.594390 0.414490 -0.545659
O5    O     O_R   0.005810 0.415570 0.413870 -0.542585
C2    C     C_R   0.344749 0.616123 0.385898 0.761246
O6    O     O_R   0.505540 0.584430 0.586130 -0.543504
O7    O     O_3   0.339200 0.441330 0.500000 -0.373454
V1    V     V_3+5 0.064350 0.510880 0.500000 1.471109
O8    O     O_R   0.676100 0.404540 0.414480 -0.521942
C3    C     C_R   0.844874 0.382788 0.385615 0.726416
O9    O     O_R   0.675810 0.405610 0.585510 -0.546229
C4    C     C_R   0.845085 0.383739 0.613718 0.728002
V2    V     V_3+5 0.564340 0.489120 0.500000 1.473963
O10   O     O_3   0.839360 0.558670 0.500000 -0.362214
C5    C     C_2   0.720513 0.208998 0.786038 -0.120523
C6    C     C_2   0.885495 0.181826 0.822608 -0.279458
C7    C     C_2   0.708265 0.277561 0.718108 -0.128116
C8    C     C_2   0.861614 0.315499 0.680553 -0.298274
C9    C     C_R   0.741447 0.177886 0.244972 -0.022351
C10   C     C_R   0.881049 0.186451 0.182884 -0.211584
C11   C     C_R   0.015538 0.260280 0.190376 0.361004
C12   C     C_R   0.004481 0.321333 0.258233 -0.124398
C13   C     C_R   0.858152 0.314383 0.317756 -0.156640
C14   C     C_R   0.728985 0.241060 0.310218 -0.058767
C15   C     C_3   0.513588 0.242922 0.306791 0.160216
C16   C     C_3   0.526549 0.173421 0.235810 0.175617
H1    H     H_    0.445020 0.216886 0.364060 0.127205
C17   C     C_R   0.482643 0.675574 0.747667 -0.046005
C18   C     C_R   0.352376 0.686263 0.682407 -0.182492
C19   C     C_R   0.219784 0.759953 0.687235 0.319441
C20   C     C_R   0.229854 0.824357 0.754180 0.221762
C21   C     C_R   0.373062 0.815090 0.817121 -0.258101
C22   C     C_R   0.492565 0.737891 0.812975 0.105353
C23   C     C_3   0.706722 0.730829 0.817342 0.214024
C24   C     C_3   0.695515 0.661742 0.746412 -0.409508
C25   C     C_R   0.486203 0.755951 0.318237 0.030090
C26   C     C_R   0.351894 0.684315 0.318427 -0.202946
C27   C     C_R   0.221438 0.679348 0.251806 -0.172200
C28   C     C_R   0.238711 0.737859 0.182732 0.423595
C29   C     C_R   0.378586 0.809824 0.183000 -0.213681
C30   C     C_R   0.495879 0.818692 0.253289 -0.100568
C31   C     C_3   0.712033 0.822325 0.260166 0.664214
C32   C     C_3   0.699179 0.753301 0.331238 0.085954
O11   O     O_R   0.229930 0.912420 0.917160 -0.554724
O12   O     O_R   0.559420 0.902500 0.088780 -0.507405
O13   O     O_R   0.729660 0.081330 0.089380 -0.530300
C33   C     C_R   0.390455 0.879112 0.116127 0.777782
O14   O     O_R   0.559650 0.901420 0.917750 -0.543021
O15   O     O_R   0.729880 0.080250 0.917130 -0.550223
C34   C     C_R   0.390081 0.881760 0.887017 0.732292
O16   O     O_R   0.229700 0.913500 0.089410 -0.520710
O17   O     O_3   0.396250 0.055540 0.003280 -0.382048
V3    V     V_3+5 0.671130 0.986010 0.003260 1.536234
O18   O     O_R   0.059600 0.091310 0.917720 -0.552362
C35   C     C_R   0.890834 0.113212 0.889518 0.707835
O19   O     O_R   0.059370 0.092380 0.088750 -0.529286
C36   C     C_R   0.890339 0.116657 0.115633 0.743635
V4    V     V_3+5 0.171120 0.007820 0.003230 1.501262
O20   O     O_3   0.896130 0.938240 0.003240 -0.357295
H2    H     H_    0.584737 0.180309 0.806876 0.138161
O21   O     O_3   0.450725 0.086427 0.255155 -0.623950
H3    H     H_    0.500958 0.067750 0.310004 0.289326
O22   O     O_3   0.088713 0.770232 0.623474 -0.635572
H4    H     H_    0.997629 0.820462 0.636613 0.327541
O23   O     O_3   0.115091 0.901378 0.750822 -0.650301
H5    H     H_    0.035502 0.901957 0.801336 0.290478
O24   O     O_3   0.766039 0.690623 0.891523 -0.618710
H6    H     H_    0.908784 0.689562 0.889487 0.294150
H7    H     H_    0.781504 0.796228 0.802507 0.078044
H8    H     H_    0.736305 0.590565 0.763902 0.183405
H9    H     H_    0.762670 0.687054 0.688598 0.178682
H10   H     H_    0.114979 0.624861 0.250087 0.132899
O25   O     O_3   0.126061 0.717456 0.114641 -0.619086
H11   H     H_    0.180828 0.747169 0.065157 0.282442
O26   O     O_3   0.783831 0.909553 0.282581 -0.600433
H12   H     H_    0.700972 0.935399 0.326859 0.299552
H13   H     H_    0.022947 0.209835 0.803903 0.128575
O27   O     O_3   0.806319 0.787962 0.189782 -0.596947
H14   H     H_    0.751094 0.726768 0.175820 0.272547
O28   O     O_3   0.749379 0.790482 0.408381 -0.619355
H15   H     H_    0.891610 0.785582 0.411964 0.323062
H16   H     H_    0.763597 0.684470 0.318815 0.074730
H17   H     H_    0.564473 0.296739 0.698191 0.135360
H18   H     H_    0.006573 0.297018 0.698562 0.130654
O29   O     O_3   0.150554 0.279866 0.130610 -0.648382
H19   H     H_    0.105227 0.255299 0.076873 0.275860
H20   H     H_    0.102044 0.379314 0.260772 0.174668
O30   O     O_3   0.440834 0.329008 0.282810 -0.634409
H21   H     H_    0.506894 0.348660 0.231458 0.294972
H22   H     H_    0.474953 0.198519 0.174982 0.161920

loop_
_geom_bond_atom_site_label_1
_geom_bond_atom_site_label_2
_ccdc_geom_bond_type
O13   V3    S    
O29   H19   S    
C15   H1    S    
C28   C29   A    
C32   O28   S    
C1    O6    A    
C12   H20   S    
O12   C33   A    
O17   V4    S    
O26   H12   S    
C31   C32   S    
C14   C15   S    
C17   C22   A    
C23   C24   S    
O5    C3    A    
C17   C18   A    
O19   V4    S    
V2    O10   S    
O11   C34   A    
O18   C35   A    
C15   O30   S    
C21   C22   A    
C25   C32   S    
O8    V2    S    
O16   V4    S    
C7    C8    D    
C6    H13   S    
C8    H18   S    
O14   C34   A    
C11   C12   A    
O15   C35   A    
O7    V1    S    
C23   H7    S    
C11   O29   S    
O9    C4    A    
C9    C14   A    
C5    C6    D    
O23   H5    S    
C4    C8    S    
C31   O27   S    
C12   C13   A    
C10   C36   S    
O4    C2    A    
O19   C36   A    
O18   V4    S    
C17   C24   S    
V4    O20   S    
C22   C23   S    
O2    C1    A    
O25   H11   S    
C5    H2    S    
C28   O25   S    
C6    C35   S    
C18   C19   A    
C20   C21   A    
C16   H22   S    
O3    C4    A    
O1    V2    S    
C27   C28   A    
C9    C16   S    
O22   H4    S    
O6    V2    S    
O9    V2    S    
C30   C31   S    
C32   H16   S    
C29   C30   A    
O2    V1    S    
C26   C27   A    
C23   O24   S    
C20   O23   S    
O13   C36   A    
O12   V3    S    
C24   H9    S    
O17   V3    S    
C31   O26   S    
O11   V4    S    
O1    C2    A    
O27   H14   S    
C7    H17   S    
O5    V1    S    
O8    C3    A    
C21   C34   S    
O14   V3    S    
C3    C13   S    
C19   C20   A    
C13   C14   A    
O4    V1    S    
O3    V1    S    
V1    O10   S    
O30   H21   S    
C25   C26   A    
C33   O16   A    
V3    O20   S    
C5    C7    S    
C27   H10   S    
O15   V3    S    
O7    V2    S    
O24   H6    S    
C1    C18   S    
C29   C33   S    
O21   H3    S    
C16   O21   S    
C25   C30   A    
O28   H15   S    
C24   H8    S    
C15   C16   S    
C2    C26   S    
C10   C11   A    
C9    C10   A    
C19   O22   S    
