data_mof_unit_67418.cif
_audit_creation_date              2012-12-10T16:41:43-0500
_audit_creation_method            fapswitch 2.2
_symmetry_space_group_name_H-M    P1
_symmetry_Int_Tables_number       1
_space_group_crystal_system       triclinic
_cell_length_a                    11.77166
_cell_length_b                    12.827051
_cell_length_c                    7.601961
_cell_angle_alpha                 90.000542
_cell_angle_beta                  109.170763
_cell_angle_gamma                 90.000145
_cell_volume                      1084.20745887

loop_
_atom_site_label
_atom_site_type_symbol
_atom_type_description
_atom_site_fract_x
_atom_site_fract_y
_atom_site_fract_z
_atom_type_partial_charge
C1    C     C_R   0.346680 0.853655 0.453232 0.842949
C2    C     C_2   0.751366 0.783409 0.568889 0.147548
C3    C     C_2   0.755258 0.212235 0.565127 0.184555
C4    C     C_2   0.248635 0.783408 0.431111 0.147573
C5    C     C_2   0.744741 0.712233 0.434875 0.184587
C6    C     C_2   0.251366 0.283410 0.568888 0.147555
C7    C     C_2   0.255258 0.712235 0.565128 0.184593
C8    C     C_2   0.748634 0.283409 0.431110 0.147580
C9    C     C_R   0.654839 0.144982 0.546555 0.844132
C10   C     C_R   0.653320 0.853656 0.546767 0.842946
C11   C     C_R   0.345160 0.144981 0.453445 0.844133
C12   C     C_R   0.846680 0.353655 0.453232 0.842965
C13   C     C_R   0.154839 0.644981 0.546555 0.844137
C14   C     C_R   0.153320 0.353656 0.546767 0.842936
C15   C     C_R   0.845160 0.644981 0.453445 0.844152
C16   C     C_2   0.244741 0.212233 0.434874 0.184592
Cl1   Cl    Cl    0.606656 0.674744 0.266051 -0.426082
Cl2   Cl    Cl    0.385602 0.313809 0.752547 -0.473856
Cl3   Cl    Cl    0.393340 0.674752 0.733961 -0.426140
Cl4   Cl    Cl    0.614399 0.313806 0.247448 -0.473710
Cl5   Cl    Cl    0.106657 0.174746 0.266049 -0.426042
Cl6   Cl    Cl    0.885602 0.813809 0.752547 -0.473888
Cl7   Cl    Cl    0.893341 0.174750 0.733956 -0.426050
Cl8   Cl    Cl    0.114399 0.813805 0.247449 -0.473861
Cu1   Cu    Cu3+1 0.517640 0.000000 0.687200 1.234845
Cu2   Cu    Cu3+1 0.482360 0.000000 0.312800 1.234847
Cu3   Cu    Cu3+1 0.017640 0.500000 0.687200 1.234842
Cu4   Cu    Cu3+1 0.982360 0.500000 0.312800 1.234863
H1    H     H_    0.137022 0.980745 0.953534 0.413346
H2    H     H_    0.862967 0.980707 0.046424 0.413355
H3    H     H_    0.636989 0.480906 0.953357 0.413362
H4    H     H_    0.362966 0.480705 0.046418 0.413357
N1    N     N_2   0.455760 0.000000 0.031460 0.080642
N2    N     N_2   0.544240 0.000000 0.968540 0.080645
N3    N     N_2   0.955760 0.500000 0.031460 0.080641
N4    N     N_2   0.044240 0.500000 0.968540 0.080644
O1    O     O_R   0.398880 0.887420 0.621600 -0.548176
O2    O     O_R   0.630920 0.112580 0.694560 -0.514055
O3    O     O_R   0.630920 0.887420 0.694560 -0.514861
O4    O     O_R   0.369080 0.112580 0.305440 -0.514068
O5    O     O_R   0.869080 0.387420 0.305440 -0.514800
O6    O     O_R   0.130920 0.612580 0.694560 -0.514061
O7    O     O_R   0.130920 0.387420 0.694560 -0.514858
O8    O     O_R   0.869080 0.612580 0.305440 -0.514074
O9    O     O_2   0.257437 0.009526 0.714719 -0.283407
O10   O     O_2   0.298620 0.849037 0.898876 -0.218045
O11   O     O_3   0.218032 0.007954 0.023776 -0.425863
O12   O     O_R   0.601120 0.112580 0.378400 -0.556878
O13   O     O_2   0.742567 0.009535 0.285272 -0.283389
O14   O     O_2   0.701368 0.849030 0.101143 -0.218083
O15   O     O_3   0.781966 0.007929 0.976205 -0.425877
O16   O     O_2   0.757437 0.509527 0.714723 -0.283507
O17   O     O_2   0.798623 0.349034 0.898870 -0.217956
O18   O     O_3   0.718033 0.507942 0.023785 -0.425916
O19   O     O_2   0.242566 0.509531 0.285275 -0.283394
O20   O     O_2   0.201369 0.349030 0.101135 -0.218070
O21   O     O_3   0.281966 0.507935 0.976209 -0.425882
O22   O     O_R   0.601120 0.887420 0.378400 -0.548171
O23   O     O_R   0.398880 0.112580 0.621600 -0.556865
O24   O     O_R   0.898880 0.387420 0.621600 -0.548184
O25   O     O_R   0.101120 0.612580 0.378400 -0.556873
O26   O     O_R   0.101120 0.387420 0.378400 -0.548179
O27   O     O_R   0.898880 0.612580 0.621600 -0.556863
O28   O     O_R   0.369080 0.887420 0.305440 -0.514852
S1    S     S_3+6 0.307852 0.965597 0.906755 0.213132
S2    S     S_3+6 0.692146 0.965592 0.093244 0.213132
S3    S     S_3+6 0.807852 0.465594 0.906757 0.213119
S4    S     S_3+6 0.192146 0.465593 0.093244 0.213132

loop_
_geom_bond_atom_site_label_1
_geom_bond_atom_site_label_2
_ccdc_geom_bond_type
C2    Cl6   S    
H2    O15   S    
N4    S4    S    
Cu2   O28   S    
C16   Cl5   S    
C3    C9    S    
Cu2   O12   S    
Cu1   O2    S    
C6    C14   S    
Cu2   O22   S    
C11   C16   S    
Cu2   N1    S    
C3    Cl7   S    
N3    N4    D    
N3    S3    S    
Cu1   N2    S    
C8    C12   S    
C1    C4    S    
Cu4   O25   S    
N2    S2    S    
N1    N2    D    
N1    S1    S    
C8    Cl4   S    
Cu1   O3    S    
O14   S2    D    
Cu3   O6    S    
Cu2   O4    S    
C12   O5    A    
O16   S3    D    
Cu3   O27   S    
H4    O21   S    
H1    O11   S    
C4    C7    D    
C11   O23   A    
O11   S1    S    
C13   O6    A    
C10   O22   A    
O17   S3    D    
C15   O8    A    
O19   S4    D    
C7    Cl3   S    
Cu3   O24   S    
H3    O18   S    
O9    S1    D    
C11   O4    A    
Cu3   N4    S    
C6    Cl2   S    
C5    C15   S    
C2    C5    D    
C5    Cl1   S    
O13   S2    D    
O10   S1    D    
O21   S4    S    
C6    C16   D    
C12   O24   A    
C1    O28   A    
Cu3   O7    S    
Cu4   O5    S    
C7    C13   S    
C13   O25   A    
C9    O12   A    
C14   O7    A    
C3    C8    D    
Cu3   Cu4   S    
C4    Cl8   S    
C15   O27   A    
C10   O3    A    
C9    O2    A    
O18   S3    S    
Cu1   O23   S    
Cu1   O1    S    
Cu1   Cu2   S    
O20   S4    D    
Cu4   O8    S    
C2    C10   S    
Cu4   N3    S    
Cu4   O26   S    
C1    O1    A    
O15   S2    S    
C14   O26   A    
