data_mof_unit_6588.cif
_audit_creation_date              2012-12-10T18:14:29-0500
_audit_creation_method            fapswitch 2.2
_symmetry_space_group_name_H-M    P1
_symmetry_Int_Tables_number       1
_space_group_crystal_system       triclinic
_cell_length_a                    12.579709
_cell_length_b                    13.177735
_cell_length_c                    19.073902
_cell_angle_alpha                 90.827988
_cell_angle_beta                  102.600909
_cell_angle_gamma                 82.209414
_cell_volume                      3056.90495622

loop_
_atom_site_label
_atom_site_type_symbol
_atom_type_description
_atom_site_fract_x
_atom_site_fract_y
_atom_site_fract_z
_atom_type_partial_charge
C1    C     C_R   0.438720 0.690803 0.486545 0.858990
C2    C     C_R   0.478629 0.543642 0.142254 0.089248
C3    C     C_R   0.725404 0.045942 0.495957 -0.211697
C4    C     C_R   0.499381 0.503794 0.634170 0.867716
C5    C     C_R   0.597905 0.196214 0.510268 -0.127960
C6    C     C_R   0.290503 0.837984 0.471935 -0.192671
C7    C     C_R   0.256613 0.942830 0.467182 -0.146766
C8    C     C_R   0.332470 0.009908 0.465454 -0.191226
C9    C     C_R   0.443452 0.972105 0.464905 0.095741
C10   C     C_R   0.471315 0.866219 0.456163 0.084425
C11   C     C_R   0.529408 0.033962 0.476461 0.074825
C12   C     C_R   0.492069 0.524418 0.708166 -0.056934
C13   C     C_R   0.637210 0.990758 0.472759 0.126434
C14   C     C_R   0.656191 0.891263 0.448563 -0.242054
C15   C     C_R   0.572702 0.830516 0.437896 -0.190391
C16   C     C_R   0.561776 0.307790 0.509877 0.867554
C17   C     C_R   0.512575 0.135742 0.495988 -0.290962
C18   C     C_R   0.708207 0.147855 0.517924 0.170394
C19   C     C_R   0.398890 0.799051 0.468921 -0.118816
C20   C     C_R   0.083659 0.360441 0.391074 -0.307440
C21   C     C_R   0.800617 0.626174 0.587337 0.019063
C22   C     C_R   0.905506 0.654124 0.605745 -0.255048
C23   C     C_R   0.472011 0.558728 0.065635 0.283865
C24   C     C_R   0.986357 0.607904 0.571737 -0.201021
C25   C     C_R   0.961929 0.533497 0.518570 0.016434
C26   C     C_R   0.853484 0.508350 0.501472 0.226475
C27   C     C_R   0.040449 0.482420 0.482314 -0.017587
C28   C     C_R   0.498798 0.500865 0.365349 0.844225
C29   C     C_R   0.007468 0.412320 0.427025 0.195219
C30   C     C_R   0.899435 0.392444 0.409456 -0.306250
C31   C     C_R   0.825154 0.435898 0.448720 -0.209119
C32   C     C_R   0.151297 0.496960 0.498955 -0.054263
C33   C     C_R   0.192061 0.377885 0.410423 0.001407
C34   C     C_R   0.467599 0.574338 0.924115 0.272471
C35   C     C_R   0.388824 0.558187 0.723007 -0.214446
C36   C     C_R   0.378147 0.582084 0.792776 0.121905
C37   C     C_R   0.473646 0.569291 0.848717 0.057246
C38   C     C_R   0.577314 0.539602 0.832934 -0.184261
C39   C     C_R   0.586588 0.517772 0.762973 -0.208880
C40   C     C_3   0.265293 0.625451 0.804052 -0.438125
C41   C     C_3   0.189005 0.542479 0.795951 -0.317856
C42   C     C_3   0.076510 0.585496 0.809445 -0.867943
C43   C     C_3   0.808839 0.194587 0.555860 -0.406755
C44   C     C_3   0.893624 0.193773 0.509367 -0.863326
C45   C     C_R   0.391860 0.508018 0.165684 -0.163936
C46   C     C_R   0.399311 0.491654 0.238443 -0.191224
C47   C     C_R   0.493753 0.510434 0.288581 -0.032370
C48   C     C_R   0.581155 0.544585 0.265047 -0.203044
C49   C     C_R   0.573465 0.561419 0.192424 -0.163826
H1    H     H_    0.316094 0.568535 0.679767 0.144648
H2    H     H_    0.873673 0.338572 0.367737 0.157132
H3    H     H_    0.059744 0.306695 0.348903 0.145139
H4    H     H_    0.184099 0.548793 0.539567 0.119157
H5    H     H_    0.737298 0.661658 0.613580 0.143980
H6    H     H_    0.066275 0.632558 0.587706 0.131288
H7    H     H_    0.924047 0.711484 0.646122 0.145028
H8    H     H_    0.747171 0.408702 0.438166 0.223370
H9    H     H_    0.651091 0.529376 0.875282 0.154760
H10   H     H_    0.667069 0.493578 0.751988 0.154383
H11   H     H_    0.317913 0.493382 0.127966 0.148402
H12   H     H_    0.736523 0.859166 0.440395 0.150325
H13   H     H_    0.330747 0.465392 0.255361 0.155081
H14   H     H_    0.654927 0.559921 0.302695 0.163373
H15   H     H_    0.642050 0.587922 0.175715 0.150275
H16   H     H_    0.084790 0.613826 0.865253 0.266451
H17   H     H_    0.037497 0.649331 0.771083 0.255144
H18   H     H_    0.022531 0.524369 0.801947 0.249537
H19   H     H_    0.177664 0.511270 0.740745 0.216938
H20   H     H_    0.226056 0.478580 0.834743 0.240225
H21   H     H_    0.270268 0.661989 0.857238 0.215576
H22   H     H_    0.229043 0.687549 0.763555 0.192437
H23   H     H_    0.808339 0.007874 0.499236 0.145816
H24   H     H_    0.942529 0.116814 0.510689 0.240340
H25   H     H_    0.852057 0.213557 0.452875 0.265607
H26   H     H_    0.951396 0.249343 0.530300 0.263415
H27   H     H_    0.789562 0.272778 0.575087 0.233098
H28   H     H_    0.847925 0.148251 0.605267 0.197586
H29   H     H_    0.431962 0.169762 0.500644 0.173255
H30   H     H_    0.232528 0.787642 0.479565 0.155415
H31   H     H_    0.301353 0.090330 0.464166 0.129079
H32   H     H_    0.172488 0.972513 0.468496 0.138764
H33   H     H_    0.589765 0.754499 0.417407 0.178107
H34   H     H_    0.252458 0.339320 0.382987 0.132546
N1    N     N_R   0.548071 0.610481 0.973300 -0.176477
N2    N     N_R   0.549973 0.603122 0.042914 -0.181142
N3    N     N_R   0.391151 0.523366 0.016301 -0.183162
N4    N     N_R   0.389413 0.530492 0.946762 -0.176486
N5    N     N_R   0.222200 0.444680 0.463280 -0.099743
N6    N     N_R   0.776960 0.554780 0.536340 -0.134132
O1    O     O_R   0.366740 0.627160 0.482470 -0.614589
O2    O     O_R   0.544830 0.662520 0.505920 -0.618369
O3    O     O_R   0.410920 0.482320 0.590130 -0.618706
O4    O     O_R   0.589010 0.517690 0.613590 -0.619092
O5    O     O_R   0.455170 0.337480 0.494080 -0.610916
O6    O     O_R   0.633260 0.372840 0.517530 -0.634714
O7    O     O_R   0.410990 0.482310 0.386410 -0.614228
O8    O     O_R   0.589080 0.517680 0.409870 -0.646519
Zn1   Zn    Zn3+2 0.381090 0.476390 0.484340 0.937272
Zn2   Zn    Zn3+2 0.618910 0.523610 0.515660 0.917884

loop_
_geom_bond_atom_site_label_1
_geom_bond_atom_site_label_2
_ccdc_geom_bond_type
C28   O8    A    
C30   H2    S    
C28   C47   S    
C1    O1    A    
C40   H22   S    
C27   C29   A    
C34   C37   S    
C41   C42   S    
C35   C36   A    
O3    Zn1   S    
C7    C8    A    
C45   H11   S    
C21   N6    A    
C45   C46   A    
C24   H6    S    
C6    C19   A    
C29   C30   A    
C40   H21   S    
C46   H13   S    
C43   H28   S    
C36   C37   A    
C33   N5    A    
C10   C15   A    
C30   C31   A    
O6    Zn2   S    
C5    C17   A    
O5    Zn1   S    
C32   N5    A    
C3    C18   A    
C5    C16   S    
C38   H9    S    
C11   C17   A    
C8    C9    A    
C23   N3    A    
O7    Zn1   S    
C42   H16   S    
C8    H31   S    
C15   H33   S    
C9    C10   A    
O4    Zn2   S    
C3    C13   A    
C26   C31   A    
C1    O2    A    
C49   H15   S    
C13   C14   A    
C34   N1    A    
O8    Zn2   S    
C41   H19   S    
C20   C29   A    
C2    C45   A    
C38   C39   A    
C1    C19   S    
C36   C40   S    
N1    N2    A    
N3    N4    A    
C48   H14   S    
C22   H7    S    
C5    C18   A    
C25   C26   A    
C14   H12   S    
C26   N6    A    
C44   H26   S    
C43   C44   S    
C37   C38   A    
C2    C49   A    
C9    C11   A    
C47   C48   A    
C10   C19   A    
C39   H10   S    
C35   H1    S    
C24   C25   A    
C12   C35   A    
C44   H25   S    
C33   H34   S    
C20   C33   A    
C40   C41   S    
C7    H32   S    
N6    Zn2   S    
C42   H18   S    
C22   C24   A    
C4    C12   S    
C32   H4    S    
C41   H20   S    
C43   H27   S    
C46   C47   A    
C48   C49   A    
C16   O6    A    
C27   C32   A    
C6    C7    A    
C25   C27   A    
C16   O5    A    
C28   O7    A    
C31   H8    S    
C12   C39   A    
C3    H23   S    
C20   H3    S    
C18   C43   S    
C11   C13   A    
C6    H30   S    
C21   H5    S    
C17   H29   S    
C34   N4    A    
C44   H24   S    
C4    O4    A    
C23   N2    A    
C2    C23   S    
C42   H17   S    
C14   C15   A    
O2    Zn2   S    
C21   C22   A    
O1    Zn1   S    
N5    Zn1   S    
C4    O3    A    
