data_mof_unit_63017.cif
_audit_creation_date              2012-12-10T18:13:16-0500
_audit_creation_method            fapswitch 2.2
_symmetry_space_group_name_H-M    P1
_symmetry_Int_Tables_number       1
_space_group_crystal_system       triclinic
_cell_length_a                    18.31848
_cell_length_b                    18.408098
_cell_length_c                    25.956262
_cell_angle_alpha                 89.999983
_cell_angle_beta                  90.000086
_cell_angle_gamma                 90.000387
_cell_volume                      8752.66893121

loop_
_atom_site_label
_atom_site_type_symbol
_atom_type_description
_atom_site_fract_x
_atom_site_fract_y
_atom_site_fract_z
_atom_type_partial_charge
C1    C     C_R   0.859817 0.139959 0.249941 0.812605
C2    C     C_R   0.805124 0.249685 0.288240 -0.306496
C3    C     C_R   0.237336 0.314593 0.278815 0.457946
C4    C     C_R   0.194988 0.249575 0.711679 -0.306476
C5    C     C_R   0.184701 0.259758 0.278334 -0.306203
C6    C     C_R   0.305029 0.749592 0.211691 -0.306482
C7    C     C_R   0.315282 0.759740 0.778357 -0.306196
C8    C     C_R   0.684694 0.759764 0.221675 -0.306197
C9    C     C_R   0.694980 0.749583 0.788315 -0.306478
C10   C     C_R   0.804266 0.196394 0.750360 -0.034155
C11   C     C_R   0.803515 0.195654 0.250371 -0.033522
C12   C     C_R   0.196491 0.195649 0.749624 -0.033485
C13   C     C_R   0.859903 0.140042 0.750143 0.811157
C14   C     C_R   0.195733 0.196395 0.249638 -0.034147
C15   C     C_R   0.303509 0.695650 0.249625 -0.033491
C16   C     C_R   0.304266 0.696394 0.749640 -0.034154
C17   C     C_R   0.695732 0.696396 0.250362 -0.034158
C18   C     C_R   0.696491 0.695649 0.750375 -0.033487
C19   C     C_R   0.740327 0.187454 0.779098 -0.186162
C20   C     C_R   0.748099 0.195155 0.213322 -0.182833
C21   C     C_R   0.251810 0.195245 0.786745 -0.182821
C22   C     C_R   0.259687 0.187440 0.220920 -0.186165
C23   C     C_R   0.248176 0.695231 0.286736 -0.182817
C24   C     C_R   0.140097 0.140042 0.249856 0.811150
C25   C     C_R   0.240327 0.687454 0.720902 -0.186164
C26   C     C_R   0.759693 0.687434 0.279073 -0.186144
C27   C     C_R   0.751816 0.695238 0.713259 -0.182823
C28   C     C_R   0.195090 0.748826 0.286260 -0.275834
C29   C     C_R   0.187442 0.741243 0.721191 -0.274827
C30   C     C_R   0.812577 0.741224 0.278785 -0.274832
C31   C     C_R   0.804903 0.748834 0.713735 -0.275837
C32   C     C_R   0.687442 0.241242 0.778809 -0.274827
C33   C     C_R   0.695015 0.248751 0.213797 -0.275840
C34   C     C_R   0.304897 0.248840 0.786270 -0.275838
C35   C     C_R   0.140184 0.139958 0.750059 0.812569
C36   C     C_R   0.312572 0.241229 0.221209 -0.274841
C37   C     C_R   0.196435 0.803483 0.248593 -0.045255
C38   C     C_R   0.197788 0.804815 0.750111 -0.045904
C39   C     C_R   0.802210 0.804818 0.249893 -0.045896
C40   C     C_R   0.803566 0.803482 0.751407 -0.045246
C41   C     C_R   0.697788 0.304815 0.749889 -0.045904
C42   C     C_R   0.696446 0.303494 0.251400 -0.045275
C43   C     C_R   0.303567 0.303482 0.748592 -0.045243
C44   C     C_R   0.302210 0.304817 0.250108 -0.045891
C45   C     C_R   0.066282 0.999904 0.026712 -0.181972
C46   C     C_R   0.359903 0.640042 0.749856 0.811156
C47   C     C_R   0.066282 0.999906 0.973289 -0.186110
C48   C     C_R   0.933718 0.999906 0.026711 -0.186109
C49   C     C_R   0.933718 0.999903 0.973288 -0.181969
C50   C     C_R   0.566282 0.499907 0.526711 -0.186107
C51   C     C_R   0.566282 0.499904 0.473288 -0.181995
C52   C     C_R   0.433718 0.499903 0.526711 -0.181973
C53   C     C_R   0.433718 0.499906 0.473289 -0.186113
C54   C     C_R   1.000000 0.999921 0.946295 0.004789
C55   C     C_R   1.000000 0.999921 0.053705 0.004790
C56   C     C_R   0.500000 0.499922 0.446295 0.004797
C57   C     C_R   0.359816 0.639958 0.250059 0.812578
C58   C     C_R   0.500000 0.499922 0.553705 0.004790
C59   C     C_R   0.140116 0.859744 0.249576 0.822905
C60   C     C_R   0.140560 0.860181 0.749991 0.823654
C61   C     C_R   0.859439 0.860182 0.250010 0.823662
C62   C     C_R   0.859885 0.859744 0.750424 0.822912
C63   C     C_R   0.640560 0.360181 0.750009 0.823654
C64   C     C_R   0.640119 0.359747 0.250421 0.822869
C65   C     C_R   0.359885 0.359744 0.749576 0.822916
C66   C     C_R   0.359439 0.360182 0.249990 0.823650
C67   C     C_R   0.000000 0.999961 0.109816 0.784118
C68   C     C_R   0.640184 0.639958 0.749941 0.812570
C69   C     C_R   1.000000 0.999961 0.890183 0.784118
C70   C     C_R   0.500000 0.499961 0.609816 0.784117
C71   C     C_R   0.500000 0.499961 0.390183 0.784087
C72   C     C_R   0.999999 0.999954 0.389816 0.804955
C73   C     C_R   0.000001 0.999954 0.610184 0.804948
C74   C     C_R   0.500001 0.499954 0.889816 0.804949
C75   C     C_R   0.499999 0.499954 0.110184 0.804961
C76   C     C_R   0.999999 0.062741 0.474035 0.132130
C77   C     C_R   0.000003 0.062740 0.525965 0.132128
C78   C     C_R   0.500002 0.562740 0.974035 0.132130
C79   C     C_R   0.640097 0.640042 0.250144 0.811162
C80   C     C_R   0.499997 0.562740 0.025965 0.132129
C81   C     C_R   0.999998 0.999071 0.445454 -0.079544
C82   C     C_R   0.000002 0.999071 0.554546 -0.079542
C83   C     C_R   0.500002 0.499071 0.945454 -0.079543
C84   C     C_R   0.499998 0.499071 0.054546 -0.079546
C85   C     C_R   0.999998 0.932839 0.472943 -0.223090
C86   C     C_R   0.999999 0.932839 0.527057 -0.223091
C87   C     C_R   0.500000 0.432839 0.972943 -0.223090
C88   C     C_R   0.500000 0.432839 0.027057 -0.223081
C89   C     C_3   0.000007 0.143480 0.529676 -0.472878
C90   C     C_R   0.815281 0.259740 0.721643 -0.306195
C91   C     C_3   1.000000 0.143480 0.470324 -0.472872
C92   C     C_3   0.499996 0.643480 0.029676 -0.472872
C93   C     C_3   0.500003 0.643480 0.970324 -0.472877
C94   C     C_R   0.251675 0.803734 0.210543 0.457939
C95   C     C_R   0.262646 0.814574 0.778840 0.457948
C96   C     C_R   0.737329 0.814601 0.221194 0.457944
C97   C     C_R   0.748335 0.803724 0.789463 0.457939
C98   C     C_R   0.762645 0.314574 0.721160 0.457948
C99   C     C_R   0.751778 0.303833 0.289384 0.457944
C100  C     C_R   0.248343 0.303716 0.710531 0.457938
H1    H     H_    0.999997 0.881206 0.452946 0.179193
H2    H     H_    0.448691 0.664827 0.953196 0.209563
H3    H     H_    0.551309 0.664828 0.046804 0.209567
H4    H     H_    0.551320 0.664827 0.953200 0.208130
H5    H     H_    0.865084 0.266902 0.699705 0.160238
H6    H     H_    0.847672 0.249642 0.317238 0.158748
H7    H     H_    0.152522 0.249449 0.682622 0.158709
H8    H     H_    0.134885 0.266932 0.300254 0.160225
H9    H     H_    0.347507 0.749479 0.182642 0.158713
H10   H     H_    0.365085 0.766903 0.800294 0.160237
H11   H     H_    0.634873 0.766944 0.199760 0.160229
H12   H     H_    0.999997 0.881206 0.547053 0.179191
H13   H     H_    0.652509 0.749462 0.817368 0.158712
H14   H     H_    0.730902 0.138746 0.801549 0.177843
H15   H     H_    0.746023 0.153712 0.183731 0.176798
H16   H     H_    0.253802 0.153884 0.816396 0.176742
H17   H     H_    0.269124 0.138719 0.198486 0.177841
H18   H     H_    0.246171 0.653858 0.316378 0.176749
H19   H     H_    0.230902 0.638746 0.698451 0.177841
H20   H     H_    0.769135 0.638708 0.301501 0.177859
H21   H     H_    0.753814 0.653872 0.683612 0.176747
H22   H     H_    0.153199 0.747660 0.315702 0.184407
H23   H     H_    0.500000 0.381206 0.952946 0.179192
H24   H     H_    0.138175 0.732756 0.698913 0.185432
H25   H     H_    0.861863 0.732720 0.301040 0.185428
H26   H     H_    0.846787 0.747675 0.684288 0.184408
H27   H     H_    0.638175 0.232757 0.801087 0.185433
H28   H     H_    0.653054 0.247515 0.184407 0.184436
H29   H     H_    0.346776 0.247687 0.815720 0.184405
H30   H     H_    0.361852 0.232730 0.198948 0.185422
H31   H     H_    0.118119 0.999898 0.046786 0.170460
H32   H     H_    0.118119 0.999906 0.953215 0.168831
H33   H     H_    0.881881 0.999905 0.046785 0.168828
H34   H     H_    0.500000 0.381206 0.047053 0.179194
H35   H     H_    0.881881 0.999897 0.953214 0.170460
H36   H     H_    0.618119 0.499907 0.546785 0.168832
H37   H     H_    0.618119 0.499899 0.453214 0.170452
H38   H     H_    0.381881 0.499896 0.546786 0.170460
H39   H     H_    0.381881 0.499904 0.453214 0.168827
H40   H     H_    0.294618 0.848172 0.149301 0.324431
H41   H     H_    0.321995 0.875195 0.824236 0.325064
H42   H     H_    0.677941 0.875260 0.175850 0.325061
H43   H     H_    0.705409 0.848146 0.850715 0.324434
H44   H     H_    0.821995 0.375194 0.675764 0.325064
H45   H     H_    0.948695 0.164828 0.546804 0.209566
H46   H     H_    0.794883 0.348423 0.350514 0.324426
H47   H     H_    0.205430 0.348126 0.649270 0.324434
H48   H     H_    0.177959 0.375242 0.324173 0.325062
H49   H     H_    0.948684 0.164828 0.453200 0.208144
H50   H     H_    0.051324 0.164826 0.546799 0.208127
H51   H     H_    0.051313 0.164826 0.453196 0.209561
H52   H     H_    0.448679 0.664826 0.046799 0.208130
O1    O     O_3   0.000000 0.000010 0.249960 -0.493297
O2    O     O_R   0.414520 0.646190 0.219700 -0.651056
O3    O     O_R   0.585480 0.646190 0.780300 -0.651050
O4    O     O_R   0.585480 0.646190 0.219700 -0.650052
O5    O     O_R   0.085460 0.853840 0.280340 -0.663847
O6    O     O_R   0.085460 0.853840 0.719660 -0.663208
O7    O     O_R   0.914540 0.853840 0.280340 -0.663206
O8    O     O_R   0.914540 0.853840 0.719660 -0.663846
O9    O     O_R   0.585460 0.353840 0.780340 -0.663207
O10   O     O_R   0.585460 0.353840 0.219660 -0.663857
O11   O     O_R   0.414540 0.353840 0.780340 -0.663845
O12   O     O_3   0.000000 0.000010 0.750040 -0.493301
O13   O     O_R   0.414540 0.353840 0.219660 -0.663216
O14   O     O_R   0.853820 0.914550 0.219610 -0.572245
O15   O     O_R   0.853820 0.914550 0.780390 -0.573493
O16   O     O_R   0.146180 0.914550 0.219610 -0.573493
O17   O     O_R   0.146180 0.914550 0.780390 -0.572226
O18   O     O_R   0.353820 0.414550 0.719610 -0.573496
O19   O     O_R   0.353820 0.414550 0.280390 -0.572235
O20   O     O_R   0.646180 0.414550 0.719610 -0.572226
O21   O     O_R   0.646180 0.414550 0.280390 -0.573452
O22   O     O_R   0.146170 0.085440 0.219600 -0.646245
O23   O     O_3   0.500000 0.500010 0.749960 -0.493300
O24   O     O_R   0.146170 0.085440 0.780400 -0.641569
O25   O     O_R   0.853830 0.085440 0.219600 -0.641576
O26   O     O_R   0.853830 0.085440 0.780400 -0.646250
O27   O     O_R   0.646170 0.585440 0.719600 -0.641570
O28   O     O_R   0.646170 0.585440 0.280400 -0.646209
O29   O     O_R   0.353830 0.585440 0.719600 -0.646254
O30   O     O_R   0.353830 0.585440 0.280400 -0.641560
O31   O     O_R   0.939270 0.999980 0.134160 -0.645903
O32   O     O_R   0.939270 0.999980 0.865840 -0.640394
O33   O     O_R   0.060730 0.999980 0.134160 -0.640395
O34   O     O_3   0.500000 0.500010 0.250040 -0.493301
O35   O     O_R   0.060730 0.999980 0.865840 -0.645898
O36   O     O_R   0.439270 0.499980 0.634160 -0.640393
O37   O     O_R   0.439270 0.499980 0.365840 -0.645903
O38   O     O_R   0.560730 0.499980 0.634160 -0.645898
O39   O     O_R   0.560730 0.499980 0.365840 -0.640426
O40   O     O_R   1.000000 0.060760 0.365760 -0.643674
O41   O     O_R   0.000000 0.060760 0.634240 -0.643681
O42   O     O_R   0.500000 0.560760 0.865760 -0.643680
O43   O     O_R   0.500000 0.560760 0.134240 -0.643678
O44   O     O_R   0.000000 0.939310 0.365770 -0.648713
O45   O     O_R   0.914520 0.146190 0.280300 -0.651068
O46   O     O_R   1.000000 0.939310 0.634230 -0.648716
O47   O     O_R   0.500000 0.439310 0.865770 -0.648716
O48   O     O_R   0.500000 0.439310 0.134230 -0.648705
O49   O     O_3   0.252432 0.856376 0.172534 -0.747436
O50   O     O_3   0.273998 0.877660 0.806642 -0.746031
O51   O     O_3   0.725953 0.877711 0.193425 -0.746055
O52   O     O_3   0.747589 0.856356 0.827478 -0.747438
O53   O     O_3   0.773998 0.377660 0.693358 -0.746031
O54   O     O_3   0.752639 0.356573 0.327323 -0.747407
O55   O     O_3   0.247606 0.356340 0.672511 -0.747441
O56   O     O_R   0.914520 0.146190 0.719700 -0.650049
O57   O     O_3   0.225967 0.377697 0.306592 -0.746041
O58   O     O_R   0.085480 0.146190 0.280300 -0.650057
O59   O     O_R   0.085480 0.146190 0.719700 -0.651049
O60   O     O_R   0.414520 0.646190 0.780300 -0.650050
Zn1   Zn    Zn3+2 0.000000 0.913260 0.293350 0.958606
Zn2   Zn    Zn3+2 0.413230 0.500000 0.293420 1.002966
Zn3   Zn    Zn3+2 0.586770 0.500000 0.706580 1.002982
Zn4   Zn    Zn3+2 0.586770 0.500000 0.293420 1.001472
Zn5   Zn    Zn3+2 1.000000 0.086780 0.293330 0.957599
Zn6   Zn    Zn3+2 1.000000 0.086780 0.706670 0.957601
Zn7   Zn    Zn3+2 0.500000 0.586780 0.793330 0.957600
Zn8   Zn    Zn3+2 0.500000 0.586780 0.206670 0.957610
Zn9   Zn    Zn3+2 1.000000 0.913260 0.706650 0.958604
Zn10  Zn    Zn3+2 0.500000 0.413260 0.793350 0.958605
Zn11  Zn    Zn3+2 0.500000 0.413260 0.206650 0.958593
Zn12  Zn    Zn3+2 0.913230 0.000000 0.206580 1.002974
Zn13  Zn    Zn3+2 0.913230 0.000000 0.793420 1.001464
Zn14  Zn    Zn3+2 0.086770 0.000000 0.206580 1.001463
Zn15  Zn    Zn3+2 0.086770 0.000000 0.793420 1.002982
Zn16  Zn    Zn3+2 0.413230 0.500000 0.706580 1.001462

loop_
_geom_bond_atom_site_label_1
_geom_bond_atom_site_label_2
_ccdc_geom_bond_type
C3    O57   S    
C48   C55   A    
C83   C87   A    
O34   Zn11  S    
C74   O42   A    
O7    Zn1   S    
C73   O41   A    
C48   H33   S    
C22   H17   S    
C41   C63   S    
C44   C66   S    
C1    C11   S    
C74   C83   S    
H46   O54   S    
C68   O3    A    
C24   O22   A    
C23   H18   S    
O1    Zn1   S    
C27   H21   S    
C75   O48   A    
C95   O50   S    
C89   H45   S    
C87   H23   S    
C77   C89   S    
O58   Zn5   S    
C17   C26   A    
O32   Zn13  S    
C32   H27   S    
C74   O47   A    
C60   O6    A    
C61   O14   A    
C76   C81   A    
O18   Zn16  S    
C61   O7    A    
O16   Zn14  S    
C28   H22   S    
C75   C84   S    
O15   Zn13  S    
C19   C32   A    
C78   C93   S    
C18   C68   S    
C13   O26   A    
C29   H24   S    
C17   C79   S    
C40   C62   S    
C31   C40   A    
C79   O28   A    
C51   C56   A    
C14   C24   S    
O24   Zn15  S    
C35   O59   A    
C57   O30   A    
O26   Zn13  S    
C77   C82   A    
C92   H3    S    
C6    C15   A    
O19   Zn2   S    
C1    O25   A    
O12   Zn9   S    
C34   H29   S    
O31   Zn12  S    
C6    C94   A    
C8    C96   A    
C38   C95   A    
C92   H52   S    
C52   H38   S    
C32   C41   A    
O17   Zn15  S    
C98   O53   S    
O3    Zn7   S    
O12   Zn13  S    
C4    C12   A    
O20   Zn3   S    
O38   Zn3   S    
C69   O35   A    
O1    Zn5   S    
C72   C81   S    
C80   C84   A    
C53   C56   A    
C15   C23   A    
C62   O15   A    
C79   O4    A    
C30   H25   S    
C49   C54   A    
O9    Zn10  S    
C25   C29   A    
C15   C57   S    
O40   Zn5   S    
C21   H16   S    
O45   Zn5   S    
C2    C11   A    
C25   H19   S    
C93   H4    S    
O43   Zn8   S    
C100  O55   S    
O8    Zn9   S    
H48   O57   S    
C45   C47   A    
O29   Zn16  S    
O56   Zn6   S    
O41   Zn6   S    
C39   C61   S    
C4    H7    S    
C11   C20   A    
C18   C27   A    
C99   O54   S    
C27   C31   A    
C50   C58   A    
C66   O19   A    
O28   Zn4   S    
O21   Zn4   S    
C43   C100  A    
O1    Zn12  S    
C64   O10   A    
C8    H11   S    
O14   Zn12  S    
C40   C97   A    
C91   H49   S    
C24   O58   A    
O46   Zn9   S    
C58   C70   S    
C21   C34   A    
C76   C91   S    
C19   H14   S    
O36   Zn16  S    
C85   C86   A    
C52   C58   A    
O34   Zn8   S    
C12   C21   A    
C2    H6    S    
C33   H28   S    
C71   O37   A    
O23   Zn16  S    
O34   Zn4   S    
O23   Zn3   S    
C80   C92   S    
C86   H12   S    
C72   O44   A    
C36   H30   S    
O39   Zn4   S    
O35   Zn15  S    
O1    Zn14  S    
C10   C19   A    
C43   C65   S    
C56   C71   S    
C73   O46   A    
C65   O11   A    
C50   C51   A    
C13   O56   A    
O4    Zn8   S    
C94   O49   S    
C23   C28   A    
C76   C77   A    
C12   C35   S    
H47   O55   S    
C10   C90   A    
C5    C14   A    
C37   C59   S    
C67   O31   A    
C46   O60   A    
C47   C54   A    
C38   C60   S    
C20   C33   A    
C51   H37   S    
C37   C94   A    
C7    C16   A    
C2    C99   A    
C45   H31   S    
O6    Zn9   S    
C3    C44   A    
C4    C100  A    
C6    H9    S    
C62   O8    A    
C36   C44   A    
C89   C91   S    
C35   O24   A    
C97   O52   S    
C16   C46   S    
C42   C64   S    
C73   C82   S    
C85   H1    S    
C52   C53   A    
C70   O38   A    
C96   O51   S    
H44   O53   S    
O11   Zn10  S    
O12   Zn6   S    
C16   C25   A    
C63   O9    A    
O59   Zn6   S    
C33   C42   A    
C89   H50   S    
C9    C97   A    
C66   O13   A    
C46   O29   A    
C53   H39   S    
O48   Zn11  S    
O23   Zn7   S    
C29   C38   A    
C1    O45   A    
C34   C43   A    
C84   C88   A    
C90   H5    S    
C26   H20   S    
C3    C5    A    
C10   C13   S    
C93   H2    S    
C78   C83   A    
C20   H15   S    
C55   C67   S    
C7    C95   A    
C26   C30   A    
O42   Zn7   S    
O60   Zn7   S    
C70   O36   A    
C22   C36   A    
C57   O2    A    
C47   H32   S    
C68   O27   A    
O5    Zn1   S    
C8    C17   A    
C7    H10   S    
C65   O18   A    
C9    H13   S    
H42   O51   S    
C14   C22   A    
O22   Zn14  S    
C88   H34   S    
C82   C86   A    
C42   C99   A    
C91   H51   S    
O44   Zn1   S    
C59   O5    A    
C63   O20   A    
C54   C69   S    
C28   C37   A    
O13   Zn11  S    
C48   C49   A    
O33   Zn14  S    
O34   Zn2   S    
C92   C93   S    
O23   Zn10  S    
C72   O40   A    
C30   C39   A    
H43   O52   S    
O12   Zn15  S    
C78   C80   A    
O25   Zn12  S    
C49   H35   S    
C39   C96   A    
O37   Zn2   S    
C69   O32   A    
O47   Zn10  S    
C9    C18   A    
O10   Zn11  S    
C45   C55   A    
C87   C88   A    
O27   Zn3   S    
H41   O50   S    
O30   Zn2   S    
C60   O17   A    
C41   C98   A    
C50   H36   S    
C31   H26   S    
C71   O39   A    
C64   O21   A    
H40   O49   S    
O2    Zn8   S    
C90   C98   A    
C81   C85   A    
C59   O16   A    
C67   O33   A    
C5    H8    S    
C75   O43   A    
