data_mof_unit_10533.cif
_audit_creation_date              2013-03-05T16:07:36-0500
_audit_creation_method            fapswitch 2.2
_symmetry_space_group_name_H-M    P1
_symmetry_Int_Tables_number       1
_space_group_crystal_system       triclinic
_cell_length_a                    21.629315
_cell_length_b                    7.05969
_cell_length_c                    14.86814
_cell_angle_alpha                 89.39021
_cell_angle_beta                  106.405293
_cell_angle_gamma                 89.889153
_cell_volume                      2177.72803629

loop_
_atom_site_label
_atom_site_type_symbol
_atom_site_description
_atom_site_fract_x
_atom_site_fract_y
_atom_site_fract_z
_atom_type_partial_charge
O1    O     O_R   0.585850 0.505770 0.002130 -0.596276
O2    O     O_R   0.414150 0.005770 0.997870 -0.585484
O3    O     O_R   0.467530 0.173560 0.861970 -0.577058
O4    O     O_R   0.532470 0.673560 0.138030 -0.582464
C1    C     C_R   0.455597 0.345398 0.825289 0.918139
C2    C     C_R   0.544645 0.842931 0.174986 0.927967
O5    O     O_R   0.588690 0.175900 0.993250 -0.598881
O6    O     O_R   0.411310 0.675900 0.006750 -0.607200
O7    O     O_R   0.536170 0.007950 0.130090 -0.594771
O8    O     O_R   0.463830 0.507950 0.869910 -0.589425
C3    C     C_R   0.615013 0.344674 0.997713 0.982987
C4    C     C_R   0.384940 0.844610 0.002114 0.983943
O9    O     O_3   0.482630 0.339970 0.044740 -0.285519
O10   O     O_3   0.517370 0.839970 0.955260 -0.282917
V1    V     V_3+5 0.503220 0.064200 0.991700 1.182140
V2    V     V_3+5 0.496780 0.564200 0.008300 1.175571
C5    C     C_R   0.296456 0.951468 0.069508 0.136929
C6    C     C_R   0.722885 0.505178 0.041211 0.280779
C7    C     C_R   0.316547 0.850907 0.002237 -0.251362
C8    C     C_R   0.683859 0.353215 0.000053 -0.302047
C9    C     C_R   0.269435 0.744281 0.937715 -0.247643
C10   C     C_R   0.712395 0.208588 0.960908 -0.325331
H1    H     H_    0.283387 0.661727 0.885534 0.161332
H2    H     H_    0.683585 0.090439 0.927012 0.162385
C11   C     C_R   0.203183 0.755032 0.935081 0.617018
C12   C     C_R   0.776589 0.223795 0.956427 0.669347
C13   C     C_R   0.183497 0.875896 0.997724 -0.372179
C14   C     C_R   0.815730 0.377487 0.999228 -0.424838
C15   C     C_R   0.232129 0.962045 0.067980 0.107918
C16   C     C_R   0.787505 0.515910 0.041940 0.111075
C17   C     C_3   0.239440 0.158668 0.105286 -0.457427
C18   C     C_3   0.782015 0.723128 0.020379 -0.374712
C19   C     C_3   0.309990 0.147561 0.105885 -0.448403
C20   C     C_3   0.711959 0.711458 0.019742 -0.443316
H3    H     H_    0.232940 0.165089 0.176719 0.179261
H4    H     H_    0.788329 0.755434 0.950240 0.214851
H5    H     H_    0.211229 0.264661 0.054622 0.183836
H6    H     H_    0.812116 0.808598 0.078685 0.244095
H7    H     H_    0.343918 0.149247 0.177667 0.176955
H8    H     H_    0.677824 0.738982 0.949349 0.170436
H9    H     H_    0.322087 0.245758 0.054409 0.207359
H10   H     H_    0.701019 0.789777 0.077833 0.250501
C21   C     C_R   0.928579 0.889594 0.722683 -0.107912
C22   C     C_R   0.073539 0.376663 0.276367 -0.085888
C23   C     C_R   0.572718 0.840546 0.276951 -0.122872
C24   C     C_R   0.428060 0.354604 0.723728 -0.104897
C25   C     C_R   0.936251 0.971228 0.568259 -0.126422
C26   C     C_R   0.063179 0.301622 0.430005 -0.122169
C27   C     C_R   0.963547 0.964305 0.664897 -0.152603
C28   C     C_R   0.034866 0.339068 0.335181 -0.167429
C29   C     C_R   0.865685 0.825025 0.683692 -0.254174
C30   C     C_R   0.140622 0.380397 0.312624 -0.231562
C31   C     C_R   0.834871 0.845242 0.586351 0.107664
C32   C     C_R   0.170809 0.339614 0.408548 0.111256
C33   C     C_R   0.872291 0.913838 0.528727 0.120122
C34   C     C_R   0.130576 0.298267 0.466747 0.120587
C35   C     C_R   0.768097 0.805503 0.544866 0.044692
C36   C     C_R   0.239205 0.337014 0.448248 0.048100
C37   C     C_R   0.740428 0.831636 0.445788 -0.112203
C38   C     C_R   0.265948 0.297629 0.546262 -0.106066
C39   C     C_R   0.782926 0.866558 0.389553 0.357749
C40   C     C_R   0.224179 0.229153 0.598275 0.336948
C41   C     C_R   0.846585 0.918898 0.431797 -0.332972
C42   C     C_R   0.157517 0.241986 0.559675 -0.322864
C43   C     C_R   0.727912 0.742856 0.599360 -0.179791
C44   C     C_R   0.281897 0.369207 0.393027 -0.164202
C45   C     C_R   0.662730 0.711518 0.559536 -0.236040
C46   C     C_R   0.348164 0.371638 0.432581 -0.232098
C47   C     C_R   0.634028 0.751243 0.465104 0.192907
C48   C     C_R   0.374402 0.355465 0.529205 0.190141
C49   C     C_R   0.671684 0.819750 0.407541 0.132633
C50   C     C_R   0.333496 0.326552 0.587727 0.137265
C51   C     C_R   0.567496 0.723646 0.427858 -0.183201
C52   C     C_R   0.441296 0.373117 0.568148 -0.175556
C53   C     C_R   0.537577 0.761827 0.333635 -0.165126
C54   C     C_R   0.468086 0.369149 0.665038 -0.176626
C55   C     C_R   0.638376 0.878918 0.315011 -0.166444
C56   C     C_R   0.361385 0.339440 0.685586 -0.130924
H11   H     H_    0.877535 0.953997 0.388017 0.179963
H12   H     H_    0.126195 0.194831 0.600903 0.174323
H13   H     H_    0.662305 0.951333 0.270222 0.153495
H14   H     H_    0.332179 0.342972 0.733642 0.134437
H15   H     H_    0.487039 0.728242 0.304521 0.108484
H16   H     H_    0.519833 0.380207 0.694265 0.101816
H17   H     H_    0.634083 0.660502 0.603939 0.125874
H18   H     H_    0.379025 0.394353 0.387313 0.126237
H19   H     H_    0.964841 0.024495 0.524353 0.112120
H20   H     H_    0.032339 0.269863 0.474268 0.112163
H21   H     H_    0.012214 0.015190 0.694610 0.127082
H22   H     H_    0.982898 0.334113 0.307198 0.119943
H23   H     H_    0.841724 0.766805 0.732032 0.109447
H24   H     H_    0.167465 0.411265 0.263313 0.093984
H25   H     H_    0.745185 0.715301 0.673575 0.120883
H26   H     H_    0.265921 0.390506 0.318268 0.120588
H27   H     H_    0.538897 0.667375 0.471140 0.116875
H28   H     H_    0.472832 0.391019 0.523561 0.114645
O11   O     O_R   0.036080 0.231270 0.130120 -0.595006
O12   O     O_R   0.963920 0.731270 0.869880 -0.589937
O13   O     O_R   0.911300 0.558970 0.006750 -0.600299
O14   O     O_R   0.088700 0.058970 0.993250 -0.610085
C57   C     C_R   0.884432 0.390296 0.999807 0.995294
C58   C     C_R   0.114994 0.889705 0.997379 1.005583
O15   O     O_R   0.032450 0.561140 0.138040 -0.593598
O16   O     O_R   0.967550 0.061140 0.861960 -0.593760
O17   O     O_R   0.085870 0.728910 0.002130 -0.595830
O18   O     O_R   0.914130 0.228910 0.997870 -0.546980
C59   C     C_R   0.044844 0.391264 0.175073 0.917287
C60   C     C_R   0.955523 0.893516 0.824677 0.966769
O19   O     O_3   0.017320 0.394650 0.955270 -0.297220
O20   O     O_3   0.982680 0.894650 0.044730 -0.270987
V3    V     V_3+5 0.996780 0.670490 0.008300 1.181963
V4    V     V_3+5 0.003220 0.170490 0.991700 1.180552
N1    N     N_R   0.765774 0.824771 0.291414 0.217843
O21   O     O_R   0.739100 0.663366 0.261866 -0.432353
O22   O     O_R   0.785861 0.932976 0.234154 -0.450415
N2    N     N_R   0.247673 0.120488 0.683587 0.227479
O23   O     O_R   0.290915 0.988938 0.689284 -0.406091
O24   O     O_R   0.218774 0.130520 0.749230 -0.435499
O25   O     O_3   0.157028 0.673663 0.861779 -0.621723
C61   C     C_3   0.158226 0.475602 0.874998 -0.135625
H29   H     H_    0.123840 0.411385 0.813030 0.181618
H30   H     H_    0.141876 0.437644 0.937194 0.137146
H31   H     H_    0.206545 0.413124 0.881230 0.139879
O26   O     O_3   0.799174 0.095306 0.903727 -0.624894
C62   C     C_3   0.778627 0.156176 0.809202 -0.285452
H32   H     H_    0.798307 0.058232 0.766705 0.176286
H33   H     H_    0.797024 0.300273 0.799965 0.130939
H34   H     H_    0.725172 0.152697 0.781278 0.137164

loop_
_geom_bond_atom_site_label_1
_geom_bond_atom_site_label_2
_geom_bond_distance
_ccdc_geom_bond_type
C44   C46   1.387355 A    
C2    C23   1.465172 S    
C13   C15   1.400999 A    
C5    C15   1.386969 A    
O1    C3    1.310653 A    
O16   C60   1.307294 A    
O2    C4    1.312008 A    
C54   H16   1.083512 S    
C2    O7    1.322830 A    
C24   C54   1.395228 A    
O12   C60   1.307859 A    
C25   C27   1.390921 A    
C41   H11   1.084707 S    
O5    C3    1.315740 A    
C36   C44   1.415438 A    
C19   H7    1.111581 S    
C52   C54   1.392613 A    
C20   H8    1.112153 S    
C18   H4    1.110702 S    
O15   V3    2.009363 S    
C7    C9    1.411186 A    
O19   V3    2.199633 S    
C35   C37   1.434590 A    
C38   C50   1.432279 A    
C36   C38   1.431849 A    
C46   H18   1.084505 S    
N2    O23   1.301797 A    
C58   O17   1.310193 A    
C38   C40   1.426989 A    
C39   C41   1.394741 A    
O20   V3    1.732162 S    
C50   C56   1.412937 A    
C29   H23   1.076592 S    
C14   C57   1.486504 S    
C28   H22   1.083545 S    
C61   H30   1.109880 S    
C20   H10   1.110297 S    
C43   C45   1.385514 A    
C33   C41   1.390538 A    
C48   C52   1.404716 A    
C62   H34   1.113089 S    
C40   C42   1.395519 A    
C17   C19   1.525314 S    
C47   C51   1.403109 A    
C6    C16   1.396883 A    
C18   H6    1.110555 S    
C6    C8    1.401283 A    
C61   H31   1.112664 S    
C44   H26   1.075538 S    
C22   C30   1.398287 A    
C26   C28   1.391526 A    
O17   V3    1.998449 S    
C25   C33   1.404057 A    
C47   C49   1.419938 A    
O6    V2    2.002451 S    
C42   H12   1.084738 S    
C12   O26   1.380222 S    
C11   O25   1.383971 S    
O14   C58   1.315762 A    
C30   C32   1.416968 A    
C31   C33   1.417036 A    
C32   C34   1.418512 A    
C3    C8    1.481020 S    
C37   C39   1.426671 A    
C45   H17   1.084590 S    
C53   H15   1.083691 S    
C52   H28   1.083839 S    
O4    C2    1.316988 A    
O19   V4    1.722680 S    
C27   H21   1.083690 S    
O16   V4    2.026215 S    
O11   V4    2.029425 S    
C31   C35   1.430780 A    
C21   C27   1.395494 A    
O18   V4    1.997313 S    
C48   C50   1.418913 A    
C17   H5    1.107379 S    
C45   C47   1.390667 A    
C18   C20   1.515047 S    
O4    V2    2.026166 S    
C40   N2    1.438522 S    
C56   H14   1.079577 S    
C55   H13   1.077574 S    
O6    C4    1.312277 A    
O13   V3    2.005156 S    
C26   H20   1.083403 S    
C5    C19   1.490879 S    
O1    V2    1.996905 S    
O2    V1    1.998041 S    
C6    C20   1.491522 S    
O13   C57   1.318241 A    
C8    C10   1.405456 A    
O14   V4    2.002152 S    
C9    H1    1.083431 S    
C39   N1    1.434431 S    
C62   H32   1.103901 S    
C17   H3    1.111376 S    
C30   H24   1.076879 S    
C51   C53   1.390401 A    
C49   C55   1.418767 A    
O3    V1    2.009312 S    
C61   H29   1.109371 S    
C24   C56   1.397402 A    
N1    O21   1.301641 A    
C32   C36   1.429579 A    
C22   C59   1.460303 S    
C22   C28   1.394223 A    
C57   O18   1.311422 A    
C26   C34   1.404922 A    
C9    C11   1.424272 A    
O12   V3    2.019557 S    
C35   C43   1.413938 A    
O3    C1    1.319439 A    
O15   C59   1.309429 A    
O25   C61   1.409084 S    
C11   C13   1.419999 A    
C1    C24   1.459066 S    
C13   C58   1.483236 S    
C12   C14   1.418766 A    
C23   C53   1.396553 A    
C19   H9    1.112354 S    
C14   C16   1.400294 A    
O7    V1    2.013089 S    
C1    O8    1.318715 A    
C15   C17   1.492376 S    
O8    V2    2.022253 S    
C16   C18   1.491568 S    
C21   C29   1.398912 A    
C34   C42   1.392505 A    
C4    C7    1.480391 S    
O5    V1    2.005459 S    
C43   H25   1.075771 S    
C5    C7    1.397376 A    
N2    O24   1.301604 A    
C10   H2    1.082406 S    
C21   C60   1.463494 S    
O20   V4    2.186257 S    
O11   C59   1.305284 A    
C46   C48   1.390935 A    
C10   C12   1.412967 A    
O9    V2    1.723474 S    
C62   H33   1.114227 S    
C51   H27   1.083934 S    
O10   V1    1.732953 S    
C23   C55   1.400431 A    
C29   C31   1.417593 A    
C37   C49   1.437060 A    
O26   C62   1.411017 S    
N1    O22   1.301326 A    
C25   H19   1.083361 S    
