data_mof_unit_33513.cif
_audit_creation_date              2012-10-26T21:02:37-0400
_audit_creation_method            fapswitch 2.2
_symmetry_space_group_name_H-M    P1
_symmetry_Int_Tables_number       1
_space_group_crystal_system       triclinic
_cell_length_a                    12.33394
_cell_length_b                    13.159382
_cell_length_c                    15.060526
_cell_angle_alpha                 78.031916
_cell_angle_beta                  101.30071
_cell_angle_gamma                 116.365055
_cell_volume                      2127.46219089

loop_
_atom_site_label
_atom_site_type_symbol
_atom_type_description
_atom_site_fract_x
_atom_site_fract_y
_atom_site_fract_z
_atom_type_partial_charge
C1    C     C_R   0.854766 0.286477 0.509747 0.511773
C2    C     C_R   0.038452 0.426978 0.832334 -0.131548
C3    C     C_R   0.999688 0.500418 0.767249 -0.003505
C4    C     C_R   0.999629 0.500080 0.670868 0.538241
C5    C     C_R   0.964982 0.576116 0.794461 -0.128625
C6    C     C_R   0.273328 0.025440 0.394404 -0.146968
C7    C     C_R   0.227984 0.834774 0.474132 -0.005822
C8    C     C_R   0.815692 0.086303 0.572439 -0.144239
C9    C     C_R   0.737440 0.972015 0.592007 -0.143951
C10   C     C_R   0.613959 0.933893 0.560812 -0.123607
C11   C     C_R   0.566227 0.009433 0.505498 0.023790
C12   C     C_R   0.981269 0.584989 0.074382 0.004537
C13   C     C_R   0.648870 0.123373 0.477546 0.009690
C14   C     C_R   0.439357 0.976114 0.477221 0.019381
C15   C     C_R   0.398263 0.055042 0.419107 0.044050
C16   C     C_R   0.144978 0.713393 0.488250 0.542230
C17   C     C_R   0.482193 0.161489 0.384216 -0.145525
C18   C     C_R   0.605644 0.193650 0.410514 -0.134498
C19   C     C_R   0.351566 0.866726 0.504901 -0.141702
C20   C     C_R   0.188477 0.915895 0.422522 -0.148134
C21   C     C_R   0.772485 0.163620 0.517396 -0.018062
C22   C     C_R   0.346129 0.327497 0.645515 -0.132454
C23   C     C_R   0.078081 0.351849 0.082815 -0.122874
C24   C     C_R   0.757204 0.645514 0.375703 0.446240
C25   C     C_R   0.652163 0.666835 0.346094 -0.148596
C26   C     C_R   0.550583 0.610164 0.392461 -0.167958
C27   C     C_R   0.548194 0.528592 0.469213 -0.032621
C28   C     C_R   0.000304 0.498998 0.329043 0.594864
C29   C     C_R   0.652407 0.503144 0.494870 0.085198
C30   C     C_R   0.445343 0.470914 0.520529 -0.044734
C31   C     C_R   0.446117 0.385056 0.594744 0.048562
C32   C     C_R   0.546135 0.357079 0.617400 0.234055
C33   C     C_R   0.647850 0.417646 0.569638 -0.079671
C34   C     C_R   0.078663 0.353358 0.990285 -0.147626
C35   C     C_R   0.341219 0.495576 0.501962 0.057287
C36   C     C_R   0.246951 0.355405 0.623423 0.023097
C37   C     C_R   0.990610 0.589202 0.167889 0.216537
C38   C     C_R   0.004450 0.500290 0.232309 0.000121
C39   C     C_R   0.027111 0.416008 0.204635 0.207983
C40   C     C_R   0.038198 0.423299 0.111810 -0.003822
C41   C     C_R   0.007532 0.503235 0.046479 -0.027883
C42   C     C_3   0.118221 0.762144 0.210590 -0.109147
C43   C     C_3   0.539830 0.178293 0.661666 -0.124391
C44   C     C_3   0.952421 0.221289 0.255064 -0.025369
C45   C     C_R   0.040648 0.427025 0.925072 0.020412
C46   C     C_3   0.875930 0.171173 0.333732 -0.358523
C47   C     C_3   0.873497 0.810089 0.281651 -0.112502
C48   C     C_R   0.005894 0.503135 0.952945 0.070173
C49   C     C_R   0.970235 0.579584 0.887270 0.020468
C50   C     C_R   0.942170 0.659061 0.915536 -0.147345
C51   C     C_R   0.949880 0.663231 0.008398 -0.110721
Cu1   Cu    Cu3+1 0.098270 0.475420 0.521130 0.947290
Cu2   Cu    Cu3+1 0.901730 0.524580 0.478870 0.992610
H1    H     H_    0.452373 0.219993 0.335650 0.115230
H2    H     H_    0.333472 0.560453 0.447755 0.123769
H3    H     H_    0.474640 0.631685 0.365671 0.107948
H4    H     H_    0.646682 0.727438 0.286761 0.087972
H5    H     H_    0.721652 0.394604 0.594566 0.194243
H6    H     H_    0.109252 0.294516 0.131306 0.136502
H7    H     H_    0.108151 0.296320 0.969713 0.104227
H8    H     H_    0.065496 0.368822 0.810611 0.112957
H9    H     H_    0.937252 0.634219 0.743501 0.120755
H10   H     H_    0.915867 0.718991 0.865854 0.105403
H11   H     H_    0.929239 0.726593 0.028394 0.153219
H12   H     H_    0.241479 0.086116 0.351449 0.108082
H13   H     H_    0.092814 0.893389 0.401079 0.141039
H14   H     H_    0.167843 0.728228 0.270060 0.118668
H15   H     H_    0.124158 0.843305 0.225730 0.126020
H16   H     H_    0.164802 0.783911 0.148442 0.101967
H17   H     H_    0.626861 0.194401 0.638546 0.130569
H18   H     H_    0.462742 0.148218 0.606552 0.130053
H19   H     H_    0.522248 0.107996 0.719813 0.143490
H20   H     H_    0.996670 0.164517 0.253153 0.127557
H21   H     H_    0.889740 0.219110 0.190260 0.117773
H22   H     H_    0.828080 0.224954 0.334803 0.142492
H23   H     H_    0.376620 0.803199 0.549074 0.122775
H24   H     H_    0.807242 0.082779 0.324867 0.093872
H25   H     H_    0.935277 0.168659 0.399125 0.180281
H26   H     H_    0.855799 0.862237 0.321776 0.074226
H27   H     H_    0.813776 0.797780 0.215515 0.121785
H28   H     H_    0.967643 0.860261 0.264519 0.132959
H29   H     H_    0.909991 0.114720 0.602323 0.125458
H30   H     H_    0.559261 0.844513 0.580857 0.104822
H31   H     H_    0.772039 0.913056 0.634319 0.116126
H32   H     H_    0.666042 0.273792 0.375982 0.150593
H33   H     H_    0.169920 0.310783 0.662317 0.114890
H34   H     H_    0.344036 0.260979 0.702135 0.146253
N1    N     N_R   0.246280 0.438190 0.553160 -0.231352
N2    N     N_R   0.754320 0.561190 0.447410 -0.228506
O1    O     O_R   0.972510 0.318130 0.526570 -0.503831
O2    O     O_3   0.548715 0.276324 0.692268 -0.580018
O3    O     O_3   0.044918 0.331427 0.269854 -0.544188
O4    O     O_3   0.862644 0.703270 0.332197 -0.483218
O5    O     O_R   0.806530 0.359650 0.490890 -0.546035
O6    O     O_R   0.082980 0.479210 0.647590 -0.507232
O7    O     O_R   0.917000 0.520730 0.611900 -0.531189
O8    O     O_R   0.193470 0.640350 0.509110 -0.524825
O9    O     O_R   0.027490 0.681870 0.473430 -0.454805
O10   O     O_R   0.083000 0.479270 0.388100 -0.475540
O11   O     O_R   0.917020 0.520790 0.352410 -0.432539
O12   O     O_3   0.994400 0.684146 0.196578 -0.536861

loop_
_geom_bond_atom_site_label_1
_geom_bond_atom_site_label_2
_ccdc_geom_bond_type
C42   H15   S    
C1    C21   S    
C33   H5    S    
C27   C29   A    
Cu1   O8    S    
Cu1   O1    S    
C47   H26   S    
C24   N2    A    
C29   N2    A    
C36   N1    A    
C23   H6    S    
C26   C27   A    
C37   C38   A    
C30   C35   A    
C8    H29   S    
C20   H13   S    
C19   H23   S    
C30   C31   A    
C11   C14   A    
C16   O8    A    
C32   O2    S    
C23   C40   A    
C29   C33   A    
C10   H30   S    
Cu1   O6    S    
C12   C37   A    
C6    C15   A    
C4    O7    A    
C6    H12   S    
C1    O5    A    
C9    C10   A    
C44   O3    S    
C2    H8    S    
C28   O11   A    
C2    C45   A    
Cu2   O7    S    
C34   H7    S    
C50   H10   S    
C5    C49   A    
C25   H4    S    
C47   H27   S    
C46   H22   S    
C44   C46   S    
C50   C51   A    
Cu2   O11   S    
C18   H32   S    
C22   C31   A    
C35   H2    S    
Cu1   N1    S    
C24   C25   A    
C1    O1    A    
C39   C40   A    
C46   H25   S    
C8    C9    A    
C36   H33   S    
C25   C26   A    
C42   H16   S    
C43   O2    S    
C26   H3    S    
C12   C41   A    
C4    O6    A    
C35   N1    A    
C31   C32   A    
C28   C38   S    
C23   C34   A    
C17   C18   A    
C47   O4    S    
C13   C21   A    
C34   C45   A    
C22   H34   S    
C44   H21   S    
C13   C18   A    
C28   O10   A    
C7    C16   S    
C49   C50   A    
C43   H17   S    
C7    C19   A    
Cu2   N2    S    
C42   H14   S    
C3    C4    S    
C42   O12   S    
C39   O3    S    
C12   C51   A    
C6    C20   A    
Cu1   Cu2   S    
C45   C48   A    
C15   C17   A    
C43   H19   S    
C40   C41   A    
C43   H18   S    
Cu2   O5    S    
C14   C19   A    
C51   H11   S    
C3    C5    A    
C8    C21   A    
C46   H24   S    
Cu2   O9    S    
C22   C36   A    
Cu1   O10   S    
C32   C33   A    
C2    C3    A    
C24   O4    S    
C37   O12   S    
C11   C13   A    
C16   O9    A    
C38   C39   A    
C48   C49   A    
C41   C48   A    
C5    H9    S    
C47   H28   S    
C44   H20   S    
C10   C11   A    
C9    H31   S    
C7    C20   A    
C14   C15   A    
C17   H1    S    
C27   C30   A    
