data_mof_unit_8750.cif
_audit_creation_date              2012-12-10T20:31:51-0500
_audit_creation_method            fapswitch 2.2
_symmetry_space_group_name_H-M    P1
_symmetry_Int_Tables_number       1
_space_group_crystal_system       triclinic
_cell_length_a                    9.874736
_cell_length_b                    10.693877
_cell_length_c                    15.51469
_cell_angle_alpha                 90.170275
_cell_angle_beta                  68.372872
_cell_angle_gamma                 89.774224
_cell_volume                      1522.97431536

loop_
_atom_site_label
_atom_site_type_symbol
_atom_type_description
_atom_site_fract_x
_atom_site_fract_y
_atom_site_fract_z
_atom_type_partial_charge
C1    C     C_R   0.501541 0.740090 0.497320 0.888662
C2    C     C_R   0.426124 0.439396 0.907251 0.099761
C3    C     C_R   0.286906 0.389022 0.956754 0.174360
C4    C     C_R   0.534147 0.440951 0.946816 0.069992
C5    C     C_R   0.493220 0.415546 0.042273 0.068838
C6    C     C_R   0.353010 0.365367 0.090956 -0.217750
C7    C     C_R   0.252816 0.349897 0.047893 -0.236051
C8    C     C_R   0.682194 0.465102 0.893417 -0.223052
C9    C     C_R   0.783559 0.480828 0.934952 -0.240505
C10   C     C_R   0.739554 0.475758 0.030929 0.176948
C11   C     C_R   0.593843 0.443055 0.085411 0.094592
C12   C     C_R   0.409120 0.497616 0.675840 0.868401
C13   C     C_R   0.838338 0.506533 0.073392 -0.215063
C14   C     C_R   0.792179 0.511086 0.169604 -0.195553
C15   C     C_R   0.550126 0.449228 0.181674 -0.245213
C16   C     C_R   0.405351 0.936546 0.462209 0.122243
C17   C     C_R   0.512121 0.871475 0.482696 -0.130267
C18   C     C_R   0.634959 0.935014 0.484731 -0.207409
C19   C     C_R   0.635786 0.063990 0.484094 -0.206187
C20   C     C_R   0.513085 0.128626 0.482218 -0.099547
C21   C     C_R   0.405515 0.064438 0.462416 0.080482
C22   C     C_3   0.243092 0.073186 0.505159 -0.519103
C23   C     C_R   0.502118 0.259987 0.497096 0.883107
C24   C     C_3   0.242485 0.930906 0.505227 -0.213017
C25   C     C_R   0.906923 0.598132 0.537452 0.243315
C26   C     C_R   0.954773 0.409753 0.454548 -0.137108
C27   C     C_R   0.098898 0.410071 0.454212 -0.122943
C28   C     C_R   0.048868 0.597363 0.538305 0.264434
C29   C     C_3   0.996946 0.639141 0.636865 -0.529004
C30   C     C_3   0.844191 0.641444 0.635540 -0.504044
C31   C     C_R   0.590686 0.497650 0.324305 0.879372
C32   C     C_R   0.354832 0.474746 0.775569 -0.055935
C33   C     C_R   0.646699 0.485740 0.223668 -0.056000
C34   C     C_R   0.184375 0.378682 0.913895 -0.222267
C35   C     C_R   0.219343 0.419303 0.822717 -0.208234
C36   C     C_R   0.452327 0.490703 0.820254 -0.252616
H1    H     H_    0.147153 0.310062 0.086778 0.152155
H2    H     H_    0.949619 0.531615 0.032308 0.151786
H3    H     H_    0.724674 0.886383 0.494275 0.195865
H4    H     H_    0.726580 0.111825 0.492651 0.184287
H5    H     H_    0.204015 0.114517 0.576058 0.206861
H6    H     H_    0.196082 0.116540 0.457296 0.201952
H7    H     H_    0.202424 0.890734 0.576069 0.121894
H8    H     H_    0.921285 0.335552 0.419339 0.148790
H9    H     H_    0.174229 0.336628 0.418250 0.141999
H10   H     H_    0.012680 0.566633 0.683635 0.206445
H11   H     H_    0.438461 0.432320 0.225449 0.158963
H12   H     H_    0.037013 0.733433 0.645053 0.203692
H13   H     H_    0.772662 0.570201 0.681031 0.203016
H14   H     H_    0.796613 0.737002 0.642081 0.218327
H15   H     H_    0.868545 0.538284 0.201463 0.164350
H16   H     H_    0.895348 0.502013 0.892039 0.147224
H17   H     H_    0.079073 0.336547 0.949979 0.146096
H18   H     H_    0.142827 0.404458 0.788550 0.151029
H19   H     H_    0.549497 0.543622 0.785666 0.143573
H20   H     H_    0.319560 0.333116 0.161532 0.144899
H21   H     H_    0.722956 0.468870 0.818845 0.145182
N1    N     N_R   0.856900 0.500860 0.500610 -0.113169
N2    N     N_R   0.142540 0.500820 0.500610 -0.108414
O1    O     O_R   0.385310 0.683210 0.499990 -0.602721
O2    O     O_R   0.614650 0.683240 0.500000 -0.622789
O3    O     O_R   0.319830 0.499970 0.632240 -0.621713
O4    O     O_R   0.549170 0.500000 0.632250 -0.613606
O5    O     O_R   0.385350 0.316760 0.500000 -0.621722
O6    O     O_R   0.614690 0.316790 0.500010 -0.625366
O7    O     O_R   0.450830 0.500000 0.367750 -0.600700
O8    O     O_R   0.680170 0.500030 0.367760 -0.620134
Zn1   Zn    Zn3+2 0.346870 0.499980 0.499990 0.962141
Zn2   Zn    Zn3+2 0.653130 0.500020 0.500010 0.945891
C37   C     C_2   0.172299 0.875712 0.442488 0.953243
O9    O     O_2   0.244260 0.814932 0.373781 -0.617545
O10   O     O_R   0.023091 0.893230 0.464380 -0.837992
H22   H     H_    0.987777 0.851481 0.417821 0.328571

loop_
_geom_bond_atom_site_label_1
_geom_bond_atom_site_label_2
_ccdc_geom_bond_type
C31   O7    A    
O7    Zn1   S    
C16   C21   A    
C19   C20   A    
C15   H11   S    
C4    C8    A    
C14   C33   A    
C26   H8    S    
C25   C28   A    
C31   O8    A    
C26   C27   A    
C32   C36   A    
C28   C29   S    
C5    C11   A    
C3    C7    A    
C5    C6    A    
N2    Zn1   S    
C22   H5    S    
C16   C17   A    
O2    Zn2   S    
C18   C19   A    
C34   C35   A    
C11   C15   A    
O4    Zn2   S    
C8    C9    A    
C31   C33   S    
C37   O9    D    
C9    C10   A    
C27   H9    S    
C30   H14   S    
C16   C24   S    
C21   C22   S    
C12   C32   S    
C35   H18   S    
C9    H16   S    
C29   H12   S    
C24   C37   S    
C32   C35   A    
C19   H4    S    
C1    O1    A    
C12   O4    A    
O10   H22   S    
C3    C34   A    
O8    Zn2   S    
C2    C4    A    
C18   H3    S    
C29   C30   S    
C8    H21   S    
C12   O3    A    
C14   H15   S    
C20   C23   S    
C17   C18   A    
C7    H1    S    
C26   N1    A    
C13   H2    S    
C23   O5    A    
C30   H13   S    
C22   C24   S    
C25   N1    A    
O5    Zn1   S    
C28   N2    A    
C2    C36   A    
C25   C30   S    
C6    H20   S    
C4    C5    A    
C10   C13   A    
C1    O2    A    
N1    Zn2   S    
C6    C7    A    
C1    C17   S    
O3    Zn1   S    
C29   H10   S    
C23   O6    A    
C2    C3    A    
C36   H19   S    
C27   N2    A    
C22   H6    S    
O6    Zn2   S    
C10   C11   A    
C20   C21   A    
O1    Zn1   S    
C34   H17   S    
C24   H7    S    
C37   O10   S    
C13   C14   A    
C15   C33   A    
