data_mof_unit_48435.cif
_audit_creation_date              2012-12-10T17:54:22-0500
_audit_creation_method            fapswitch 2.2
_symmetry_space_group_name_H-M    P1
_symmetry_Int_Tables_number       1
_space_group_crystal_system       triclinic
_cell_length_a                    27.72484
_cell_length_b                    10.61608
_cell_length_c                    9.904051
_cell_angle_alpha                 89.826359
_cell_angle_beta                  89.988461
_cell_angle_gamma                 91.697972
_cell_volume                      2913.75713416

loop_
_atom_site_label
_atom_site_type_symbol
_atom_type_description
_atom_site_fract_x
_atom_site_fract_y
_atom_site_fract_z
_atom_type_partial_charge
C1    C     C_R   0.501291 0.260723 0.500200 0.856425
C2    C     C_R   0.277771 0.481265 0.378384 -0.101421
C3    C     C_R   0.252923 0.483963 0.500977 0.326911
C4    C     C_R   0.101688 0.478917 0.502200 -0.095907
C5    C     C_R   0.126193 0.363984 0.495215 -0.066530
C6    C     C_R   0.099147 0.249170 0.491006 0.246775
C7    C     C_R   0.128324 0.593909 0.510674 -0.002342
C8    C     C_R   0.353375 0.494476 0.500221 -0.040363
C9    C     C_R   0.646499 0.494377 0.500488 -0.049683
C10   C     C_R   0.973074 0.366616 0.471972 0.062161
C11   C     C_R   0.975619 0.594170 0.522457 0.043594
C12   C     C_R   0.406081 0.498975 0.500019 0.857505
C13   C     C_R   0.949102 0.480500 0.496552 0.069021
C14   C     C_R   0.945199 0.258465 0.434813 -0.223214
C15   C     C_R   0.895217 0.260441 0.430470 -0.150024
C16   C     C_R   0.871271 0.370126 0.462878 -0.018722
C17   C     C_R   0.898060 0.480627 0.495574 -0.054430
C18   C     C_R   0.873728 0.591263 0.527351 -0.019943
C19   C     C_R   0.823308 0.588725 0.528189 0.517824
C20   C     C_R   0.820866 0.372207 0.463414 0.470293
C21   C     C_R   0.721704 0.481967 0.379055 -0.121177
C22   C     C_R   0.671868 0.489289 0.378318 -0.208496
C23   C     C_R   0.501475 0.739455 0.499791 0.878308
C24   C     C_R   0.671578 0.491658 0.623488 -0.285286
C25   C     C_R   0.721734 0.483438 0.625366 0.052545
C26   C     C_R   0.746750 0.479285 0.501428 0.285809
C27   C     C_R   0.023943 0.364676 0.484090 0.015395
C28   C     C_R   0.050594 0.479486 0.500465 0.069343
C29   C     C_R   0.026607 0.595174 0.514772 0.058874
C30   C     C_R   0.048951 0.250917 0.483650 -0.288002
C31   C     C_R   0.104438 0.707554 0.517574 -0.144091
C32   C     C_R   0.950078 0.703000 0.556526 -0.222582
C33   C     C_R   0.900064 0.701296 0.558863 -0.141178
C34   C     C_R   0.593908 0.499514 0.500047 0.848449
C35   C     C_R   0.054551 0.708484 0.519669 -0.222731
C36   C     C_R   0.582542 0.137315 0.622969 -0.172601
C37   C     C_R   0.620623 0.074334 0.682161 -0.115371
C38   C     C_R   0.620699 0.943237 0.681799 -0.124737
C39   C     C_R   0.582719 0.874697 0.622109 -0.190784
C40   C     C_R   0.543554 0.937169 0.562822 0.094142
C41   C     C_R   0.543446 0.069175 0.563315 0.096632
C42   C     C_R   0.504576 0.128698 0.500154 -0.087732
C43   C     C_R   0.467922 0.061989 0.433343 -0.209963
C44   C     C_R   0.468044 0.933379 0.432826 -0.191355
C45   C     C_R   0.177062 0.368749 0.492502 0.508463
C46   C     C_R   0.504806 0.871989 0.499157 -0.101938
C47   C     C_R   0.436490 0.335303 0.140688 -0.161959
C48   C     C_R   0.405169 0.254293 0.070703 -0.196861
C49   C     C_R   0.405201 0.254202 0.930948 -0.185281
C50   C     C_R   0.436561 0.335110 0.860379 -0.156923
C51   C     C_R   0.468712 0.418784 0.927932 0.167265
C52   C     C_R   0.468700 0.418862 0.072587 0.172982
C53   C     C_R   0.530005 0.577488 0.071243 -0.112413
C54   C     C_R   0.529991 0.577466 0.928058 -0.112469
C55   C     C_R   0.178614 0.592983 0.510682 0.501865
C56   C     C_R   0.277948 0.491314 0.623185 -0.110666
C57   C     C_R   0.328056 0.496360 0.623045 -0.215076
C58   C     C_R   0.327898 0.486534 0.377786 -0.223594
H1    H     H_    0.346591 0.484283 0.281820 0.166181
H2    H     H_    0.258480 0.493467 0.717917 0.133580
H3    H     H_    0.124263 0.796916 0.521026 0.183168
H4    H     H_    0.967703 0.790498 0.585859 0.139873
H5    H     H_    0.652171 0.494388 0.718410 0.162690
H6    H     H_    0.882116 0.786963 0.585814 0.188323
H7    H     H_    0.038953 0.800235 0.521279 0.135373
H8    H     H_    0.438673 0.109761 0.383965 0.142484
H9    H     H_    0.584498 0.239116 0.622780 0.154034
H10   H     H_    0.650375 0.127467 0.727268 0.146707
H11   H     H_    0.258168 0.475749 0.283923 0.135306
H12   H     H_    0.650499 0.894483 0.726672 0.142367
H13   H     H_    0.584808 0.773157 0.621137 0.142309
H14   H     H_    0.438857 0.881310 0.383233 0.158556
H15   H     H_    0.554516 0.640785 0.124832 0.147596
H16   H     H_    0.434361 0.329499 0.247734 0.199234
H17   H     H_    0.380766 0.191097 0.125443 0.156687
H18   H     H_    0.380816 0.190939 0.876680 0.159999
H19   H     H_    0.434542 0.329143 0.753330 0.204622
H20   H     H_    0.554487 0.640765 0.873936 0.143097
H21   H     H_    0.653298 0.491195 0.282159 0.164780
H22   H     H_    0.741120 0.479861 0.284272 0.137613
H23   H     H_    0.875399 0.175067 0.402148 0.191040
H24   H     H_    0.961042 0.171360 0.404853 0.142261
H25   H     H_    0.030257 0.160402 0.484265 0.138156
H26   H     H_    0.346860 0.501935 0.718792 0.167126
N1    N     N_R   0.201592 0.481742 0.501384 -0.362582
N2    N     N_R   0.798173 0.479838 0.498157 -0.355016
N3    N     N_R   0.499540 0.498800 0.142780 -0.121920
N4    N     N_R   0.499520 0.498720 0.857170 -0.121551
O1    O     O_R   0.500000 0.316780 0.614690 -0.640111
O2    O     O_2   0.794624 0.267333 0.431584 -0.567894
O3    O     O_2   0.204569 0.702344 0.519194 -0.556436
O4    O     O_2   0.799442 0.694068 0.558260 -0.565687
O5    O     O_R   0.500000 0.316750 0.385360 -0.627742
O6    O     O_R   0.428760 0.500030 0.614650 -0.636143
O7    O     O_R   0.428750 0.500010 0.385320 -0.640164
O8    O     O_R   0.500000 0.683250 0.614640 -0.612807
O9    O     O_R   0.500000 0.683220 0.385310 -0.610239
O10   O     O_R   0.571250 0.499990 0.614680 -0.635736
O11   O     O_R   0.571240 0.499970 0.385350 -0.615698
O12   O     O_2   0.202130 0.262440 0.479752 -0.523619
Zn1   Zn    Zn3+2 0.500000 0.500020 0.653130 0.934604
Zn2   Zn    Zn3+2 0.500000 0.499980 0.346870 0.943746
C59   C     C_R   0.747160 0.480155 0.757047 0.116241
C60   C     C_R   0.739852 0.574823 0.853274 -0.108194
C61   C     C_R   0.763501 0.571576 0.977916 -0.149660
C62   C     C_R   0.794472 0.473811 0.007686 -0.101079
C63   C     C_R   0.801644 0.378770 0.913122 -0.117668
C64   C     C_R   0.777975 0.381458 0.788525 -0.172187
H27   H     H_    0.716135 0.651543 0.831368 0.130020
H28   H     H_    0.757822 0.644888 0.051448 0.138102
H29   H     H_    0.812759 0.471414 0.104198 0.133085
H30   H     H_    0.825360 0.302570 0.936654 0.142460
H31   H     H_    0.783186 0.305729 0.717641 0.161302
N5    N     N_2   0.121726 0.130512 0.496796 -0.249112
H32   H     H_    0.105393 0.062345 0.436804 0.212587
C65   C     C_3   0.129727 0.085330 0.632704 -0.687675
H33   H     H_    0.151121 0.998685 0.629134 0.248694
H34   H     H_    0.094662 0.062897 0.683057 0.204305
H35   H     H_    0.150217 0.157138 0.692789 0.255874

loop_
_geom_bond_atom_site_label_1
_geom_bond_atom_site_label_2
_ccdc_geom_bond_type
C10   C27   A    
C21   C26   A    
C38   H12   S    
C3    N1    S    
C63   H30   S    
C31   H3    S    
C7    C55   A    
C61   H28   S    
C19   N2    A    
N5    H32   S    
C36   H9    S    
C15   H23   S    
C53   C54   A    
C65   H33   S    
C40   C46   A    
C28   C29   A    
C22   H21   S    
C43   H8    S    
C5    C6    A    
C9    C22   A    
C62   C63   A    
C35   H7    S    
C15   C16   A    
C37   H10   S    
C56   C57   A    
C17   C18   A    
C18   C19   A    
C41   C42   A    
C30   H25   S    
C6    N5    S    
C55   O3    S    
C19   O4    S    
C8    C58   A    
O6    Zn1   S    
C16   C17   A    
C20   N2    A    
C63   C64   A    
C12   O7    A    
C59   C64   A    
C2    H11   S    
O9    Zn2   S    
O7    Zn2   S    
C16   C20   A    
O1    Zn1   S    
C23   C46   S    
C21   C22   A    
C27   C30   A    
C48   H17   S    
C12   O6    A    
C36   C41   A    
C4    C7    A    
C60   C61   A    
C4    C28   A    
C44   C46   A    
C23   O8    A    
N4    Zn1   S    
C62   H29   S    
C38   C39   A    
C57   H26   S    
C7    C31   A    
C51   C52   A    
C24   C25   A    
C10   C14   A    
C39   C40   A    
C25   C59   S    
C26   N2    S    
C50   C51   A    
C58   H1    S    
C5    C45   A    
C45   O12   S    
C56   H2    S    
C64   H31   S    
C55   N1    A    
C45   N1    A    
C43   C44   A    
C37   C38   A    
C8    C57   A    
N3    Zn2   S    
C3    C56   A    
C47   C48   A    
C8    C12   S    
C34   O11   A    
C49   H18   S    
C53   N3    A    
C40   C41   A    
C23   O9    A    
C11   C32   A    
C24   H5    S    
C9    C34   S    
C31   C35   A    
C42   C43   A    
C14   H24   S    
C50   H19   S    
C59   C60   A    
C51   N4    A    
C36   C37   A    
C1    O1    A    
C6    C30   A    
C52   N3    A    
C53   H15   S    
C47   H16   S    
C4    C5    A    
C10   C13   A    
O5    Zn2   S    
N5    C65   S    
C2    C58   A    
C9    C24   A    
C47   C52   A    
O10   Zn1   S    
C61   C62   A    
C29   C35   A    
C65   H35   S    
C13   C17   A    
C32   C33   A    
C2    C3    A    
C25   C26   A    
C32   H4    S    
C54   N4    A    
C11   C13   A    
C60   H27   S    
C20   O2    S    
C33   H6    S    
C48   C49   A    
C21   H22   S    
C34   O10   A    
C65   H34   S    
C44   H14   S    
C18   C33   A    
C1    C42   S    
O11   Zn2   S    
C11   C29   A    
C1    O5    A    
C49   C50   A    
C27   C28   A    
C39   H13   S    
C14   C15   A    
O8    Zn1   S    
C54   H20   S    
