data_mof_unit_14327.cif
_audit_creation_date              2012-12-10T17:36:42-0500
_audit_creation_method            fapswitch 2.2
_symmetry_space_group_name_H-M    P1
_symmetry_Int_Tables_number       1
_space_group_crystal_system       triclinic
_cell_length_a                    11.967182
_cell_length_b                    12.924877
_cell_length_c                    15.698264
_cell_angle_alpha                 89.842755
_cell_angle_beta                  86.303999
_cell_angle_gamma                 92.718614
_cell_volume                      2420.30054959

loop_
_atom_site_label
_atom_site_type_symbol
_atom_type_description
_atom_site_fract_x
_atom_site_fract_y
_atom_site_fract_z
_atom_type_partial_charge
C1    C     C_R   0.521081 0.700483 0.495538 0.934495
C2    C     C_R   0.478459 0.300092 0.501807 0.989828
C3    C     C_R   0.632231 0.967619 0.431072 0.050239
C4    C     C_R   0.387320 0.035752 0.577225 0.025749
C5    C     C_R   0.624423 0.859603 0.438881 0.336316
C6    C     C_R   0.387462 0.142572 0.565688 0.415357
C7    C     C_R   0.444052 0.870781 0.519700 0.386412
C8    C     C_R   0.543437 0.132823 0.456782 0.413553
C9    C     C_R   0.460317 0.977422 0.524072 -0.163739
C10   C     C_R   0.547018 0.026540 0.470728 -0.100165
C11   C     C_R   0.958497 0.448552 0.395614 0.438420
C12   C     C_R   0.041494 0.548368 0.605402 0.418473
C13   C     C_R   0.841430 0.449067 0.408928 -0.068368
C14   C     C_R   0.158542 0.546915 0.592300 -0.071772
C15   C     C_R   0.855637 0.512490 0.549439 -0.034276
C16   C     C_R   0.144383 0.489447 0.450019 -0.095245
C17   C     C_R   0.973970 0.515284 0.539355 -0.106566
C18   C     C_R   0.026057 0.484642 0.460736 -0.106360
C19   C     C_R   0.500276 0.499740 0.662119 0.908596
C20   C     C_R   0.499682 0.499549 0.337985 0.862441
C21   C     C_3   0.478790 0.591197 0.028350 0.262180
C22   C     C_3   0.522324 0.399488 0.972271 0.270799
C23   C     C_3   0.580758 0.564499 0.969172 0.266461
C24   C     C_3   0.420324 0.426208 0.031557 0.262944
C25   C     C_1   0.500800 0.498004 0.750917 -0.159404
C26   C     C_1   0.499131 0.498053 0.249389 -0.189316
C27   C     C_3   0.399087 0.522011 0.977481 0.263239
C28   C     C_3   0.601932 0.468744 0.023300 0.256865
C29   C     C_3   0.501108 0.495319 0.916964 -0.157559
C30   C     C_3   0.499881 0.495487 0.083586 -0.151166
C31   C     C_1   0.501159 0.496440 0.826161 0.159058
C32   C     C_1   0.499270 0.496617 0.174240 0.145131
C33   C     C_R   0.466432 0.189666 0.506266 -0.347079
C34   C     C_R   0.531567 0.811793 0.485662 -0.314606
H1    H     H_    0.186281 0.465590 0.390718 0.179973
H2    H     H_    0.813780 0.537923 0.608268 0.172713
H3    H     H_    0.210187 0.567834 0.644097 0.181229
H4    H     H_    0.789732 0.425561 0.357826 0.166008
N1    N     N_R   0.207800 0.519340 0.515560 -0.133768
N2    N     N_R   0.792200 0.480660 0.484440 -0.130730
O1    O     O_R   0.421700 0.658830 0.504150 -0.576476
O2    O     O_R   0.578300 0.341170 0.495850 -0.575283
O3    O     O_R   0.609310 0.646410 0.494170 -0.579661
O4    O     O_R   0.390690 0.353590 0.505830 -0.600681
O5    O     O_R   0.406210 0.506220 0.628210 -0.610975
O6    O     O_R   0.593790 0.493780 0.371790 -0.629766
O7    O     O_R   0.593830 0.493800 0.618230 -0.628930
O8    O     O_R   0.406170 0.506200 0.381770 -0.631838
Zn1   Zn    Zn3+2 0.374730 0.508290 0.506660 0.964110
Zn2   Zn    Zn3+2 0.625270 0.491710 0.493340 0.977936
O9    O     O_3   0.662519 0.633644 0.928585 -0.613889
C35   C     C_3   0.719825 0.690948 0.990286 0.117294
H5    H     H_    0.746096 0.641278 0.042703 0.169578
H6    H     H_    0.666453 0.751343 0.018799 0.174612
C36   C     C_3   0.824605 0.744543 0.947225 -0.876257
H7    H     H_    0.801175 0.797964 0.896498 0.262217
H8    H     H_    0.870669 0.789724 0.995027 0.212391
H9    H     H_    0.880476 0.686216 0.918183 0.264401
O10   O     O_3   0.338952 0.357098 0.072628 -0.621225
C37   C     C_3   0.280928 0.299742 0.011364 0.126029
H10   H     H_    0.334189 0.239738 0.982091 0.179728
H11   H     H_    0.253484 0.349478 0.959423 0.178053
C38   C     C_3   0.177121 0.245489 0.055312 -0.884297
H12   H     H_    0.121313 0.303433 0.085021 0.264589
H13   H     H_    0.130474 0.200149 0.007933 0.217491
H14   H     H_    0.201809 0.192120 0.105638 0.257628
O11   O     O_3   0.457813 0.688020 0.066026 -0.621479
C39   C     C_3   0.434518 0.760297 0.002645 0.126724
H15   H     H_    0.351788 0.741599 0.977035 0.180942
H16   H     H_    0.499307 0.763205 0.948509 0.172882
C40   C     C_3   0.430994 0.867414 0.042186 -0.892238
H17   H     H_    0.513393 0.889656 0.067238 0.249960
H18   H     H_    0.411574 0.924936 0.993285 0.218144
H19   H     H_    0.365111 0.867695 0.095352 0.261505
O12   O     O_3   0.543652 0.302674 0.934693 -0.603862
C41   C     C_3   0.566420 0.230440 0.998267 0.106361
H20   H     H_    0.499525 0.225627 0.050822 0.163408
H21   H     H_    0.647454 0.250577 0.026033 0.178111
C42   C     C_3   0.574388 0.123894 0.958256 -0.856614
H22   H     H_    0.642309 0.125489 0.906534 0.267027
H23   H     H_    0.593382 0.066553 0.007438 0.206325
H24   H     H_    0.493691 0.100039 0.931210 0.258507
O13   O     O_3   0.703488 0.441455 0.056622 -0.619018
C43   C     C_3   0.785601 0.426882 0.989509 0.130613
H25   H     H_    0.813000 0.501560 0.958133 0.185804
H26   H     H_    0.754735 0.373016 0.940161 0.175676
C44   C     C_3   0.887573 0.381600 0.025965 -0.875576
H27   H     H_    0.863833 0.305467 0.056614 0.253177
H28   H     H_    0.953442 0.370663 0.974066 0.220951
H29   H     H_    0.921983 0.434874 0.074238 0.273483
O14   O     O_3   0.296906 0.549596 0.945292 -0.613258
C45   C     C_3   0.215815 0.563572 0.013326 0.132450
H30   H     H_    0.247751 0.616329 0.063046 0.172879
H31   H     H_    0.188331 0.488538 0.044033 0.184917
C46   C     C_3   0.113453 0.610152 0.978591 -0.880739
H32   H     H_    0.078299 0.558371 0.929602 0.274179
H33   H     H_    0.048211 0.619800 0.031190 0.219868
H34   H     H_    0.136979 0.687106 0.949378 0.252817
O15   O     O_3   0.614203 0.182105 0.394232 -0.571129
C47   C     C_3   0.555863 0.189619 0.319117 0.091353
H35   H     H_    0.482402 0.238896 0.329624 0.117613
H36   H     H_    0.526646 0.111537 0.297195 0.125530
C48   C     C_3   0.633630 0.239179 0.248476 -0.788978
H37   H     H_    0.704096 0.188419 0.232202 0.242523
H38   H     H_    0.586646 0.250374 0.190763 0.205118
H39   H     H_    0.667470 0.315804 0.269199 0.269190
O16   O     O_3   0.338081 0.825674 0.540103 -0.594722
C49   C     C_3   0.271743 0.839975 0.469564 0.129994
H40   H     H_    0.301276 0.791417 0.414903 0.152126
H41   H     H_    0.274236 0.922448 0.448170 0.111587
C50   C     C_3   0.149810 0.808758 0.493937 -0.853058
H42   H     H_    0.117881 0.855106 0.548898 0.238352
H43   H     H_    0.098122 0.822237 0.439066 0.214898
H44   H     H_    0.141559 0.725681 0.510822 0.263813
O17   O     O_3   0.319048 0.203680 0.617522 -0.576778
C51   C     C_3   0.204168 0.175089 0.610178 0.127275
H45   H     H_    0.172612 0.128244 0.666877 0.163371
H46   H     H_    0.187287 0.130118 0.551295 0.103389
C52   C     C_3   0.137308 0.271944 0.608815 -0.794620
H47   H     H_    0.161298 0.315849 0.549316 0.255430
H48   H     H_    0.046268 0.250366 0.610265 0.200278
H49   H     H_    0.154150 0.321247 0.664829 0.269686
O18   O     O_3   0.707014 0.801538 0.399293 -0.592310
C53   C     C_3   0.671657 0.768287 0.319091 0.119275
H50   H     H_    0.658579 0.835401 0.276899 0.112915
H51   H     H_    0.592254 0.719742 0.326177 0.126156
C54   C     C_3   0.761109 0.703387 0.275446 -0.763729
H52   H     H_    0.775825 0.635474 0.315964 0.269856
H53   H     H_    0.733242 0.675460 0.213033 0.201545
H54   H     H_    0.840735 0.750625 0.264525 0.237063
N3    N     N_3   0.729301 0.017170 0.386961 -0.375345
H55   H     H_    0.733142 0.993627 0.323299 0.181783
H56   H     H_    0.800830 0.993290 0.414911 0.206114
N4    N     N_3   0.323851 0.990471 0.650023 -0.436057
H57   H     H_    0.251567 0.951669 0.630498 0.212950
H58   H     H_    0.372726 0.938800 0.680818 0.217836
O19   O     O_3   0.005237 0.420462 0.316624 -0.626063
C55   C     C_3   0.033182 0.315279 0.318661 0.077360
H59   H     H_    0.057413 0.288634 0.382358 0.120803
H60   H     H_    0.107523 0.306361 0.273621 0.181096
C56   C     C_3   0.937479 0.245246 0.288717 -0.868784
H61   H     H_    0.912194 0.272538 0.225946 0.267703
H62   H     H_    0.965047 0.164683 0.281974 0.214451
H63   H     H_    0.864371 0.245215 0.335958 0.277196
O20   O     O_3   0.994446 0.573583 0.685011 -0.621713
C57   C     C_3   0.972945 0.680361 0.687283 0.080822
H64   H     H_    0.894475 0.689511 0.727766 0.184362
H65   H     H_    0.958596 0.714445 0.623659 0.132239
C58   C     C_3   0.067332 0.741734 0.728058 -0.866968
H66   H     H_    0.146215 0.739942 0.686997 0.264994
H67   H     H_    0.044820 0.823653 0.736085 0.212537
H68   H     H_    0.080905 0.708520 0.791659 0.272608

loop_
_geom_bond_atom_site_label_1
_geom_bond_atom_site_label_2
_ccdc_geom_bond_type
O4    Zn1   S    
C25   C31   T    
C36   H7    S    
C38   H13   S    
C11   C18   A    
C26   C32   T    
C22   C29   S    
C27   C29   S    
C50   H42   S    
C41   C42   S    
C44   H27   S    
O20   C57   S    
C46   H34   S    
O18   C53   S    
C51   H45   S    
C37   C38   S    
C3    N3    S    
C23   C29   S    
C53   H51   S    
C8    O15   S    
C41   H21   S    
C57   H64   S    
C58   H67   S    
C16   H1    S    
C19   O7    A    
O17   C51   S    
C49   H40   S    
C37   H11   S    
C47   H35   S    
C13   N2    A    
C14   N1    A    
C44   H29   S    
C56   H61   S    
C1    O3    A    
C24   O10   S    
C46   H32   S    
C2    O4    A    
C39   H15   S    
C12   C17   A    
O16   C49   S    
C24   C27   S    
C27   O14   S    
C48   H39   S    
C9    C10   A    
C35   C36   S    
C21   C27   S    
C38   H14   S    
O10   C37   S    
C22   C28   S    
C21   O11   S    
C28   O13   S    
C22   O12   S    
O1    Zn1   S    
C35   H6    S    
C1    C34   S    
O7    Zn2   S    
C57   H65   S    
C52   H48   S    
C15   N2    A    
O9    C35   S    
C43   H25   S    
C48   H38   S    
C56   H63   S    
O14   C45   S    
C42   H23   S    
N4    H58   S    
C3    C5    A    
C47   C48   S    
C19   O5    A    
O11   C39   S    
C37   H10   S    
C12   O20   S    
O12   C41   S    
C54   H53   S    
C36   H8    S    
C40   H19   S    
C57   C58   S    
C23   O9    S    
O13   C43   S    
O5    Zn1   S    
C5    C34   A    
C45   H31   S    
C17   C18   A    
C50   H43   S    
C49   C50   S    
C23   C28   S    
C41   H20   S    
C13   H4    S    
C20   O8    A    
C55   H60   S    
O2    Zn2   S    
C53   C54   S    
C2    C33   S    
C1    O1    A    
O8    Zn1   S    
N1    Zn1   S    
C12   C14   A    
C21   C23   S    
C7    C34   A    
C22   C24   S    
C58   H68   S    
C4    C6    A    
C54   H52   S    
C15   H2    S    
C35   H5    S    
C4    N4    S    
C47   H36   S    
C21   C30   S    
C52   H49   S    
C15   C17   A    
O6    Zn2   S    
C46   H33   S    
C8    C10   A    
C43   H26   S    
C38   H12   S    
N3    H56   S    
C55   C56   S    
C42   H24   S    
C52   H47   S    
C51   C52   S    
O3    Zn2   S    
N4    H57   S    
C43   C44   S    
O19   C55   S    
C5    O18   S    
C6    C33   A    
C16   C18   A    
C56   H62   S    
C11   O19   S    
C54   H54   S    
C40   H17   S    
C29   C31   S    
C3    C10   A    
O15   C47   S    
C14   H3    S    
C30   C32   S    
C11   C13   A    
C49   H41   S    
C20   C26   S    
C2    O2    A    
C39   C40   S    
N2    Zn2   S    
C28   C30   S    
C45   H30   S    
C51   H46   S    
C50   H44   S    
C7    O16   S    
C8    C33   A    
C45   C46   S    
C19   C25   S    
C24   C30   S    
C6    O17   S    
C55   H59   S    
C16   N1    A    
C42   H22   S    
C7    C9    A    
C39   H16   S    
C36   H9    S    
C40   H18   S    
C48   H37   S    
C44   H28   S    
C4    C9    A    
C58   H66   S    
C20   O6    A    
N3    H55   S    
C53   H50   S    
