data_mof_unit_43518.cif
_audit_creation_date              2012-12-10T17:21:39-0500
_audit_creation_method            fapswitch 2.2
_symmetry_space_group_name_H-M    P1
_symmetry_Int_Tables_number       1
_space_group_crystal_system       triclinic
_cell_length_a                    10.783859
_cell_length_b                    10.79746
_cell_length_c                    9.678744
_cell_angle_alpha                 89.03121
_cell_angle_beta                  90.986673
_cell_angle_gamma                 92.798502
_cell_volume                      1125.31977865

loop_
_atom_site_label
_atom_site_type_symbol
_atom_type_description
_atom_site_fract_x
_atom_site_fract_y
_atom_site_fract_z
_atom_type_partial_charge
C1    C     C_R   0.496378 0.262592 0.500294 0.769456
C2    C     C_3   0.877009 0.487176 0.497424 0.026997
C3    C     C_3   0.935171 0.621401 0.491072 -0.431717
C4    C     C_3   0.917718 0.418854 0.364968 -0.112756
C5    C     C_R   0.285313 0.116007 0.612354 -0.209341
C6    C     C_R   0.193081 0.048203 0.683696 -0.083466
C7    C     C_R   0.201591 0.920715 0.704364 0.248214
C8    C     C_R   0.299236 0.860423 0.644581 -0.206903
C9    C     C_R   0.392334 0.928083 0.569639 0.078607
C10   C     C_R   0.389123 0.058596 0.561957 0.117605
C11   C     C_R   0.487658 0.127864 0.498800 -0.068464
C12   C     C_R   0.260090 0.492932 0.497935 0.736449
C13   C     C_R   0.579054 0.067869 0.429231 -0.159644
C14   C     C_R   0.578439 0.940016 0.428577 -0.152486
C15   C     C_R   0.487335 0.869851 0.499330 -0.033553
C16   C     C_R   0.626427 0.692335 0.144116 -0.132014
C17   C     C_R   0.643272 0.807518 0.080085 -0.349197
C18   C     C_R   0.625832 0.817835 0.938176 0.002263
C19   C     C_R   0.619591 0.706480 0.863329 0.250437
C20   C     C_R   0.559771 0.598489 0.926359 0.110408
C21   C     C_R   0.561649 0.595216 0.074907 0.185217
C22   C     C_R   0.442527 0.408359 0.075986 -0.031774
C23   C     C_R   0.495433 0.736629 0.499410 0.766025
C24   C     C_R   0.440869 0.408088 0.929094 0.070901
C25   C     C_R   0.739244 0.494513 0.500457 0.758350
C26   C     C_3   0.070373 0.425307 0.627503 -0.431155
C27   C     C_3   0.927835 0.419293 0.627219 -0.386211
C28   C     C_3   0.077483 0.620824 0.487032 -0.415979
C29   C     C_3   0.063778 0.411508 0.360548 0.320273
C30   C     C_3   0.121262 0.486266 0.490785 0.155350
Cu1   Cu    Cu3+1 0.499990 0.499990 0.640660 0.932882
Cu2   Cu    Cu3+1 0.500010 0.500010 0.359340 0.948929
H1    H     H_    0.104087 0.480665 0.717961 0.185603
H2    H     H_    0.887517 0.478588 0.276530 0.171601
H3    H     H_    0.113144 0.674404 0.396072 0.170901
H4    H     H_    0.899935 0.671873 0.398299 0.158244
H5    H     H_    0.652088 0.120129 0.376438 0.174303
H6    H     H_    0.274169 0.213388 0.594233 0.104187
H7    H     H_    0.115496 0.095503 0.724120 0.134305
H8    H     H_    0.300925 0.761098 0.656971 0.154646
H9    H     H_    0.652581 0.895496 0.377799 0.118289
H10   H     H_    0.393272 0.334911 0.133230 0.167831
H11   H     H_    0.104786 0.331337 0.645310 0.150038
H12   H     H_    0.663548 0.682563 0.246655 0.192870
H13   H     H_    0.678098 0.886505 0.138986 0.158435
H14   H     H_    0.892054 0.321101 0.630878 0.159656
H15   H     H_    0.896997 0.462276 0.723060 0.190096
H16   H     H_    0.115761 0.670597 0.578395 0.176536
H17   H     H_    0.908940 0.673563 0.582811 0.183127
N1    N     N_R   0.501200 0.501210 0.147910 -0.205315
N2    N     N_R   0.501250 0.501290 0.852040 -0.233135
O1    O     O_R   0.499990 0.319640 0.618810 -0.574736
O2    O     O_R   0.500000 0.319660 0.381240 -0.566188
O3    O     O_R   0.317680 0.499970 0.618790 -0.626990
O4    O     O_R   0.317700 0.499990 0.381210 -0.578088
O5    O     O_R   0.500000 0.680340 0.618760 -0.571924
O6    O     O_R   0.500010 0.680360 0.381190 -0.592357
O7    O     O_R   0.682300 0.500010 0.618790 -0.580807
O8    O     O_R   0.682320 0.500030 0.381210 -0.583944
C31   C     C_3   0.104914 0.850284 0.788155 -0.910711
H18   H     H_    0.099480 0.892397 0.891620 0.251101
H19   H     H_    0.013242 0.854570 0.734851 0.229271
H20   H     H_    0.127021 0.751576 0.803532 0.225408
C32   C     C_2   0.650295 0.940818 0.871043 0.391682
H21   H     H_    0.666249 0.022693 0.933757 0.097688
O9    O     O_2   0.652328 0.952431 0.745533 -0.558265
C33   C     C_3   0.736514 0.692562 0.783823 -0.732217
H22   H     H_    0.720715 0.712912 0.672808 0.246001
H23   H     H_    0.812995 0.758640 0.817649 0.190427
H24   H     H_    0.773873 0.600881 0.806682 0.213660
C34   C     C_2   0.364248 0.309150 0.863467 0.376126
H25   H     H_    0.311126 0.329048 0.772092 0.098459
O10   O     O_2   0.355811 0.205043 0.914888 -0.564085
C35   C     C_3   0.104495 0.466026 0.216535 -0.818313
H26   H     H_    0.094002 0.567275 0.207247 0.211292
H27   H     H_    0.200111 0.444687 0.189049 0.253529
H28   H     H_    0.045547 0.422680 0.133345 0.223470
C36   C     C_3   0.106271 0.275541 0.364499 -0.862864
H29   H     H_    0.209036 0.273439 0.366298 0.225876
H30   H     H_    0.069914 0.222283 0.455121 0.205018
H31   H     H_    0.073050 0.225114 0.270676 0.252172
C37   C     C_2   0.847545 0.295224 0.344162 0.336326
H32   H     H_    0.848486 0.223603 0.423933 0.057226
O11   O     O_2   0.790205 0.274839 0.236352 -0.549163

loop_
_geom_bond_atom_site_label_1
_geom_bond_atom_site_label_2
_ccdc_geom_bond_type
C16   C21   A    
Cu2   O2    S    
C19   C20   A    
C1    C11   S    
Cu1   O1    S    
C3    H17   S    
C7    C8    A    
C26   C27   S    
C35   H27   S    
C31   H20   S    
Cu1   O7    S    
C3    C28   S    
C17   H13   S    
C20   N2    A    
C5    C6    A    
C36   H30   S    
C31   H19   S    
C18   C19   A    
C1    O2    A    
C29   C36   S    
C28   H3    S    
C8    C9    A    
C35   H28   S    
C19   C33   S    
C2    C27   S    
Cu1   O5    S    
C9    C10   A    
C16   H12   S    
Cu2   O4    S    
C13   H5    S    
C4    C29   S    
C22   N1    A    
C24   N2    A    
C15   C23   S    
C13   C14   A    
Cu2   O6    S    
C21   N1    A    
C26   H11   S    
C4    H2    S    
C35   H26   S    
C33   H22   S    
C23   O5    A    
C34   O10   D    
C36   H29   S    
C16   C17   A    
C29   C35   S    
C31   H18   S    
C33   H23   S    
C32   O9    D    
C2    C4    S    
C29   C30   S    
C26   H1    S    
Cu1   Cu2   S    
C17   C18   A    
Cu2   N1    S    
C14   H9    S    
C27   H14   S    
C26   C30   S    
C37   O11   D    
C22   C24   A    
C25   O7    A    
C7    C31   S    
C27   H15   S    
C23   O6    A    
C28   H16   S    
C12   C30   S    
C14   C15   A    
Cu1   N2    S    
C6    C7    A    
C8    H8    S    
C33   H24   S    
C32   H21   S    
C28   C30   S    
C2    C3    S    
C9    C15   A    
C5    C10   A    
C11   C13   A    
C36   H31   S    
C18   C32   S    
C22   H10   S    
C3    H4    S    
C2    C25   S    
Cu1   O3    S    
C1    O1    A    
C12   O4    A    
C10   C11   A    
C34   H25   S    
C4    C37   S    
C20   C21   A    
C37   H32   S    
C6    H7    S    
C25   O8    A    
Cu2   O8    S    
C5    H6    S    
C12   O3    A    
C24   C34   S    
