data_mof_unit_56557.cif
_audit_creation_date              2012-12-11T15:45:43-0500
_audit_creation_method            fapswitch 2.2
_symmetry_space_group_name_H-M    P1
_symmetry_Int_Tables_number       1
_space_group_crystal_system       triclinic
_cell_length_a                    8.255911
_cell_length_b                    19.13308
_cell_length_c                    22.919051
_cell_angle_alpha                 96.323024
_cell_angle_beta                  89.835497
_cell_angle_gamma                 94.827029
_cell_volume                      3585.45621905

loop_
_atom_site_label
_atom_site_type_symbol
_atom_type_description
_atom_site_fract_x
_atom_site_fract_y
_atom_site_fract_z
_atom_type_partial_charge
Ba1   Ba    Ba6+2 0.850680 0.532880 0.472010 1.698094
Ba2   Ba    Ba6+2 0.339140 0.467180 0.527990 1.684489
C1    C     C_3   0.704994 0.795825 0.322027 -0.232085
C2    C     C_R   0.091320 0.562152 0.940793 -0.007668
C3    C     C_R   0.049136 0.559383 0.880573 0.595933
C4    C     C_3   0.144726 0.700341 0.311060 0.235354
C5    C     C_R   0.952879 0.437253 0.878834 0.605347
C6    C     C_R   0.998291 0.437856 0.938551 -0.107920
C7    C     C_R   0.066630 0.500821 0.969791 -0.053808
C8    C     C_R   0.156253 0.625146 0.972908 -0.066711
C9    C     C_R   0.195037 0.627337 0.032468 -0.038424
C10   C     C_R   0.172621 0.566360 0.061878 -0.016054
C11   C     C_R   0.109333 0.502658 0.030359 -0.126018
C12   C     C_3   0.666248 0.723119 0.342204 0.883638
C13   C     C_R   0.976087 0.376873 0.967856 -0.105755
C14   C     C_R   0.021090 0.378006 0.026883 0.635055
C15   C     C_R   0.088152 0.441000 0.059190 -0.117779
C16   C     C_3   0.239567 0.753421 0.275766 0.477336
C17   C     C_R   0.135465 0.443984 0.119221 0.631631
C18   C     C_R   0.211626 0.568131 0.122138 0.616049
C19   C     C_2   0.775144 0.477996 0.771480 -0.069228
C20   C     C_3   0.723788 0.484618 0.708947 -0.053427
C21   C     C_1   0.005610 0.514387 0.685950 0.035376
C22   C     C_2   0.051900 0.517563 0.742152 -0.106464
C23   C     C_3   0.622214 0.326503 0.338556 0.253207
C24   C     C_2   0.931901 0.496334 0.788449 0.202164
C25   C     C_R   0.397682 0.543528 0.231694 -0.060799
C26   C     C_R   0.439544 0.552237 0.291573 0.052269
C27   C     C_R   0.185525 0.488074 0.314560 0.010108
C28   C     C_3   0.201461 0.681520 0.595950 0.289829
C29   C     C_R   0.140822 0.480612 0.254526 -0.102075
C30   C     C_R   0.244231 0.510428 0.212345 0.189998
C31   C     C_2   0.866821 0.479957 0.668010 -0.277074
C32   C     C_R   0.395626 0.699902 0.473472 -0.199527
C33   C     C_R   0.539959 0.722764 0.503428 0.062112
C34   C     C_3   0.633912 0.273926 0.283847 -0.411331
C35   C     C_R   0.595131 0.794739 0.508805 -0.126996
C36   C     C_R   0.504451 0.844089 0.484558 -0.014772
C37   C     C_R   0.355055 0.819992 0.456510 -0.099653
C38   C     C_R   0.300212 0.748348 0.452089 0.082326
C39   C     C_R   0.539570 0.961866 0.444593 -0.074485
C40   C     C_3   0.222949 0.761154 0.611461 -0.375384
C41   C     C_R   0.586828 0.034356 0.450964 -0.075980
C42   C     C_R   0.655746 0.067988 0.503919 0.056399
C43   C     C_R   0.678153 0.026819 0.550033 -0.072412
C44   C     C_R   0.631169 0.954221 0.543604 -0.073471
C45   C     C_3   0.080403 0.313914 0.689063 0.286783
C46   C     C_R   0.560341 0.920847 0.490895 0.054356
C47   C     C_R   0.847776 0.173222 0.541248 -0.132560
C48   C     C_R   0.892783 0.246051 0.547204 0.011821
C49   C     C_R   0.652702 0.265171 0.492441 0.015925
C50   C     C_R   0.606965 0.192548 0.486061 -0.117209
C51   C     C_R   0.702967 0.145610 0.511146 -0.006673
C52   C     C_3   0.020266 0.318208 0.407369 0.335082
C53   C     C_R   0.791216 0.291486 0.525066 -0.265478
C54   C     C_3   0.008763 0.238322 0.393605 -0.380920
C55   C     C_3   0.711397 0.633494 0.648542 0.242346
C56   C     C_3   0.127465 0.297794 0.749903 -0.305935
C57   C     C_3   0.725555 0.660054 0.713955 -0.247540
C58   C     C_2   0.821873 0.730432 0.723691 0.596774
C59   C     C_2   0.568170 0.394075 0.322555 0.541154
C60   C     C_2   0.128340 0.787545 0.237956 0.590224
C61   C     C_3   0.579627 0.289982 0.660485 0.346714
C62   C     C_3   0.596790 0.219384 0.683415 -0.355005
C63   C     C_R   0.327841 0.528826 0.332598 -0.215532
F1    F     F_    0.502461 0.715377 0.353787 -0.798880
F2    F     F_    0.353488 0.720099 0.241007 -0.654355
F3    F     F_    0.996796 0.317076 0.052166 -0.640347
H1    H     H_    0.735715 0.720066 0.383074 0.024525
H2    H     H_    0.833845 0.625342 0.630910 0.007820
H3    H     H_    0.633803 0.582912 0.642946 0.035709
H4    H     H_    0.835564 0.804252 0.311265 0.075086
H5    H     H_    0.787988 0.622581 0.737652 0.005834
H6    H     H_    0.601620 0.663741 0.732591 0.127483
H7    H     H_    0.675355 0.837118 0.357442 0.042085
H8    H     H_    0.743497 0.336382 0.358096 0.032632
H9    H     H_    0.514203 0.263447 0.261085 0.140117
H10   H     H_    0.725491 0.294888 0.253153 0.117000
H11   H     H_    0.671856 0.223297 0.296426 0.128497
H12   H     H_    0.312296 0.774774 0.647924 0.151008
H13   H     H_    0.632078 0.801114 0.282364 0.159307
H14   H     H_    0.139278 0.366669 0.682526 0.090353
H15   H     H_    0.946374 0.315016 0.686852 -0.020619
H16   H     H_    0.258197 0.288407 0.751190 0.150601
H17   H     H_    0.107045 0.343342 0.782469 0.124092
H18   H     H_    0.053562 0.250205 0.761644 0.126646
H19   H     H_    0.695224 0.306119 0.638988 -0.053579
H20   H     H_    0.478359 0.283041 0.627917 0.092826
H21   H     H_    0.622265 0.179361 0.646417 0.070995
H22   H     H_    0.482452 0.201515 0.705020 0.137527
H23   H     H_    0.267479 0.787336 0.573092 0.050080
H24   H     H_    0.061126 0.664090 0.281492 0.080818
H25   H     H_    0.698576 0.224383 0.715594 0.132979
H26   H     H_    0.924123 0.327549 0.944988 0.157086
H27   H     H_    0.243717 0.677171 0.055417 0.147977
H28   H     H_    0.484353 0.562298 0.200231 0.117656
H29   H     H_    0.176348 0.673310 0.952155 0.134734
H30   H     H_    0.176350 0.535200 0.754878 0.125156
H31   H     H_    0.683525 0.465160 0.803573 0.105364
H32   H     H_    0.025858 0.452191 0.240960 0.123811
H33   H     H_    0.358841 0.536921 0.378822 0.110690
H34   H     H_    0.104747 0.781299 0.625062 0.120018
H35   H     H_    0.230962 0.666551 0.328988 0.071151
H36   H     H_    0.861519 0.442941 0.628442 0.060696
H37   H     H_    0.498313 0.172953 0.461098 0.078736
H38   H     H_    0.570863 0.063934 0.414053 0.065075
H39   H     H_    0.487759 0.937725 0.403106 0.067059
H40   H     H_    0.707310 0.812105 0.532388 0.090402
H41   H     H_    0.728882 0.051040 0.591655 0.072266
H42   H     H_    0.646621 0.924558 0.580504 0.077009
H43   H     H_    0.928241 0.138214 0.558079 0.080901
H44   H     H_    0.278687 0.856903 0.440104 0.056921
H45   H     H_    0.908852 0.335053 0.429214 -0.078112
H46   H     H_    0.826830 0.347574 0.529594 0.056811
H47   H     H_    0.351841 0.644710 0.470444 0.047494
H48   H     H_    0.305292 0.795103 0.306615 -0.010930
H49   H     H_    0.319882 0.662197 0.582932 0.011946
H50   H     H_    0.113482 0.669301 0.558984 0.062220
H51   H     H_    0.948720 0.735426 0.711204 0.010134
H52   H     H_    0.537739 0.401271 0.277655 -0.091578
H53   H     H_    0.107834 0.842779 0.248479 -0.095617
H54   H     H_    0.120369 0.334274 0.438332 0.107961
H55   H     H_    0.898629 0.220080 0.366727 0.096804
H56   H     H_    0.001995 0.212770 0.434689 0.072637
H57   H     H_    0.118142 0.222038 0.369105 0.144214
N1    N     N_R   0.980676 0.497351 0.850013 -0.425944
N2    N     N_R   0.195557 0.507272 0.150427 -0.442810
O1    O     O_2   0.896730 0.461690 0.361000 -0.445641
O2    O     O_2   0.228283 0.250893 0.539279 -0.483351
O3    O     O_3   0.133718 0.261651 0.647317 -0.597266
O4    O     O_3   0.137170 0.462400 0.432040 -0.487984
O5    O     O_3   0.560670 0.583970 0.528500 -0.478145
O6    O     O_2   0.373560 0.329680 0.473470 -0.440019
O7    O     O_3   0.508632 0.298095 0.376771 -0.636699
O8    O     O_2   0.386149 0.450533 0.705094 -0.498541
O9    O     O_3   0.546393 0.340139 0.707462 -0.593277
O10   O     O_2   0.070679 0.612672 0.855687 -0.587430
O11   O     O_2   0.888502 0.383055 0.852542 -0.598077
O12   O     O_3   0.639762 0.683672 0.619699 -0.634374
O13   O     O_2   0.125432 0.389989 0.143352 -0.510832
O14   O     O_2   0.258721 0.624427 0.149595 -0.493140
O15   O     O_3   0.657500 0.588540 0.395070 -0.444641
O16   O     O_2   0.774134 0.539407 0.291653 -0.491011
O17   O     O_3   0.045026 0.349002 0.355020 -0.634373
O18   O     O_3   0.708335 0.671053 0.297901 -0.589332
O19   O     O_2   0.816140 0.670340 0.526560 -0.468309
O20   O     O_3   0.069580 0.624410 0.423530 -0.487620
O21   O     O_2   0.966982 0.749495 0.463748 -0.498850
O22   O     O_2   0.758735 0.782254 0.745977 -0.548097
O23   O     O_3   0.051848 0.737320 0.353877 -0.674956
O24   O     O_2   0.557582 0.442151 0.361290 -0.579935
O25   O     O_2   0.058242 0.753390 0.195927 -0.517574
O26   O     O_2   0.292960 0.538340 0.639040 -0.457859
O27   O     O_3   0.052540 0.537650 0.567960 -0.493970
O28   O     O_3   0.532200 0.411510 0.604930 -0.482157
O29   O     O_3   0.144872 0.650884 0.645515 -0.638596
O30   O     O_3   0.629030 0.416090 0.471500 -0.424583
O31   O     O_3   0.120120 0.375640 0.576470 -0.494713
P1    P     P_3+3 0.067040 0.441110 0.370020 1.019556
P2    P     P_3+3 0.640420 0.660110 0.543790 0.992178
P3    P     P_3+3 0.097431 0.716010 0.423902 0.935157
P4    P     P_3+3 0.122660 0.558950 0.629980 0.989344
P5    P     P_3+3 0.092525 0.283550 0.577061 0.934723
P6    P     P_3+3 0.644969 0.587433 0.318416 1.091869
P7    P     P_3+3 0.552492 0.326912 0.451174 0.993156
P8    P     P_3+3 0.547260 0.423004 0.681590 0.965445

loop_
_geom_bond_atom_site_label_1
_geom_bond_atom_site_label_2
_ccdc_geom_bond_type
O3    P5    S    
C6    C7    A    
C52   O17   S    
C19   C24   D    
C40   H12   S    
Ba2   O28   S    
C61   H20   S    
C31   H36   S    
Ba1   O1    S    
C63   H33   S    
Ba1   O5    S    
Ba2   P4    S    
C13   H26   S    
Ba1   O19   S    
C5    C6    A    
C27   P1    S    
C43   C44   A    
C42   C43   A    
C12   O18   S    
O2    P5    D    
O5    P2    S    
C60   O25   D    
C32   C38   A    
O21   P3    D    
C54   H56   S    
C30   N2    S    
C33   C35   A    
C22   C24   S    
C62   H25   S    
Ba1   Ba2   S    
O6    P7    D    
C34   H9    S    
O15   P6    S    
C36   C37   A    
C19   H31   S    
C43   H41   S    
C55   C57   S    
O19   P2    D    
O28   P8    S    
C13   C14   A    
C52   H45   S    
C56   H18   S    
C55   O12   S    
C58   H51   S    
C32   C33   A    
C24   N1    S    
C45   H14   S    
O23   P3    S    
C7    C11   A    
C33   P2    S    
Ba1   O15   S    
C42   C51   S    
C39   C46   A    
C17   O13   D    
C21   C31   D    
C3    N1    Am   
C1    H13   S    
Ba2   O5    S    
C21   C22   D    
C14   F3    S    
C45   H15   S    
C55   H2    S    
C1    H7    S    
C57   H5    S    
C36   C46   S    
C47   H43   S    
C21   P4    S    
C28   O29   S    
C52   H54   S    
O29   P4    S    
C57   C58   S    
Ba2   O27   S    
C19   C20   S    
C59   H52   S    
C39   C41   A    
O18   P6    S    
C25   H28   S    
C62   H21   S    
C40   H34   S    
C44   C46   A    
C4    H24   S    
C4    C16   S    
C52   C54   S    
Ba2   O6    S    
C45   O3    S    
C49   C50   A    
C54   H55   S    
C62   H22   S    
Ba1   P1    S    
C35   H40   S    
O20   P3    S    
O30   P7    S    
C37   C38   A    
C14   C15   A    
C28   H50   S    
C16   F2    S    
C4    H35   S    
C41   H38   S    
C4    O23   S    
C8    H29   S    
C41   C42   A    
C35   C36   A    
C56   H16   S    
C29   C30   A    
Ba2   O31   S    
C10   C18   A    
Ba2   O4    S    
C12   F1    S    
O7    P7    S    
C23   C59   S    
C29   H32   S    
C55   H3    S    
O17   P1    S    
O4    P1    S    
C23   O7    S    
C59   O24   D    
C57   H6    S    
C1    C12   S    
O31   P5    S    
C18   N2    Am   
C27   C63   A    
C37   H44   S    
C53   H46   S    
C50   H37   S    
Ba2   O26   S    
C44   H42   S    
C12   H1    S    
C22   H30   S    
Ba1   O20   S    
C16   H48   S    
C56   H17   S    
O16   P6    D    
C50   C51   A    
C26   P6    S    
C9    H27   S    
C20   C31   S    
C39   H39   S    
C61   H19   S    
C48   P5    S    
C18   O14   D    
O27   P4    S    
Ba1   P2    S    
C16   C60   S    
C2    C3    A    
Ba1   O4    S    
C34   H11   S    
O12   P2    S    
C5    O11   D    
C9    C10   A    
C3    O10   D    
C28   H49   S    
C6    C13   A    
C48   C53   A    
C11   C15   A    
O26   P4    D    
C23   H8    S    
C61   O9    S    
Ba1   O30   S    
C1    H4    S    
C32   H47   S    
C38   P3    S    
C27   C29   A    
C34   H10   S    
C45   C56   S    
O9    P8    S    
Ba2   O30   S    
C47   C51   A    
C17   N2    Am   
C15   C17   A    
O8    P8    D    
C26   C63   A    
C49   C53   A    
C58   O22   D    
C5    N1    Am   
Ba1   O27   S    
C49   P7    S    
C8    C9    A    
C25   C30   A    
C23   C34   S    
C61   C62   S    
C20   P8    S    
C10   C11   A    
C54   H57   S    
C47   C48   A    
C25   C26   A    
C28   C40   S    
C2    C7    A    
C2    C8    A    
C60   H53   S    
C40   H23   S    
O1    P1    D    
