data_mof_unit_7974.cif
_audit_creation_date              2012-12-11T15:31:50-0500
_audit_creation_method            fapswitch 2.2
_symmetry_space_group_name_H-M    P1
_symmetry_Int_Tables_number       1
_space_group_crystal_system       triclinic
_cell_length_a                    13.556934
_cell_length_b                    13.582304
_cell_length_c                    27.667371
_cell_angle_alpha                 90.390958
_cell_angle_beta                  90.165828
_cell_angle_gamma                 119.885334
_cell_volume                      4416.84893685

loop_
_atom_site_label
_atom_site_type_symbol
_atom_type_description
_atom_site_fract_x
_atom_site_fract_y
_atom_site_fract_z
_atom_type_partial_charge
C1    C     C_R   0.619914 0.898158 0.431462 0.546901
C2    C     C_R   0.612075 0.237430 0.208769 -0.128985
C3    C     C_R   0.600489 0.220300 0.258652 -0.129943
C4    C     C_R   0.660858 0.311643 0.290771 0.020944
C5    C     C_R   0.683942 0.346155 0.190783 0.024989
C6    C     C_1   0.692653 0.366145 0.139598 -0.056723
C7    C     C_1   0.647854 0.291613 0.341937 -0.066589
C8    C     C_1   0.701291 0.391320 0.097535 -0.007933
C9    C     C_1   0.232190 0.862291 0.382724 -0.017740
C10   C     C_R   0.119105 0.887679 0.268286 0.281876
C11   C     C_R   0.101900 0.879151 0.217755 -0.104287
C12   C     C_R   0.599732 0.218741 0.431358 0.544211
C13   C     C_R   0.217194 0.789403 0.209907 -0.131124
C14   C     C_R   0.232532 0.795266 0.259991 -0.167374
C15   C     C_R   0.182688 0.842888 0.289334 0.049189
C16   C     C_R   0.151717 0.831040 0.188650 -0.007401
C17   C     C_1   0.126863 0.814933 0.137607 -0.056500
C18   C     C_1   0.204802 0.852149 0.340672 -0.016871
C19   C     C_1   0.097884 0.794914 0.095769 -0.012486
C20   C     C_1   0.637698 0.864487 0.384498 0.004487
C21   C     C_R   0.596962 0.724093 0.270100 -0.164886
C22   C     C_R   0.598210 0.710452 0.219240 0.280750
C23   C     C_R   0.279443 0.878826 0.430539 0.537980
C24   C     C_R   0.735264 0.912889 0.213648 -0.162123
C25   C     C_R   0.730572 0.926862 0.263929 0.280819
C26   C     C_R   0.661515 0.831153 0.291942 0.017213
C27   C     C_R   0.668310 0.806800 0.191487 0.010258
C28   C     C_1   0.679384 0.796207 0.140101 -0.003692
C29   C     C_1   0.649787 0.845201 0.342979 -0.005056
C30   C     C_1   0.694871 0.786146 0.097885 -0.000410
C31   C     C_R   0.632735 0.265893 0.617992 0.032642
C32   C     C_R   0.705325 0.239171 0.643942 -0.104524
C33   C     C_R   0.709239 0.246002 0.693708 -0.139880
C34   C     C_R   0.620497 0.901082 0.568890 0.649602
C35   C     C_R   0.646283 0.286370 0.718210 0.033549
C36   C     C_R   0.580026 0.321167 0.692257 -0.117395
C37   C     C_R   0.572357 0.309891 0.642244 -0.134517
C38   C     C_R   0.562329 0.276581 0.798893 -0.148058
C39   C     C_R   0.577960 0.309658 0.847135 -0.182748
C40   C     C_R   0.780284 0.372018 0.840702 0.268422
C41   C     C_R   0.764200 0.343992 0.791838 -0.098509
C42   C     C_R   0.656584 0.299446 0.770581 -0.010854
C43   C     C_R   0.687678 0.364045 0.867464 0.023528
C44   C     C_R   0.231649 0.867773 0.616358 -0.003432
C45   C     C_R   0.600750 0.221235 0.569058 0.562151
C46   C     C_R   0.269934 0.963859 0.646298 -0.137754
C47   C     C_R   0.244975 0.951485 0.695052 -0.134808
C48   C     C_R   0.179118 0.843151 0.714396 0.080838
C49   C     C_R   0.136255 0.745862 0.684505 0.272780
C50   C     C_R   0.162531 0.759217 0.635124 -0.113122
C51   C     C_R   0.185234 0.763274 0.793621 -0.135853
C52   C     C_R   0.154812 0.743100 0.841941 -0.128715
C53   C     C_R   0.078209 0.870701 0.837260 -0.125711
C54   C     C_R   0.105637 0.888996 0.788274 0.241644
C55   C     C_R   0.157033 0.832485 0.766308 0.099259
C56   C     C_R   0.280713 0.882116 0.568422 0.572209
C57   C     C_R   0.098377 0.794339 0.863634 -0.005665
C58   C     C_R   0.628676 0.877220 0.619333 0.117927
C59   C     C_R   0.678851 0.813184 0.633438 0.178690
C60   C     C_R   0.682078 0.791377 0.682820 -0.122251
C61   C     C_R   0.636963 0.834355 0.717171 -0.038297
C62   C     C_R   0.587077 0.897757 0.702623 -0.144267
C63   C     C_R   0.581364 0.918632 0.653648 0.185247
C64   C     C_R   0.696507 0.908559 0.800538 -0.115008
C65   C     C_R   0.713636 0.891735 0.848667 -0.134529
C66   C     C_R   0.617716 0.688173 0.834041 -0.126011
C67   C     C_1   0.630580 0.265237 0.383852 -0.013152
C68   C     C_R   0.602432 0.705182 0.785753 -0.119584
C69   C     C_R   0.644244 0.815543 0.768636 0.042253
C70   C     C_R   0.677032 0.781706 0.865325 0.024629
C71   C     C_R   0.049238 0.761058 0.048265 0.543095
C72   C     C_R   0.714276 0.435793 0.049730 0.540643
C73   C     C_R   0.723915 0.770517 0.049725 0.541134
C74   C     C_R   0.043904 0.755932 0.910526 0.553610
C75   C     C_R   0.708032 0.427975 0.912623 0.553461
C76   C     C_R   0.717194 0.765077 0.911894 0.540516
C77   C     C_R   0.732630 0.420475 0.272821 -0.124250
C78   C     C_R   0.743964 0.437703 0.222887 -0.109011
Cr1   Cr    Cr6+3 0.417720 0.831920 0.499820 1.047868
Cr2   Cr    Cr6+3 0.668190 0.085770 0.500360 1.046346
Cr3   Cr    Cr6+3 0.414060 0.082260 0.499840 1.029902
Cr4   Cr    Cr6+3 0.908000 0.821090 0.979770 1.012703
Cr5   Cr    Cr6+3 0.912420 0.571130 0.979880 1.039518
Cr6   Cr    Cr6+3 0.657970 0.566940 0.980940 1.025734
H1    H     H_    0.779344 0.491707 0.297289 0.123009
H2    H     H_    0.792286 0.984186 0.191628 0.106259
H3    H     H_    0.751974 0.203629 0.626330 0.150678
H4    H     H_    0.477930 0.239156 0.783077 0.116456
H5    H     H_    0.505490 0.299487 0.867583 0.135857
H6    H     H_    0.760268 0.217932 0.713059 0.098995
H7    H     H_    0.838051 0.365009 0.769897 0.114065
H8    H     H_    0.533334 0.355667 0.710632 0.108036
H9    H     H_    0.798961 0.522437 0.209299 0.131110
H10   H     H_    0.515627 0.330570 0.622845 0.127643
H11   H     H_    0.325355 0.048527 0.632732 0.152868
H12   H     H_    0.227644 0.722068 0.777033 0.109655
H13   H     H_    0.171454 0.684328 0.861758 0.137134
H14   H     H_    0.279612 0.026466 0.718028 0.141903
H15   H     H_    0.034040 0.910271 0.853730 0.123688
H16   H     H_    0.130992 0.685470 0.611624 0.118095
H17   H     H_    0.564599 0.166306 0.184333 0.110872
H18   H     H_    0.728700 0.994328 0.787661 0.104998
H19   H     H_    0.759314 0.964611 0.872379 0.116660
H20   H     H_    0.721223 0.742788 0.694613 0.127636
H21   H     H_    0.560749 0.632719 0.761467 0.107099
H22   H     H_    0.589861 0.602537 0.846043 0.134010
H23   H     H_    0.551653 0.929814 0.729410 0.105813
H24   H     H_    0.544578 0.135735 0.272212 0.112051
H25   H     H_    0.048408 0.908225 0.201350 0.109048
H26   H     H_    0.254860 0.750715 0.187850 0.123432
H27   H     H_    0.283463 0.762555 0.275909 0.114751
H28   H     H_    0.547062 0.652670 0.293322 0.103349
O1    O     O_R   0.302900 0.805360 0.446400 -0.511217
O2    O     O_R   0.657980 0.180990 0.549630 -0.497382
O3    O     O_R   0.503420 0.197810 0.553190 -0.518244
O4    O     O_R   0.320350 0.978840 0.548910 -0.494066
O5    O     O_3   0.499990 0.999990 0.500010 -0.244688
O6    O     O_R   0.819150 0.845650 0.033320 -0.515723
O7    O     O_R   0.006060 0.815720 0.028680 -0.495779
O8    O     O_R   0.028100 0.664460 0.032550 -0.511525
O9    O     O_R   0.811290 0.477490 0.029660 -0.505725
O10   O     O_R   0.638120 0.455970 0.034270 -0.501830
O11   O     O_R   0.667540 0.672320 0.030160 -0.485003
O12   O     O_R   0.522090 0.841370 0.450730 -0.503939
O13   O     O_R   0.814460 0.840990 0.926980 -0.521583
O14   O     O_R   0.001710 0.811400 0.930110 -0.509854
O15   O     O_R   0.023410 0.659800 0.926210 -0.485982
O16   O     O_R   0.806940 0.473170 0.931090 -0.448932
O17   O     O_R   0.633420 0.451310 0.927930 -0.534973
O18   O     O_R   0.663190 0.668000 0.931580 -0.503388
O19   O     O_3   0.826130 0.653050 0.980200 -0.247791
O20   O     O_R   0.693280 0.995650 0.447220 -0.500038
O21   O     O_R   0.657260 0.178740 0.451050 -0.496995
O22   O     O_R   0.502640 0.195380 0.446850 -0.512247
O23   O     O_R   0.319630 0.976590 0.450330 -0.501172
O24   O     O_R   0.303680 0.807790 0.552740 -0.507689
O25   O     O_R   0.522820 0.843620 0.549310 -0.480859
O26   O     O_R   0.694060 0.998080 0.553560 -0.504861
O27   O     O_3   0.541983 0.605780 0.195028 -0.559912
C79   C     C_3   0.443503 0.521542 0.218398 0.007779
H29   H     H_    0.379252 0.472960 0.189846 0.152374
H30   H     H_    0.402050 0.556354 0.242327 0.108988
C80   C     C_3   0.470497 0.438645 0.244681 -0.251764
H31   H     H_    0.497087 0.395483 0.217754 0.190340
H32   H     H_    0.541990 0.485070 0.270603 0.171914
C81   C     C_3   0.367356 0.349139 0.271893 -0.491270
H33   H     H_    0.341472 0.389936 0.300218 0.147484
H34   H     H_    0.389238 0.289208 0.289510 0.155415
H35   H     H_    0.295027 0.300642 0.246532 0.132307
O28   O     O_3   0.800605 0.029571 0.287530 -0.572683
C82   C     C_3   0.801185 0.123086 0.264888 0.010284
H36   H     H_    0.781543 0.169472 0.292986 0.166589
H37   H     H_    0.735291 0.099454 0.236033 0.118532
C83   C     C_3   0.920079 0.203453 0.245289 -0.273049
H38   H     H_    0.982406 0.234054 0.275646 0.161396
H39   H     H_    0.945067 0.157675 0.219075 0.151167
C84   C     C_3   0.924912 0.305661 0.220489 -0.471369
H40   H     H_    0.863956 0.277477 0.189653 0.160221
H41   H     H_    0.011988 0.361726 0.206558 0.142278
H42   H     H_    0.904226 0.354977 0.246624 0.166983
O29   O     O_3   0.889956 0.426904 0.859596 -0.537215
C85   C     C_3   0.934182 0.351993 0.861537 0.008706
H43   H     H_    0.028112 0.404929 0.865168 0.149240
H44   H     H_    0.917978 0.300627 0.827851 0.099942
C86   C     C_3   0.888680 0.274195 0.905570 -0.266161
H45   H     H_    0.904204 0.326487 0.938809 0.179803
H46   H     H_    0.795497 0.216338 0.901421 0.145523
C87   C     C_3   0.946516 0.203017 0.911079 -0.484865
H47   H     H_    0.934709 0.152179 0.877740 0.142287
H48   H     H_    0.908671 0.144234 0.941935 0.156237
H49   H     H_    0.038978 0.258847 0.918149 0.145426
O30   O     O_3   0.077515 0.956140 0.760747 -0.709306
H50   H     H_    0.041049 0.988304 0.781665 0.316916
O31   O     O_3   0.060418 0.640507 0.703380 -0.560817
C88   C     C_3   0.098272 0.561252 0.696457 -0.004007
H51   H     H_    0.105770 0.530627 0.732684 0.146884
H52   H     H_    0.183542 0.596528 0.679209 0.113116
C89   C     C_3   0.009468 0.460232 0.666867 -0.260192
H53   H     H_    0.925036 0.427943 0.683871 0.187508
H54   H     H_    0.004793 0.487832 0.629653 0.161185
C90   C     C_3   0.037488 0.364594 0.664288 -0.484259
H55   H     H_    0.121804 0.395078 0.647270 0.155309
H56   H     H_    0.971905 0.293258 0.642213 0.151224
H57   H     H_    0.038324 0.332870 0.701107 0.142716
O32   O     O_3   0.723351 0.773134 0.598708 -0.706905
H58   H     H_    0.755056 0.729826 0.614814 0.332325
O33   O     O_3   0.529519 0.978581 0.638260 -0.702840
H59   H     H_    0.501385 0.001714 0.666756 0.317361
O34   O     O_3   0.069262 0.933213 0.297861 -0.552841
C91   C     C_3   0.107733 0.047393 0.285253 0.013845
H60   H     H_    0.054627 0.049996 0.255130 0.125645
H61   H     H_    0.198756 0.093020 0.273947 0.111237
C92   C     C_3   0.095497 0.110942 0.328555 -0.232356
H62   H     H_    0.121294 0.199042 0.317628 0.100020
H63   H     H_    0.005026 0.068565 0.339923 0.214082
C93   C     C_3   0.169803 0.116082 0.371206 -0.386729
H64   H     H_    0.141831 0.029412 0.384787 0.196527
H65   H     H_    0.162276 0.167070 0.400998 0.129659
H66   H     H_    0.260436 0.156551 0.360313 0.146592

loop_
_geom_bond_atom_site_label_1
_geom_bond_atom_site_label_2
_ccdc_geom_bond_type
C57   C74   S    
C48   C55   S    
C66   C68   A    
C21   C26   A    
C84   H40   S    
Cr2   O20   S    
C72   O9    A    
C11   H25   S    
C41   C42   A    
C52   H13   S    
C15   C18   S    
C19   C71   S    
C35   C36   A    
C79   C80   S    
Cr5   O16   S    
C1    O20   A    
O29   C85   S    
Cr3   O22   S    
C88   H52   S    
C66   C70   A    
C77   C78   A    
C53   H15   S    
Cr6   O11   S    
C64   H18   S    
Cr1   O24   S    
C86   H45   S    
C47   H14   S    
C71   O8    A    
C36   C37   A    
C79   H30   S    
C38   C42   A    
C10   C15   A    
C93   H66   S    
C5    C6    S    
Cr2   O26   S    
C80   H31   S    
C78   H9    S    
Cr6   O10   S    
C65   C70   A    
C81   H35   S    
Cr3   O5    S    
Cr6   O17   S    
Cr3   O4    S    
C75   O16   A    
C82   C83   S    
C35   C42   S    
C44   C56   S    
O31   C88   S    
Cr4   O14   S    
C91   C92   S    
C17   C19   T    
C46   C47   A    
C76   O18   A    
C45   O2    A    
C40   C43   A    
C46   H11   S    
C47   C48   A    
C16   C17   S    
C92   H63   S    
C82   H36   S    
C24   C27   A    
C13   C14   A    
Cr4   O19   S    
C83   H39   S    
C61   C62   A    
C51   H12   S    
C72   O10   A    
C36   H8    S    
C87   H48   S    
C77   H1    S    
C59   C60   A    
C86   H46   S    
C12   O22   A    
C21   C22   A    
C76   O13   A    
C14   H27   S    
Cr4   O7    S    
C66   H22   S    
C4    C7    S    
C49   O31   S    
C56   O24   A    
C44   C46   A    
Cr3   O23   S    
C88   C89   S    
C81   H34   S    
C20   C29   T    
C87   H49   S    
C43   C75   S    
C38   C39   A    
C12   C67   S    
C74   O15   A    
C8    C72   S    
C10   O34   S    
C51   C52   A    
C54   O30   S    
C24   C25   A    
C83   C84   S    
C93   H65   S    
C52   C57   A    
C90   H56   S    
C30   C73   S    
C53   C57   A    
C9    C23   S    
C6    C8    T    
C62   H23   S    
C2    H17   S    
C73   O11   A    
C58   C59   A    
C53   C54   A    
C32   H3    S    
C22   O27   S    
C34   O26   A    
Cr5   O9    S    
Cr2   O21   S    
C31   C37   A    
C38   H4    S    
C25   O28   S    
Cr5   O8    S    
C90   H55   S    
Cr4   O13   S    
Cr5   O19   S    
C62   C63   A    
C23   O1    A    
C85   C86   S    
C11   C16   A    
C45   O3    A    
C88   H51   S    
C92   C93   S    
Cr3   O3    S    
C56   O4    A    
C64   C69   A    
C79   H29   S    
C13   H26   S    
C83   H38   S    
C40   C41   A    
Cr1   O25   S    
Cr2   O2    S    
C92   H62   S    
C84   H42   S    
C63   O33   S    
C22   C27   A    
Cr1   O1    S    
C70   C76   S    
C2    C5    A    
C91   H60   S    
C80   C81   S    
C65   H19   S    
C31   C45   S    
C3    C4    A    
C21   H28   S    
O30   H50   S    
C81   H33   S    
C90   H57   S    
C44   C50   A    
C58   C63   A    
C80   H32   S    
C54   C55   A    
C87   H47   S    
C1    C20   S    
C91   H61   S    
C73   O6    A    
C34   O25   A    
C41   H7    S    
C14   C15   A    
C68   C69   A    
C31   C32   A    
Cr5   O15   S    
C93   H64   S    
C89   H54   S    
O27   C79   S    
C86   C87   S    
C23   O23   A    
C3    H24   S    
C85   H43   S    
Cr1   O12   S    
Cr6   O19   S    
C50   H16   S    
C71   O7    A    
C12   O21   A    
C61   C69   S    
C64   C65   A    
C28   C30   T    
C2    C3    A    
C25   C26   A    
C1    O12   A    
C40   O29   S    
C85   H44   S    
C33   H6    S    
C32   C33   A    
O32   H58   S    
C74   O14   A    
C48   C49   A    
Cr1   O5    S    
Cr2   O5    S    
Cr6   O18   S    
C33   C35   A    
C37   H10   S    
C59   O32   S    
C51   C55   A    
C82   H37   S    
O34   C91   S    
C89   C90   S    
C10   C11   A    
C7    C67   T    
C9    C18   T    
C4    C77   A    
C39   C43   A    
C26   C29   S    
C84   H41   S    
C49   C50   A    
C68   H21   S    
C13   C16   A    
C27   C28   S    
C34   C58   S    
Cr4   O6    S    
O28   C82   S    
C60   C61   A    
O33   H59   S    
C5    C78   A    
C60   H20   S    
C24   H2    S    
C39   H5    S    
C75   O17   A    
C89   H53   S    
