data_mof_unit_23394.cif
_audit_creation_date              2013-03-05T16:02:15-0500
_audit_creation_method            fapswitch 2.2
_symmetry_space_group_name_H-M    P1
_symmetry_Int_Tables_number       1
_space_group_crystal_system       triclinic
_cell_length_a                    21.74015
_cell_length_b                    6.923708
_cell_length_c                    14.746622
_cell_angle_alpha                 90.003054
_cell_angle_beta                  104.944312
_cell_angle_gamma                 90.00087
_cell_volume                      2144.62067752

loop_
_atom_site_label
_atom_site_type_symbol
_atom_site_description
_atom_site_fract_x
_atom_site_fract_y
_atom_site_fract_z
_atom_type_partial_charge
O1    O     O_R   0.835850 0.638310 0.002120 -0.561099
O2    O     O_R   0.164150 0.361690 0.997880 -0.557067
O3    O     O_R   0.664150 0.138310 0.997880 -0.557080
O4    O     O_R   0.335850 0.861690 0.002120 -0.561101
O5    O     O_R   0.717530 0.306070 0.861970 -0.558467
O6    O     O_R   0.282470 0.693930 0.138030 -0.562790
O7    O     O_R   0.782470 0.806070 0.138030 -0.562711
O8    O     O_R   0.217530 0.193930 0.861970 -0.558432
C1    C     C_R   0.703577 0.477273 0.824818 1.012006
C2    C     C_R   0.296824 0.521385 0.175093 1.010073
C3    C     C_R   0.796812 0.978630 0.175092 1.010001
C4    C     C_R   0.203580 0.022712 0.824817 1.012026
O9    O     O_R   0.838690 0.308440 0.993250 -0.606962
O10   O     O_R   0.161310 0.691560 0.006750 -0.607694
O11   O     O_R   0.661310 0.808440 0.006750 -0.607738
O12   O     O_R   0.338690 0.191560 0.993250 -0.606980
O13   O     O_R   0.786170 0.140510 0.130090 -0.622863
O14   O     O_R   0.213830 0.859490 0.869910 -0.606856
O15   O     O_R   0.713830 0.640510 0.869910 -0.606854
O16   O     O_R   0.286170 0.359490 0.130090 -0.622922
C5    C     C_R   0.864821 0.477647 0.995316 0.947126
C6    C     C_R   0.135506 0.522467 0.006626 0.941642
C7    C     C_R   0.635502 0.977527 0.006604 0.941683
C8    C     C_R   0.364821 0.022354 0.995314 0.947196
O17   O     O_3   0.732630 0.472520 0.044740 -0.279901
O18   O     O_3   0.267370 0.527480 0.955260 -0.267040
O19   O     O_3   0.767370 0.972520 0.955260 -0.267060
O20   O     O_3   0.232630 0.027480 0.044740 -0.279933
V1    V     V_3+5 0.753220 0.196740 0.991700 1.236478
V2    V     V_3+5 0.246780 0.803260 0.008300 1.232859
V3    V     V_3+5 0.746780 0.696740 0.008300 1.232986
V4    V     V_3+5 0.253220 0.303260 0.991700 1.236388
C9    C     C_R   0.538020 0.863876 0.842897 -0.074028
C10   C     C_R   0.461834 0.133776 0.159148 -0.103082
C11   C     C_R   0.961821 0.366266 0.159158 -0.102604
C12   C     C_R   0.038030 0.636002 0.842907 -0.074026
C13   C     C_R   0.492869 0.806115 0.762448 -0.179882
C14   C     C_R   0.506020 0.159252 0.244622 -0.176462
C15   C     C_R   0.006004 0.340703 0.244626 -0.176724
C16   C     C_R   0.992883 0.693704 0.762447 -0.179942
C17   C     C_R   0.428379 0.807665 0.759741 0.383661
C18   C     C_R   0.570282 0.119006 0.254659 0.383861
C19   C     C_R   0.070272 0.380852 0.254664 0.383612
C20   C     C_R   0.928393 0.692169 0.759735 0.383658
C21   C     C_R   0.408920 0.873574 0.837807 -0.295854
C22   C     C_R   0.590884 0.070390 0.174304 -0.311759
C23   C     C_R   0.090879 0.429511 0.174319 -0.311629
C24   C     C_R   0.908929 0.626333 0.837808 -0.295843
C25   C     C_R   0.453778 0.938239 0.919741 0.064463
C26   C     C_R   0.546555 0.043614 0.085915 0.063946
C27   C     C_R   0.046553 0.456362 0.085933 0.063986
C28   C     C_R   0.953784 0.561718 0.919751 0.064489
C29   C     C_R   0.519860 0.929709 0.922971 0.109664
C30   C     C_R   0.480392 0.066082 0.079916 0.123234
C31   C     C_R   0.980387 0.433935 0.079930 0.123076
C32   C     C_R   0.019867 0.570237 0.922987 0.109688
C33   C     C_R   0.433854 0.012420 0.997312 -0.234341
C34   C     C_R   0.566493 0.985193 0.005379 -0.232655
C35   C     C_R   0.066497 0.514786 0.005401 -0.232677
C36   C     C_R   0.933855 0.487586 0.997324 -0.234270
H1    H     H_    0.587357 0.856754 0.840996 0.161172
H2    H     H_    0.412516 0.158923 0.157758 0.151124
H3    H     H_    0.912499 0.341170 0.157766 0.151310
H4    H     H_    0.087368 0.643102 0.841005 0.161177
H5    H     H_    0.508494 0.756853 0.702392 0.169613
H6    H     H_    0.489113 0.202268 0.304443 0.181603
H7    H     H_    0.989095 0.297654 0.304440 0.181708
H8    H     H_    0.008511 0.742904 0.702386 0.169610
H9    H     H_    0.358414 0.876757 0.832888 0.128939
H10   H     H_    0.641065 0.044364 0.182083 0.133017
H11   H     H_    0.141064 0.455478 0.182099 0.133005
H12   H     H_    0.858422 0.623159 0.832884 0.128936
C37   C     C_R   0.174605 0.007864 0.723279 -0.282527
C38   C     C_R   0.825176 0.004481 0.276389 -0.299486
C39   C     C_R   0.325180 0.495557 0.276397 -0.299919
C40   C     C_R   0.674598 0.492063 0.723280 -0.282547
C41   C     C_R   0.181755 0.881793 0.573911 -0.066013
C42   C     C_R   0.822459 0.186533 0.415336 -0.049286
C43   C     C_R   0.322441 0.313391 0.415301 -0.049688
C44   C     C_R   0.681756 0.617921 0.573882 -0.065941
C45   C     C_R   0.208078 0.909968 0.669064 -0.156338
C46   C     C_R   0.796105 0.139544 0.322182 -0.099929
C47   C     C_R   0.296101 0.360449 0.322155 -0.100128
C48   C     C_R   0.708071 0.589893 0.669047 -0.156363
C49   C     C_R   0.112774 0.076824 0.681733 0.280876
C50   C     C_R   0.886110 0.933217 0.322047 0.273885
C51   C     C_R   0.386112 0.566843 0.322102 0.273593
C52   C     C_R   0.612775 0.423016 0.681740 0.280912
C53   C     C_R   0.080612 0.018010 0.588224 -0.021317
C54   C     C_R   0.919044 0.010823 0.411535 -0.029692
C55   C     C_R   0.419043 0.489026 0.411547 -0.029371
C56   C     C_R   0.580616 0.481696 0.588214 -0.021268
C57   C     C_R   0.118170 0.933733 0.532332 0.103553
C58   C     C_R   0.883417 0.120295 0.461751 0.085262
C59   C     C_R   0.383405 0.379550 0.461736 0.085073
C60   C     C_R   0.618175 0.565908 0.532307 0.103448
C61   C     C_R   0.013296 0.040458 0.547753 0.086227
C62   C     C_R   0.986176 0.990164 0.451793 0.104039
C63   C     C_R   0.486183 0.509503 0.451787 0.104325
C64   C     C_R   0.513299 0.459220 0.547745 0.086006
C65   C     C_R   0.027498 0.938494 0.396478 -0.161386
C66   C     C_R   0.971556 0.105018 0.600398 -0.143715
C67   C     C_R   0.471552 0.394677 0.600381 -0.143702
C68   C     C_R   0.527506 0.561025 0.396453 -0.160217
C69   C     C_R   0.092079 0.908286 0.435399 0.058445
C70   C     C_R   0.909416 0.160309 0.557312 0.052664
C71   C     C_R   0.409404 0.339449 0.557286 0.052663
C72   C     C_R   0.592087 0.591244 0.435366 0.058331
H13   H     H_    0.752005 0.208189 0.285227 0.164153
H14   H     H_    0.255931 0.862223 0.700680 0.182279
H15   H     H_    0.755921 0.637683 0.700657 0.182305
H16   H     H_    0.252005 0.291807 0.285173 0.164238
H17   H     H_    0.210906 0.812752 0.533815 0.168793
H18   H     H_    0.795843 0.281864 0.449414 0.144013
H19   H     H_    0.295815 0.218041 0.449351 0.144120
H20   H     H_    0.710907 0.686910 0.533774 0.168794
H21   H     H_    0.010866 0.931341 0.321035 0.151836
H22   H     H_    0.985702 0.113170 0.675692 0.160987
H23   H     H_    0.485695 0.386487 0.675674 0.161044
H24   H     H_    0.510848 0.568211 0.321007 0.151631
N1    N     N_R   0.613372 0.118957 0.347019 0.223511
O21   O     O_R   0.672807 0.073510 0.358908 -0.454505
O22   O     O_R   0.591835 0.138422 0.421091 -0.399931
N2    N     N_R   0.382531 0.742014 0.677463 0.210996
O23   O     O_R   0.335437 0.633334 0.685345 -0.448121
O24   O     O_R   0.390309 0.777866 0.594507 -0.423484
N3    N     N_R   0.882548 0.757751 0.677443 0.210994
O25   O     O_R   0.835450 0.866437 0.685303 -0.448150
O26   O     O_R   0.890332 0.721838 0.594496 -0.423454
N4    N     N_R   0.113366 0.380730 0.347022 0.223509
O27   O     O_R   0.172810 0.426091 0.358924 -0.454491
O28   O     O_R   0.091831 0.361162 0.421089 -0.400162
C73   C     C_1   0.131563 0.869567 0.372040 0.153329
N5    N     N_1   0.163092 0.841101 0.321063 -0.052187
C74   C     C_1   0.871988 0.246900 0.614759 0.227020
N6    N     N_1   0.841818 0.314919 0.660655 -0.060931
C75   C     C_1   0.371965 0.252860 0.614716 0.227010
N7    N     N_1   0.341787 0.184843 0.660598 -0.060924
C76   C     C_1   0.631566 0.629965 0.372003 0.153277
N8    N     N_1   0.663091 0.658439 0.321022 -0.052131
N9    N     N_R   0.910906 0.770927 0.282604 0.219390
O29   O     O_R   0.916833 0.776744 0.197072 -0.453462
O30   O     O_R   0.928582 0.617213 0.333413 -0.400830
N10   N     N_R   0.088308 0.228265 0.728656 0.214113
O31   O     O_R   0.073926 0.394035 0.687104 -0.402355
O32   O     O_R   0.081012 0.202486 0.812685 -0.455734
N11   N     N_R   0.588316 0.271620 0.728694 0.214099
O33   O     O_R   0.581008 0.297501 0.812712 -0.455753
O34   O     O_R   0.573954 0.105790 0.687182 -0.402349
N12   N     N_R   0.410921 0.729273 0.282758 0.219455
O35   O     O_R   0.429487 0.881710 0.334050 -0.400808
O36   O     O_R   0.416651 0.723862 0.197124 -0.453293

loop_
_geom_bond_atom_site_label_1
_geom_bond_atom_site_label_2
_geom_bond_distance
_ccdc_geom_bond_type
O17   V3    1.696696 S    
C7    C34   1.496645 S    
C20   N3    1.431236 S    
O1    C5    1.294898 A    
C29   C34   1.420107 A    
C43   H19   1.083040 S    
O19   V1    1.696652 S    
O13   V1    2.018817 S    
O3    C7    1.298083 A    
N11   O33   1.301511 A    
O1    V3    2.003155 S    
C44   C48   1.385755 A    
O15   V3    2.018770 S    
C40   C48   1.388589 A    
C61   C62   1.428634 A    
C74   N6    1.157138 T    
O7    C3    1.317341 A    
O20   V4    2.153776 S    
C26   C30   1.426670 A    
C17   N2    1.431233 S    
O9    V1    2.007321 S    
N11   O34   1.300701 A    
O10   V2    2.007319 S    
C14   C18   1.394517 A    
C51   C55   1.433769 A    
N9    O30   1.301281 A    
O4    C8    1.294908 A    
C56   C60   1.426056 A    
C25   C33   1.419666 A    
O17   V1    2.153714 S    
O2    V4    2.003157 S    
C18   C22   1.411283 A    
O3    V1    2.003147 S    
C28   C36   1.419655 A    
C57   C69   1.406363 A    
C1    O15   1.301031 A    
C58   C70   1.403995 A    
C44   H20   1.083040 S    
C2    O16   1.292730 A    
C8    C33   1.495035 S    
C51   N12   1.433087 S    
C13   H5    1.082209 S    
C4    C37   1.470684 S    
O2    C6    1.298078 A    
N4    O28   1.301651 A    
O14   V2    2.018816 S    
C1    C40   1.470686 S    
C21   C25   1.415478 A    
C44   C60   1.406799 A    
C40   C52   1.409093 A    
C16   C20   1.392284 A    
C61   C66   1.410395 A    
C66   H22   1.074475 S    
O11   C7    1.297986 A    
C63   C68   1.406502 A    
C60   C72   1.406379 A    
O12   C8    1.298940 A    
C31   C36   1.417669 A    
C65   C69   1.388809 A    
C42   H18   1.083040 S    
C24   H12   1.081808 S    
C41   H17   1.083037 S    
C49   N10   1.432095 S    
C37   C45   1.388592 A    
C54   C58   1.420748 A    
O5    V1    2.017300 S    
C9    C29   1.413625 A    
C48   H15   1.076474 S    
O7    V3    2.017216 S    
O19   V3    2.153775 S    
O8    V4    2.017215 S    
C46   H13   1.082864 S    
C52   C56   1.434848 A    
C12   C16   1.389320 A    
C5    C36   1.495023 S    
N10   O32   1.301503 A    
C50   C54   1.433675 A    
C6    C35   1.496662 S    
C49   C53   1.434868 A    
O18   V4    1.696696 S    
C15   C19   1.394505 A    
C21   H9    1.081807 S    
C11   C31   1.410924 A    
C9    C13   1.389325 A    
C53   C61   1.439313 A    
C26   C34   1.423879 A    
C43   C59   1.402567 A    
C71   C75   1.447295 S    
C11   C15   1.384967 A    
N3    O26   1.301310 A    
O5    C1    1.308290 A    
C12   C32   1.413634 A    
C2    C39   1.472681 S    
C42   C46   1.383898 A    
C63   C64   1.428600 A    
C41   C45   1.385749 A    
O8    C4    1.308313 A    
C37   C49   1.409084 A    
O9    C5    1.298933 A    
C38   C50   1.411275 A    
O11   V3    2.007341 S    
C23   H11   1.082247 S    
N1    O21   1.297124 A    
C59   C71   1.404004 A    
C39   C51   1.411397 A    
C70   C74   1.447300 S    
O6    V2    2.017301 S    
O18   V2    2.153713 S    
C73   N5    1.157381 T    
N12   O36   1.301052 A    
C27   C35   1.423924 A    
N3    O25   1.299741 A    
C10   H2    1.081207 S    
C68   C72   1.388795 A    
N1    O22   1.301648 A    
C56   C64   1.439325 A    
N2    O24   1.301310 A    
O16   V4    2.018771 S    
C14   H6    1.081303 S    
C3    O13   1.292687 A    
C53   C57   1.426027 A    
C10   C14   1.384967 A    
C69   C73   1.447507 S    
C15   H7    1.081323 S    
C19   N4    1.440333 S    
C67   H23   1.074461 S    
N10   O31   1.300697 A    
C3    C38   1.472606 S    
O6    C2    1.317344 A    
C72   C76   1.447496 S    
C23   C27   1.419237 A    
C76   N8    1.157382 T    
C10   C30   1.410912 A    
O12   V4    2.007343 S    
C62   C65   1.406523 A    
C75   N7    1.157137 T    
C22   C26   1.419218 A    
N12   O35   1.300540 A    
C32   C35   1.420114 A    
C67   C71   1.390222 A    
C65   H21   1.078632 S    
O10   C6    1.298004 A    
O20   V2    1.696652 S    
N4    O27   1.297112 A    
N9    O29   1.301133 A    
C43   C47   1.383904 A    
C39   C47   1.396474 A    
C42   C58   1.402607 A    
C25   C29   1.426319 A    
C41   C57   1.406797 A    
C52   N11   1.432095 S    
C66   C70   1.390185 A    
C27   C31   1.426678 A    
C64   C67   1.410420 A    
C13   C17   1.392291 A    
O4    V2    2.003145 S    
C22   H10   1.082247 S    
C55   C59   1.420688 A    
C28   C32   1.426313 A    
C24   C28   1.415481 A    
C45   H14   1.076477 S    
C50   N9    1.432891 S    
C9    H1    1.081290 S    
C16   H8    1.082206 S    
C4    O14   1.301012 A    
C17   C21   1.401304 A    
C47   H16   1.082861 S    
C11   H3    1.081207 S    
C55   C63   1.433884 A    
C12   H4    1.081291 S    
C19   C23   1.411321 A    
C54   C62   1.433909 A    
C38   C46   1.396434 A    
C20   C24   1.401304 A    
C18   N1    1.440333 S    
N2    O23   1.299743 A    
C68   H24   1.078725 S    
C30   C33   1.417670 A    
