data_mof_unit_13392.cif
_audit_creation_date              2012-12-10T16:57:08-0500
_audit_creation_method            fapswitch 2.2
_symmetry_space_group_name_H-M    P1
_symmetry_Int_Tables_number       1
_space_group_crystal_system       triclinic
_cell_length_a                    7.828519
_cell_length_b                    8.678247
_cell_length_c                    16.901127
_cell_angle_alpha                 93.812822
_cell_angle_beta                  81.34015
_cell_angle_gamma                 92.864061
_cell_volume                      1131.69358637

loop_
_atom_site_label
_atom_site_type_symbol
_atom_type_description
_atom_site_fract_x
_atom_site_fract_y
_atom_site_fract_z
_atom_type_partial_charge
C1    C     C_R   0.544754 0.794727 0.502720 0.845689
C2    C     C_R   0.367600 0.486961 0.229181 -0.302977
C3    C     C_R   0.610017 0.664312 0.846735 0.531899
C4    C     C_R   0.365653 0.479820 0.146833 0.575160
C5    C     C_R   0.467692 0.614931 0.900655 -0.017145
C6    C     C_R   0.522235 0.460619 0.095288 0.021336
C7    C     C_R   0.324017 0.537472 0.873555 -0.210166
C8    C     C_R   0.678025 0.452246 0.125551 -0.265198
C9    C     C_R   0.326320 0.501252 0.792259 -0.211735
C10   C     C_R   0.678231 0.460161 0.207735 -0.194386
C11   C     C_2   0.486869 0.610101 0.985007 0.464691
C12   C     C_R   0.454927 0.207608 0.508394 0.852263
C13   C     C_2   0.523910 0.472245 0.009325 0.388985
C14   C     C_3   0.645936 0.235362 0.970507 -0.307596
C15   C     C_3   0.396892 0.862029 0.013039 -0.299385
C16   C     C_3   0.124781 0.621533 0.145759 -0.354439
C17   C     C_3   0.885346 0.654479 0.873466 -0.322988
C18   C     C_3   0.862001 0.987029 0.462120 -0.147750
C19   C     C_3   0.188190 0.041565 0.618371 -0.285809
C20   C     C_3   0.972732 0.320593 0.361763 -0.213549
C21   C     C_3   0.034657 0.682938 0.636247 -0.143860
C22   C     C_2   0.569378 0.959100 0.513646 0.177734
C23   C     C_2   0.429421 0.048239 0.524233 0.216627
C24   C     C_R   0.478767 0.507358 0.653463 0.844491
C25   C     C_R   0.520471 0.493945 0.346240 0.864502
C26   C     C_R   0.472610 0.542356 0.738528 -0.070592
C27   C     C_R   0.523561 0.480851 0.259828 -0.093907
C28   C     C_R   0.609668 0.629548 0.765426 -0.283716
H1    H     H_    0.715533 0.670784 0.723223 0.174203
H2    H     H_    0.466509 0.912441 0.957978 0.198313
H3    H     H_    0.384520 0.955289 0.061461 0.188854
H4    H     H_    0.263765 0.821063 0.003987 0.150307
H5    H     H_    0.213600 0.724747 0.150909 0.196942
H6    H     H_    0.047460 0.602916 0.205088 0.155542
H7    H     H_    0.034392 0.647662 0.104288 0.194970
H8    H     H_    0.932419 0.604383 0.812361 0.148157
H9    H     H_    0.850467 0.560787 0.915454 0.159914
H10   H     H_    0.993824 0.725058 0.894345 0.194263
H11   H     H_    0.815002 0.980386 0.402888 0.083526
H12   H     H_    0.247186 0.498902 0.269061 0.169016
H13   H     H_    0.926002 0.879930 0.471146 0.227708
H14   H     H_    0.965211 0.078468 0.461639 0.237249
H15   H     H_    0.201984 0.168587 0.630525 0.169666
H16   H     H_    0.246994 0.983074 0.663656 0.133714
H17   H     H_    0.047294 0.013531 0.626546 0.217243
H18   H     H_    0.968106 0.428550 0.330651 0.148629
H19   H     H_    0.843896 0.261329 0.374307 0.186277
H20   H     H_    0.056576 0.241438 0.320615 0.139258
H21   H     H_    0.167555 0.730024 0.620593 0.216936
H22   H     H_    0.029576 0.578735 0.671464 0.136880
H23   H     H_    0.798748 0.451406 0.230352 0.156613
H24   H     H_    0.964496 0.774465 0.674654 0.124425
H25   H     H_    0.217328 0.437291 0.771658 0.144185
H26   H     H_    0.215555 0.497253 0.915846 0.166407
H27   H     H_    0.799442 0.443012 0.085722 0.166160
H28   H     H_    0.605400 0.181194 0.028489 0.181539
H29   H     H_    0.777878 0.290465 0.967400 0.150368
H30   H     H_    0.652488 0.141717 0.922339 0.213961
N1    N     N_2   0.953500 0.457650 0.478520 0.199491
N2    N     N_2   0.046500 0.542350 0.521480 0.190890
O1    O     O_R   0.388470 0.738640 0.505270 -0.596848
O2    O     O_3   0.490485 0.742467 0.036729 -0.627201
O3    O     O_3   0.212772 0.487026 0.114962 -0.631388
O4    O     O_3   0.745561 0.750833 0.873572 -0.617318
O5    O     O_3   0.731074 0.022523 0.527094 -0.606875
O6    O     O_3   0.260177 0.989623 0.539768 -0.605402
O7    O     O_3   0.046582 0.350652 0.431848 -0.527043
O8    O     O_3   0.955074 0.650486 0.568029 -0.527938
O9    O     O_R   0.611530 0.261360 0.494730 -0.601990
O10   O     O_R   0.679650 0.711510 0.491500 -0.589020
O11   O     O_R   0.320350 0.288490 0.508500 -0.565423
O12   O     O_R   0.337210 0.515200 0.623500 -0.683105
O13   O     O_R   0.662790 0.484800 0.376500 -0.668989
O14   O     O_R   0.628380 0.488060 0.609730 -0.576207
O15   O     O_R   0.371620 0.511940 0.390270 -0.587337
O16   O     O_3   0.524976 0.341389 0.956392 -0.628576
Zn1   Zn    Zn3+2 0.305580 0.518120 0.509190 1.029960
Zn2   Zn    Zn3+2 0.694420 0.481880 0.490810 1.030914

loop_
_geom_bond_atom_site_label_1
_geom_bond_atom_site_label_2
_ccdc_geom_bond_type
C10   C27   A    
C3    C28   A    
C14   H28   S    
C12   O9    A    
C19   H17   S    
C22   O5    S    
C15   H3    S    
O12   Zn1   S    
C16   O3    S    
C16   H5    S    
O10   Zn2   S    
C11   C13   D    
C20   O7    S    
C2    C4    A    
C1    O10   A    
C4    O3    S    
C13   O16   S    
C18   H11   S    
C11   O2    S    
C16   H6    S    
C19   O6    S    
C21   H24   S    
C21   H21   S    
C5    C7    A    
C15   H4    S    
C21   O8    S    
N1    N2    D    
C17   H9    S    
C3    O4    S    
C25   O15   A    
C18   O5    S    
O15   Zn1   S    
C12   C23   S    
C24   O14   A    
O9    Zn2   S    
C2    C27   A    
C15   H2    S    
C10   H23   S    
C8    H27   S    
C4    C6    A    
C21   H22   S    
C17   H8    S    
C12   O11   A    
C19   H15   S    
C9    C26   A    
C5    C11   S    
C25   O13   A    
C17   H10   S    
C18   H14   S    
C16   H7    S    
C14   H30   S    
N2    Zn1   S    
C20   H19   S    
C25   C27   S    
N2    O8    S    
C23   O6    S    
C2    H12   S    
O11   Zn1   S    
C9    H25   S    
C19   H16   S    
C24   O12   A    
C6    C13   S    
C8    C10   A    
O14   Zn2   S    
C18   H13   S    
O1    Zn1   S    
C7    C9    A    
C14   H29   S    
C22   C23   D    
C28   H1    S    
C1    C22   S    
C6    C8    A    
C17   O4    S    
C20   H20   S    
C7    H26   S    
N1    O7    S    
C14   O16   S    
O13   Zn2   S    
C26   C28   A    
C15   O2    S    
N1    Zn2   S    
C20   H18   S    
C24   C26   S    
C3    C5    A    
C1    O1    A    
