data_mof_unit_39644.cif
_audit_creation_date              2012-12-11T14:30:11-0500
_audit_creation_method            fapswitch 2.2
_symmetry_space_group_name_H-M    P1
_symmetry_Int_Tables_number       1
_space_group_crystal_system       triclinic
_cell_length_a                    12.652868
_cell_length_b                    12.652645
_cell_length_c                    27.062611
_cell_angle_alpha                 89.997785
_cell_angle_beta                  90.000679
_cell_angle_gamma                 119.997925
_cell_volume                      3752.14581121

loop_
_atom_site_label
_atom_site_type_symbol
_atom_type_description
_atom_site_fract_x
_atom_site_fract_y
_atom_site_fract_z
_atom_type_partial_charge
C1    C     C_R   0.558701 0.455928 0.822434 0.546003
C2    C     C_R   0.455956 0.558567 0.177617 0.546097
C3    C     C_R   0.006176 0.312242 0.474536 -0.124228
C4    C     C_R   0.308393 0.998226 0.025940 -0.124366
C5    C     C_R   0.687739 0.693955 0.474535 -0.124208
C6    C     C_R   0.310978 0.003553 0.525752 -0.124272
C7    C     C_R   0.990535 0.304342 0.974897 -0.124146
C8    C     C_R   0.692785 0.688801 0.525701 -0.124264
C9    C     C_R   0.313324 0.008405 0.974772 -0.124187
C10   C     C_R   0.995985 0.307199 0.525703 -0.124287
C11   C     C_R   0.695199 0.686586 0.974793 -0.124147
C12   C     C_R   0.441335 0.897272 0.322421 0.546006
C13   C     C_R   0.102580 0.544037 0.177623 0.546096
C14   C     C_R   0.991801 0.497748 0.974397 0.063144
C15   C     C_R   0.505264 0.006621 0.525846 0.063161
C16   C     C_R   0.502091 0.494176 0.974355 0.063144
C17   C     C_R   0.993245 0.498575 0.525825 0.063176
C18   C     C_R   0.505814 0.007876 0.974348 0.063170
C19   C     C_R   0.501433 0.494666 0.525825 0.063162
C20   C     C_R   0.498169 0.992548 0.474282 0.063152
C21   C     C_R   0.897338 0.441391 0.677600 0.546104
C22   C     C_R   0.005858 0.504944 0.025961 0.063172
C23   C     C_R   0.494440 0.501744 0.474261 0.063154
C24   C     C_R   0.498913 0.993823 0.025914 0.063195
C25   C     C_R   0.007308 0.505564 0.474260 0.063167
C26   C     C_R   0.494916 0.501082 0.025918 0.063168
C27   C     C_R   0.992901 0.690565 0.974262 -0.124447
C28   C     C_R   0.699242 0.010105 0.525561 -0.124345
C29   C     C_R   0.309580 0.302184 0.974283 -0.124444
C30   C     C_R   0.990112 0.689241 0.525569 -0.124357
C31   C     C_R   0.697897 0.007551 0.974292 -0.124452
C32   C     C_R   0.544071 0.102765 0.822432 0.546003
C33   C     C_R   0.310804 0.300835 0.525571 -0.124347
C34   C     C_R   0.689880 0.991456 0.474350 -0.124386
C35   C     C_R   0.011542 0.699996 0.025473 -0.124327
C36   C     C_R   0.301507 0.310189 0.474359 -0.124385
C37   C     C_R   0.688668 0.988925 0.025506 -0.124348
C38   C     C_R   0.008748 0.698531 0.474356 -0.124394
C39   C     C_R   0.300157 0.311429 0.025493 -0.124333
C40   C     C_R   0.960493 0.576805 0.897296 -0.135344
C41   C     C_R   0.617064 0.040507 0.602702 -0.135225
C42   C     C_R   0.423208 0.383597 0.897293 -0.135327
C43   C     C_R   0.558611 0.455949 0.677600 0.546094
C44   C     C_R   0.959577 0.576584 0.602702 -0.135243
C45   C     C_R   0.616434 0.039647 0.897292 -0.135360
C46   C     C_R   0.423439 0.382978 0.602702 -0.135219
C47   C     C_R   0.576685 0.960010 0.397298 -0.135285
C48   C     C_R   0.040977 0.617420 0.102698 -0.135176
C49   C     C_R   0.383287 0.423314 0.397295 -0.135279
C50   C     C_R   0.576483 0.959195 0.102703 -0.135202
C51   C     C_R   0.040045 0.616725 0.397292 -0.135294
C52   C     C_R   0.382654 0.423564 0.102696 -0.135161
C53   C     C_R   0.048827 0.524294 0.127939 -0.005141
C54   C     C_R   0.897203 0.441277 0.822443 0.545995
C55   C     C_R   0.474710 0.950308 0.372244 -0.004931
C56   C     C_R   0.475664 0.524670 0.127907 -0.005113
C57   C     C_R   0.049611 0.524390 0.372226 -0.004941
C58   C     C_R   0.475324 0.951002 0.127905 -0.005107
C59   C     C_R   0.475611 0.525223 0.372227 -0.004942
C60   C     C_R   0.524346 0.049247 0.627852 -0.005042
C61   C     C_R   0.949915 0.474363 0.872330 -0.004840
C62   C     C_R   0.524957 0.475639 0.627837 -0.005032
C63   C     C_R   0.524426 0.049912 0.872292 -0.004863
C64   C     C_R   0.950687 0.475046 0.627837 -0.005032
C65   C     C_R   0.544051 0.102654 0.677603 0.546096
C66   C     C_R   0.525522 0.475568 0.872300 -0.004859
C67   C     C_R   0.983096 0.589835 0.948369 0.016919
C68   C     C_R   0.607281 0.017652 0.551656 0.016726
C69   C     C_R   0.410160 0.393223 0.948360 0.016878
C70   C     C_R   0.982400 0.589645 0.551651 0.016742
C71   C     C_R   0.606808 0.016982 0.948360 0.016901
C72   C     C_R   0.410380 0.392736 0.551652 0.016724
C73   C     C_R   0.589731 0.982730 0.448359 0.016825
C74   C     C_R   0.018000 0.607542 0.051665 0.016639
C75   C     C_R   0.392985 0.410259 0.448353 0.016805
C76   C     C_R   0.455939 0.558652 0.322416 0.546009
C77   C     C_R   0.589556 0.982095 0.051662 0.016668
C78   C     C_R   0.017301 0.607031 0.448351 0.016816
C79   C     C_R   0.392486 0.410489 0.051656 0.016633
C80   C     C_R   0.968803 0.388890 0.898192 -0.127847
C81   C     C_R   0.418865 0.027903 0.602246 -0.128176
C82   C     C_R   0.610806 0.580083 0.898122 -0.127868
C83   C     C_R   0.971828 0.390802 0.602211 -0.128173
C84   C     C_R   0.419866 0.030580 0.898106 -0.127907
C85   C     C_R   0.609189 0.581030 0.602211 -0.128162
C86   C     C_R   0.389866 0.970357 0.397983 -0.128007
C87   C     C_R   0.441435 0.897394 0.177617 0.546094
C88   C     C_R   0.026276 0.418274 0.102460 -0.128339
C89   C     C_R   0.580581 0.609968 0.397948 -0.128021
C90   C     C_R   0.391595 0.973069 0.102372 -0.128326
C91   C     C_R   0.029363 0.419408 0.397947 -0.128042
C92   C     C_R   0.581499 0.608352 0.102383 -0.128301
C93   C     C_R   0.985382 0.397486 0.948983 0.013854
C94   C     C_R   0.410515 0.010946 0.551466 0.014009
C95   C     C_R   0.602197 0.588125 0.948911 0.013857
C96   C     C_R   0.988762 0.399415 0.551431 0.013997
C97   C     C_R   0.411822 0.013933 0.948896 0.013876
C98   C     C_R   0.102714 0.544061 0.322416 0.546009
C99   C     C_R   0.600580 0.589352 0.551430 0.013994
C100  C     C_R   0.398470 0.987123 0.448768 0.013928
C101  C     C_R   0.009159 0.409755 0.051684 0.014082
C102  C     C_R   0.588768 0.601359 0.448732 0.013929
C103  C     C_R   0.400216 0.990146 0.051595 0.014056
C104  C     C_R   0.012567 0.411223 0.448732 0.013940
C105  C     C_R   0.589970 0.599736 0.051607 0.014050
C106  C     C_R   0.000708 0.309638 0.026065 -0.124347
C107  C     C_R   0.305804 0.993350 0.474585 -0.124205
C108  C     C_R   0.689924 0.691522 0.025960 -0.124326
Cr1   Cr    Cr6+3 0.487630 0.241180 0.750000 1.008733
Cr2   Cr    Cr6+3 0.753550 0.512370 0.750000 1.008738
Cr3   Cr    Cr6+3 0.758820 0.246450 0.750000 1.008714
Cr4   Cr    Cr6+3 0.241180 0.487630 0.250000 1.008699
Cr5   Cr    Cr6+3 0.512370 0.753550 0.250000 1.008692
Cr6   Cr    Cr6+3 0.246450 0.758820 0.250000 1.008673
H1    H     H_    0.058251 0.699471 0.122134 0.118966
H2    H     H_    0.697351 0.054479 0.877608 0.117976
H3    H     H_    0.943371 0.641936 0.622247 0.118589
H4    H     H_    0.357083 0.302712 0.877602 0.118024
H5    H     H_    0.031321 0.345409 0.121427 0.128703
H6    H     H_    0.311050 0.963714 0.379201 0.129035
H7    H     H_    0.654244 0.686399 0.121318 0.128772
H8    H     H_    0.035887 0.347186 0.379153 0.129018
H9    H     H_    0.313507 0.967697 0.121299 0.128745
H10   H     H_    0.652796 0.688721 0.379154 0.129040
H11   H     H_    0.346334 0.033722 0.621122 0.128877
H12   H     H_    0.642483 0.944627 0.377669 0.118265
H13   H     H_    0.961424 0.309659 0.879494 0.129173
H14   H     H_    0.687599 0.653505 0.621072 0.128909
H15   H     H_    0.347900 0.037686 0.879376 0.129152
H16   H     H_    0.965872 0.312378 0.621072 0.128897
H17   H     H_    0.689917 0.652021 0.879400 0.129192
H18   H     H_    0.003933 0.236418 0.045525 0.092953
H19   H     H_    0.228462 0.988524 0.455273 0.092875
H20   H     H_    0.763040 0.768079 0.045396 0.092994
H21   H     H_    0.010876 0.239677 0.455213 0.092895
H22   H     H_    0.231815 0.994748 0.045372 0.092896
H23   H     H_    0.300742 0.358639 0.122164 0.118977
H24   H     H_    0.760295 0.771231 0.455210 0.092929
H25   H     H_    0.238097 0.007547 0.545140 0.092915
H26   H     H_    0.984960 0.226580 0.955656 0.092869
H27   H     H_    0.769710 0.761633 0.545079 0.092935
H28   H     H_    0.241033 0.013717 0.955501 0.092904
H29   H     H_    0.991882 0.230267 0.545082 0.092891
H30   H     H_    0.772845 0.758847 0.955529 0.092979
H31   H     H_    0.020557 0.779339 0.044589 0.093963
H32   H     H_    0.761110 0.984336 0.455070 0.093774
H33   H     H_    0.220935 0.241009 0.044633 0.094094
H34   H     H_    0.055574 0.697969 0.377676 0.118289
H35   H     H_    0.016006 0.776949 0.455086 0.093735
H36   H     H_    0.759140 0.980232 0.044653 0.093949
H37   H     H_    0.223100 0.239019 0.455089 0.093808
H38   H     H_    0.778112 0.018215 0.544757 0.093867
H39   H     H_    0.986692 0.762226 0.954901 0.093680
H40   H     H_    0.239998 0.222029 0.544778 0.093925
H41   H     H_    0.775920 0.014066 0.954961 0.093604
H42   H     H_    0.982151 0.760068 0.544777 0.093859
H43   H     H_    0.238043 0.224191 0.954947 0.093761
H44   H     H_    0.641451 0.942287 0.122179 0.118880
H45   H     H_    0.302051 0.357591 0.377680 0.118313
H46   H     H_    0.698697 0.056870 0.622232 0.118635
H47   H     H_    0.945997 0.643076 0.877574 0.117924
H48   H     H_    0.358101 0.301412 0.622248 0.118637
O1    O     O_R   0.460870 0.120930 0.805240 -0.522802
O2    O     O_R   0.120930 0.460870 0.194760 -0.522673
O3    O     O_R   0.539130 0.660060 0.305240 -0.522799
O4    O     O_R   0.339940 0.879070 0.194760 -0.522721
O5    O     O_R   0.498910 0.350470 0.801870 -0.500374
O6    O     O_R   0.851560 0.501090 0.698130 -0.500398
O7    O     O_R   0.649530 0.148440 0.801870 -0.500411
O8    O     O_R   0.498910 0.350470 0.698130 -0.500397
O9    O     O_R   0.851560 0.501090 0.801870 -0.500350
O10   O     O_R   0.649530 0.148440 0.698130 -0.500421
O11   O     O_R   0.350470 0.498910 0.301870 -0.500411
O12   O     O_R   0.660060 0.539130 0.694760 -0.522714
O13   O     O_R   0.501090 0.851560 0.198130 -0.500428
O14   O     O_R   0.148440 0.649530 0.301870 -0.500426
O15   O     O_R   0.350470 0.498910 0.198130 -0.500424
O16   O     O_R   0.501090 0.851560 0.301870 -0.500395
O17   O     O_R   0.148440 0.649530 0.198130 -0.500465
O18   O     O_3   0.666667 0.333333 0.750000 -0.230075
O19   O     O_3   0.333333 0.666667 0.250000 -0.229981
O20   O     O_R   0.879070 0.339940 0.805240 -0.522828
O21   O     O_R   0.460870 0.120930 0.694760 -0.522701
O22   O     O_R   0.660060 0.539130 0.805240 -0.522797
O23   O     O_R   0.879070 0.339940 0.694760 -0.522714
O24   O     O_R   0.120930 0.460870 0.305240 -0.522813
O25   O     O_R   0.539130 0.660060 0.194760 -0.522703
O26   O     O_R   0.339940 0.879070 0.305240 -0.522815

loop_
_geom_bond_atom_site_label_1
_geom_bond_atom_site_label_2
_ccdc_geom_bond_type
C3    C104  A    
C27   H39   S    
C12   O16   A    
C32   O7    A    
C4    C103  A    
C35   C74   A    
C89   C102  A    
C45   C71   A    
C90   H9    S    
C45   H2    S    
C37   H36   S    
C58   C87   S    
C15   C94   A    
C88   C101  A    
C5    H24   S    
C64   C83   A    
C44   C64   A    
C106  H18   S    
C30   H42   S    
C22   C101  A    
C46   C62   A    
C14   C93   A    
C18   C24   A    
C84   C97   A    
C44   H3    S    
C76   O11   A    
C28   C68   A    
C8    C99   A    
Cr4   O24   S    
C7    H26   S    
C43   O12   A    
C87   O4    A    
C15   C68   A    
C61   C80   A    
C12   O26   A    
C32   O1    A    
C84   H15   S    
C101  C106  A    
C33   C36   A    
Cr6   O26   S    
C30   C38   A    
Cr3   O10   S    
C59   C89   A    
C1    C66   S    
C6    H25   S    
C2    O25   A    
C21   C64   S    
Cr1   O5    S    
C33   C72   A    
Cr2   O6    S    
C1    O22   A    
Cr5   O19   S    
C6    C94   A    
C91   H8    S    
C6    C107  A    
C49   C75   A    
C44   C70   A    
C8    H27   S    
C51   C57   A    
C2    O15   A    
C10   C96   A    
C52   C79   A    
C86   C100  A    
C11   H30   S    
C91   C104  A    
C38   H35   S    
C46   C72   A    
C4    H22   S    
Cr2   O9    S    
Cr1   O21   S    
Cr6   O14   S    
Cr5   O16   S    
C28   C34   A    
C17   C70   A    
C19   C72   A    
C15   C20   A    
C7    C93   A    
C26   C105  A    
C30   C70   A    
C43   O8    A    
Cr6   O4    S    
C41   C68   A    
C29   C69   A    
Cr2   O12   S    
C16   C26   A    
C48   C53   A    
Cr4   O2    S    
C62   C85   A    
Cr3   O23   S    
C65   O10   A    
C25   C78   A    
C50   C58   A    
C48   C74   A    
C47   C73   A    
C83   H16   S    
Cr1   O1    S    
C19   C99   A    
C33   H40   S    
C42   H4    S    
C29   H43   S    
C38   C78   A    
C27   C35   A    
C13   O17   A    
C37   C77   A    
C45   C63   A    
Cr3   O20   S    
C50   H44   S    
C40   C61   A    
C31   C37   A    
Cr3   O7    S    
C39   C79   A    
C19   C23   A    
C13   C53   S    
C108  H20   S    
C85   C99   A    
C36   C75   A    
C66   C82   A    
C41   H46   S    
C98   O14   A    
C60   C81   A    
C24   C77   A    
C20   C100  A    
Cr2   O18   S    
C14   C67   A    
C29   C39   A    
C54   O20   A    
C52   H23   S    
C7    C106  A    
C76   O3    A    
C25   C104  A    
C17   C96   A    
C105  C108  A    
C88   H5    S    
C58   C90   A    
C48   H1    S    
C18   C97   A    
C60   C65   S    
C28   H38   S    
Cr3   O18   S    
C16   C95   A    
C22   C74   A    
C47   H12   S    
C50   C77   A    
Cr1   O8    S    
C40   C67   A    
C13   O2    A    
C47   C55   A    
C65   O21   A    
C11   C95   A    
C18   C71   A    
C35   H31   S    
C5    C102  A    
C100  C107  A    
C9    C97   A    
C82   C95   A    
C57   C91   A    
C81   H11   S    
C21   O6    A    
C54   O9    A    
C82   H17   S    
C16   C69   A    
C41   C60   A    
C23   C75   A    
C54   C61   S    
C5    C8    A    
C31   H41   S    
C9    H28   S    
C36   H37   S    
C21   O23   A    
Cr4   O19   S    
C80   H13   S    
C32   C63   S    
Cr6   O19   S    
C87   O13   A    
C26   C79   A    
C49   C59   A    
Cr5   O13   S    
C63   C84   A    
C24   C103  A    
C17   C25   A    
C89   H10   S    
C55   C86   A    
C80   C93   A    
C51   C78   A    
C40   H47   S    
C107  H19   S    
C3    C10   A    
C2    C56   S    
C92   H7    S    
Cr5   O3    S    
C81   C94   A    
C34   H32   S    
Cr1   O18   S    
C14   C22   A    
C51   H34   S    
C83   C96   A    
C31   C71   A    
C20   C73   A    
Cr4   O11   S    
C53   C88   A    
C3    H21   S    
C10   H29   S    
C42   C69   A    
C57   C98   S    
C90   C103  A    
C12   C55   S    
C27   C67   A    
C34   C73   A    
Cr2   O22   S    
C23   C102  A    
C92   C105  A    
C56   C92   A    
C98   O24   A    
Cr6   O17   S    
C46   H48   S    
C39   H33   S    
C11   C108  A    
C42   C66   A    
C1    O5    A    
C49   H45   S    
C85   H14   S    
C86   H6    S    
C4    C9    A    
C59   C76   S    
C52   C56   A    
C43   C62   S    
Cr4   O15   S    
Cr5   O25   S    
