data_mof_unit_43836.cif
_audit_creation_date              2012-12-11T14:23:07-0500
_audit_creation_method            fapswitch 2.2
_symmetry_space_group_name_H-M    P1
_symmetry_Int_Tables_number       1
_space_group_crystal_system       triclinic
_cell_length_a                    11.097658
_cell_length_b                    11.024922
_cell_length_c                    18.626107
_cell_angle_alpha                 89.507041
_cell_angle_beta                  89.554392
_cell_angle_gamma                 59.811124
_cell_volume                      1969.74648863

loop_
_atom_site_label
_atom_site_type_symbol
_atom_type_description
_atom_site_fract_x
_atom_site_fract_y
_atom_site_fract_z
_atom_type_partial_charge
C1    C     C_R   0.239311 0.644252 0.610675 0.532820
C2    C     C_3   0.652060 0.547821 0.813884 0.115714
C3    C     C_3   0.689847 0.665870 0.816453 0.081701
C4    C     C_3   0.652587 0.623223 0.683350 -0.015427
C5    C     C_3   0.802583 0.597208 0.692004 -0.227408
C6    C     C_3   0.630794 0.523680 0.734401 -0.207099
C7    C     C_R   0.686431 0.168075 0.825778 -0.012042
C8    C     C_R   0.801109 0.150991 0.783679 0.006363
C9    C     C_R   0.793000 0.145830 0.707722 -0.004387
C10   C     C_R   0.551599 0.203315 0.719830 -0.164349
C11   C     C_R   0.560610 0.205337 0.792479 -0.151126
C12   C     C_R   0.631614 0.591588 0.609241 0.560552
C13   C     C_R   0.923260 0.137687 0.814167 -0.101531
C14   C     C_R   0.037439 0.109525 0.771149 -0.146537
C15   C     C_R   0.032262 0.095766 0.697363 -0.138972
C16   C     C_R   0.912640 0.110541 0.665885 -0.095941
C17   C     C_R   0.664674 0.177273 0.676147 -0.021702
C18   C     C_R   0.196819 0.656505 0.838586 0.037802
C19   C     C_R   0.203791 0.541241 0.801622 0.078560
C20   C     C_R   0.194494 0.545940 0.725612 0.047478
C21   C     C_R   0.218807 0.753139 0.726896 -0.160366
C22   C     C_R   0.215897 0.754675 0.800617 -0.102081
C23   C     C_R   0.628607 0.227015 0.602402 0.532745
C24   C     C_R   0.213167 0.424806 0.838734 -0.074870
C25   C     C_R   0.198713 0.323128 0.802719 -0.146395
C26   C     C_R   0.173278 0.336145 0.729327 -0.159500
C27   C     C_R   0.169509 0.447023 0.691025 -0.093913
C28   C     C_R   0.205849 0.652330 0.687791 -0.024295
C29   C     C_R   0.733135 0.702235 0.186645 -0.014503
C30   C     C_R   0.825197 0.572684 0.224503 0.013848
C31   C     C_R   0.824752 0.576329 0.299773 0.023076
C32   C     C_R   0.640288 0.810201 0.304960 -0.027510
C33   C     C_R   0.656504 0.823483 0.229675 -0.151865
C34   C     C_R   0.286426 0.622842 0.392315 0.547307
C35   C     C_R   0.918055 0.437954 0.194519 -0.074613
C36   C     C_R   0.985528 0.319075 0.238296 -0.107341
C37   C     C_R   0.995337 0.334497 0.311272 -0.134477
C38   C     C_R   0.935222 0.467652 0.338479 -0.096835
C39   C     C_R   0.703849 0.676605 0.334751 0.024650
C40   C     C_R   0.618014 0.221199 0.159068 -0.013891
C41   C     C_R   0.488781 0.263553 0.190509 -0.014674
C42   C     C_R   0.476926 0.273667 0.266194 0.007026
C43   C     C_R   0.691277 0.284515 0.267031 -0.124332
C44   C     C_R   0.706472 0.258151 0.192510 0.257801
C45   C     C_R   0.651227 0.629337 0.397269 0.531102
C46   C     C_R   0.378076 0.274929 0.148917 -0.073153
C47   C     C_R   0.286816 0.239652 0.179721 -0.113803
C48   C     C_R   0.290024 0.222133 0.253373 -0.155598
C49   C     C_R   0.366230 0.260502 0.296251 -0.117456
C50   C     C_R   0.583358 0.281073 0.306509 -0.065059
C51   C     C_R   0.186339 0.645549 0.172064 -0.001470
C52   C     C_R   0.272185 0.697939 0.193126 0.032426
C53   C     C_R   0.289133 0.710613 0.267000 0.018499
C54   C     C_R   0.177590 0.572745 0.292363 -0.136214
C55   C     C_R   0.145607 0.577531 0.221005 -0.137602
C56   C     C_R   0.579179 0.294186 0.386994 0.546643
C57   C     C_R   0.324580 0.755344 0.142066 -0.086279
C58   C     C_R   0.363164 0.850694 0.163437 -0.103656
C59   C     C_R   0.361137 0.879333 0.235688 -0.138527
C60   C     C_R   0.333237 0.804987 0.287336 -0.105839
C61   C     C_R   0.249624 0.637785 0.316594 0.000630
C62   C     C_R   0.701715 0.104892 0.897050 0.520875
C63   C     C_R   0.721016 0.686346 0.889997 0.608888
C64   C     C_R   0.122876 0.702905 0.907544 0.543470
C65   C     C_R   0.669808 0.116951 0.100053 0.528399
C66   C     C_R   0.736085 0.715386 0.106176 0.562684
C67   C     C_3   0.565806 0.801695 0.783888 -0.222227
C68   C     C_R   0.101482 0.703581 0.108895 0.524676
C69   C     C_3   0.549007 0.778169 0.704473 -0.249820
C70   C     C_3   0.825463 0.619569 0.770877 0.133879
Cr1   Cr    Cr6+3 0.392940 0.397950 0.502230 0.968428
Cr2   Cr    Cr6+3 0.398400 0.708500 0.501260 0.975460
Cr3   Cr    Cr6+3 0.708640 0.393530 0.496460 0.984721
Cr4   Cr    Cr6+3 0.937880 0.938320 0.007620 1.019995
Cr5   Cr    Cr6+3 0.625560 0.937220 0.994510 0.987526
Cr6   Cr    Cr6+3 0.938080 0.625010 0.001190 0.980854
H1    H     H_    0.579672 0.893927 0.790016 0.136135
H2    H     H_    0.707085 0.413980 0.720012 0.110397
H3    H     H_    0.901966 0.512339 0.790504 0.153112
H4    H     H_    0.880776 0.486939 0.677807 0.126022
H5    H     H_    0.451833 0.227925 0.698099 0.164283
H6    H     H_    0.930974 0.153739 0.870617 0.132581
H7    H     H_    0.470711 0.222678 0.823087 0.150207
H8    H     H_    0.132126 0.093894 0.795386 0.093292
H9    H     H_    0.122450 0.070813 0.664370 0.101237
H10   H     H_    0.916285 0.091212 0.608905 0.137490
H11   H     H_    0.231463 0.832873 0.700319 0.137024
H12   H     H_    0.467500 0.829502 0.813133 0.157715
H13   H     H_    0.236452 0.408919 0.895504 0.107488
H14   H     H_    0.218719 0.839609 0.827772 0.142982
H15   H     H_    0.207778 0.234481 0.832410 0.097106
H16   H     H_    0.158417 0.259363 0.701468 0.111149
H17   H     H_    0.142397 0.455566 0.634991 0.133017
H18   H     H_    0.944897 0.413888 0.139432 0.162019
H19   H     H_    0.605520 0.926399 0.204712 0.136535
H20   H     H_    0.040094 0.215334 0.214908 0.155969
H21   H     H_    0.053474 0.244689 0.346156 0.103650
H22   H     H_    0.440462 0.804331 0.694999 0.136925
H23   H     H_    0.953257 0.480224 0.394366 0.132815
H24   H     H_    0.765762 0.302947 0.294466 0.170386
H25   H     H_    0.374094 0.291155 0.091336 0.120857
H26   H     H_    0.219097 0.220264 0.146316 0.096950
H27   H     H_    0.237642 0.174129 0.278310 0.100188
H28   H     H_    0.340659 0.263933 0.351844 0.162295
H29   H     H_    0.141849 0.521281 0.329135 0.144186
H30   H     H_    0.323918 0.736202 0.085137 0.111768
H31   H     H_    0.081607 0.535594 0.204622 0.151750
H32   H     H_    0.567341 0.850953 0.670548 0.123972
H33   H     H_    0.389255 0.906444 0.124060 0.144027
H34   H     H_    0.386220 0.956463 0.252052 0.118200
H35   H     H_    0.337173 0.832446 0.341872 0.165463
H36   H     H_    0.818818 0.663951 0.652996 0.130254
H37   H     H_    0.741940 0.447820 0.834648 0.090558
H38   H     H_    0.525043 0.537967 0.726484 0.163426
O1    O     O_R   0.507340 0.255690 0.581430 -0.525803
O2    O     O_R   0.524510 0.695820 0.424050 -0.527572
O3    O     O_R   0.736370 0.504260 0.414810 -0.530997
O4    O     O_R   0.691220 0.277270 0.422180 -0.494752
O5    O     O_3   0.499990 0.499990 0.499980 -0.287722
O6    O     O_R   0.089570 0.825450 0.930590 -0.530521
O7    O     O_R   0.818700 0.054260 0.929860 -0.513011
O8    O     O_R   0.606310 0.077010 0.915520 -0.533190
O9    O     O_R   0.646730 0.806540 0.917560 -0.494454
O10   O     O_R   0.837290 0.593240 0.915240 -0.528401
O11   O     O_R   0.065320 0.635310 0.931580 -0.488118
O12   O     O_R   0.280360 0.527380 0.578910 -0.505334
O13   O     O_R   0.068470 0.828620 0.091850 -0.500452
O14   O     O_R   0.799150 0.057200 0.079350 -0.451632
O15   O     O_R   0.585220 0.080180 0.076770 -0.554354
O16   O     O_R   0.627170 0.809480 0.067050 -0.511703
O17   O     O_R   0.816200 0.596410 0.076500 -0.573622
O18   O     O_R   0.045770 0.638240 0.081070 -0.539824
O19   O     O_3   0.833840 0.833520 0.001110 -0.255299
O20   O     O_R   0.260600 0.739610 0.584580 -0.527807
O21   O     O_R   0.532370 0.695050 0.573830 -0.509403
O22   O     O_R   0.744850 0.503430 0.576380 -0.531002
O23   O     O_R   0.699080 0.276500 0.571950 -0.511963
O24   O     O_R   0.498860 0.256520 0.419860 -0.555634
O25   O     O_R   0.272490 0.528150 0.429140 -0.522209
O26   O     O_R   0.252110 0.740440 0.423010 -0.524686
C71   C     C_3   0.575965 0.934090 0.354463 -0.279406
C72   C     C_3   0.674206 0.919037 0.415885 -0.402456
H39   H     H_    0.705045 0.823432 0.448584 0.143859
H40   H     H_    0.769477 0.915257 0.394022 0.163368
H41   H     H_    0.621254 0.008914 0.452938 0.185805
H42   H     H_    0.557927 0.025919 0.323327 0.170397
H43   H     H_    0.475761 0.950378 0.376589 0.142130
O27   O     O_3   0.813316 0.258143 0.153816 -0.567213
C73   C     C_3   0.757178 0.350062 0.093725 -0.100408
H44   H     H_    0.697026 0.322890 0.056511 0.086312
H45   H     H_    0.689394 0.460173 0.111715 0.140450
H46   H     H_    0.844034 0.342686 0.060687 0.135465
O28   O     O_3   0.891206 0.699524 0.785586 -0.548929
C74   C     C_3   0.859749 0.811875 0.738293 -0.099164
H47   H     H_    0.748583 0.874487 0.724005 0.106255
H48   H     H_    0.924256 0.774416 0.688978 0.109246
H49   H     H_    0.889740 0.881288 0.765401 0.169184
O29   O     O_3   0.526294 0.588626 0.852454 -0.580471
C75   C     C_3   0.551934 0.515422 0.918229 -0.138437
H50   H     H_    0.621920 0.533423 0.953240 0.122976
H51   H     H_    0.596216 0.401573 0.909156 0.108996
H52   H     H_    0.451425 0.554462 0.947102 0.126166

loop_
_geom_bond_atom_site_label_1
_geom_bond_atom_site_label_2
_ccdc_geom_bond_type
C21   H11   S    
C8    C13   A    
Cr3   O5    S    
Cr5   O8    S    
C41   C42   A    
C19   C20   A    
C67   H1    S    
C14   H8    S    
C24   H13   S    
C49   H28   S    
C37   H21   S    
C63   O10   A    
C7    C8    A    
C7    C11   A    
C26   C27   A    
C17   C23   S    
C30   C35   A    
Cr5   O9    S    
C36   C37   A    
C9    C16   A    
C73   H45   S    
C75   H50   S    
C30   C31   A    
Cr6   O17   S    
C6    H2    S    
Cr1   O5    S    
C10   C17   A    
C26   H16   S    
C15   C16   A    
C70   O28   S    
Cr4   O19   S    
C29   C33   A    
C34   O25   A    
C59   H34   S    
C18   C19   A    
C32   C39   A    
C68   O18   A    
C6    H38   S    
C44   O27   S    
C54   C55   A    
C53   C61   A    
C69   H32   S    
Cr4   O14   S    
C35   C36   A    
C8    C9    A    
C12   O21   A    
C1    C28   S    
C41   C46   A    
C75   H51   S    
Cr1   O12   S    
C13   C14   A    
C4    C12   S    
C74   H48   S    
Cr5   O16   S    
C39   C45   S    
C58   H33   S    
C69   H22   S    
C57   H30   S    
C59   C60   A    
C47   H26   S    
C21   C22   A    
C16   H10   S    
Cr6   O11   S    
C72   H41   S    
C2    C6    S    
C33   H19   S    
C4    C69   S    
C51   C68   S    
C53   C60   A    
Cr1   O24   S    
C46   H25   S    
C25   H15   S    
Cr3   O3    S    
C51   C52   A    
Cr6   O10   S    
C65   O14   A    
C3    C70   S    
C24   C25   A    
C74   H49   S    
C4    C6    S    
C10   C11   A    
C73   H46   S    
C38   H23   S    
Cr2   O21   S    
Cr1   O25   S    
C20   C28   A    
C11   H7    S    
C58   C59   A    
C48   H27   S    
C13   H6    S    
C34   C61   S    
C50   C56   S    
C55   H31   S    
C67   C69   S    
C37   C38   A    
C43   C44   A    
C7    C62   S    
C29   C30   A    
C65   O15   A    
C56   O24   A    
C36   H20   S    
Cr2   O20   S    
Cr4   O13   S    
Cr3   O22   S    
Cr2   O26   S    
C2    O29   S    
C22   H14   S    
C75   H52   S    
Cr1   O1    S    
C43   H24   S    
C5    H4    S    
C68   O13   A    
C74   H47   S    
C32   C71   S    
C71   H42   S    
C42   C50   A    
C9    C17   A    
C48   C49   A    
C54   C61   A    
C21   C28   A    
C40   C65   S    
C1    O12   A    
O29   C75   S    
C72   H40   S    
C27   H17   S    
C1    O20   A    
C62   O8    A    
C52   C53   A    
C66   O17   A    
C35   H18   S    
C45   O3    A    
C46   C47   A    
C40   C41   A    
Cr3   O4    S    
C54   H29   S    
C70   H3    S    
C18   C22   A    
C56   O4    A    
C23   O23   A    
C3    C67   S    
C4    C5    S    
C47   C48   A    
C5    C70   S    
C63   O9    A    
Cr6   O19   S    
Cr5   O19   S    
C43   C50   A    
C67   H12   S    
C20   C27   A    
C3    C63   S    
C5    H36   S    
Cr4   O6    S    
Cr2   O2    S    
C10   H5    S    
C64   O6    A    
C31   C38   A    
C15   H9    S    
C32   C33   A    
C19   C24   A    
C25   C26   A    
C60   H35   S    
C71   C72   S    
Cr6   O18   S    
C45   O2    A    
C18   C64   S    
C57   C58   A    
Cr3   O23   S    
Cr2   O5    S    
C34   O26   A    
C2    H37   S    
C31   C39   A    
C2    C3    S    
C51   C55   A    
O27   C73   S    
C52   C57   A    
C71   H43   S    
C42   C49   A    
C23   O1    A    
C29   C66   S    
C40   C44   A    
Cr4   O7    S    
C64   O11   A    
C12   O22   A    
C72   H39   S    
C14   C15   A    
O28   C74   S    
C73   H44   S    
C62   O7    A    
Cr5   O15   S    
C66   O16   A    
