data_mof_unit_36828.cif
_audit_creation_date              2012-10-26T18:47:36-0400
_audit_creation_method            fapswitch 2.2
_symmetry_space_group_name_H-M    P1
_symmetry_Int_Tables_number       1
_space_group_crystal_system       triclinic
_cell_length_a                    10.967497
_cell_length_b                    13.022844
_cell_length_c                    11.836923
_cell_angle_alpha                 99.623195
_cell_angle_beta                  95.015596
_cell_angle_gamma                 90.433534
_cell_volume                      1660.04805951

loop_
_atom_site_label
_atom_site_type_symbol
_atom_type_description
_atom_site_fract_x
_atom_site_fract_y
_atom_site_fract_z
_atom_type_partial_charge
C1    C     C_R   0.495389 0.300014 0.479620 0.572877
C2    C     C_R   0.646976 0.963801 0.570643 -0.009500
C3    C     C_R   0.370217 0.140882 0.427124 -0.132294
C4    C     C_R   0.624601 0.859606 0.573283 -0.139746
C5    C     C_R   0.568146 0.133446 0.531676 0.117599
C6    C     C_R   0.423656 0.866475 0.472826 0.116717
C7    C     C_R   0.552926 0.024718 0.526509 0.009691
C8    C     C_R   0.439259 0.975198 0.475684 0.007029
C9    C     C_R   0.410648 0.386641 0.018555 -0.185572
C10   C     C_R   0.591197 0.613820 0.980056 -0.194022
C11   C     C_R   0.418552 0.396505 0.138918 0.128236
C12   C     C_R   0.502351 0.699918 0.520468 0.580345
C13   C     C_R   0.588592 0.599994 0.859552 0.119192
C14   C     C_R   0.533293 0.553908 0.157893 0.093580
C15   C     C_R   0.458379 0.451530 0.841732 0.110811
C16   C     C_R   0.261814 0.504475 0.499595 0.560285
C17   C     C_R   0.736865 0.489207 0.499887 0.553051
C18   C     C_R   0.529915 0.543681 0.034859 -0.038425
C19   C     C_R   0.465250 0.460231 0.964436 -0.034246
C20   C     C_R   0.100214 0.619677 0.141727 -0.141177
C21   C     C_R   0.915014 0.290311 0.803253 -0.124345
C22   C     C_R   0.079788 0.605037 0.253217 0.005294
C23   C     C_R   0.871068 0.475734 0.500208 -0.016940
C24   C     C_R   0.934593 0.331670 0.704439 0.005865
C25   C     C_R   0.089658 0.504637 0.283235 0.066232
C26   C     C_R   0.910689 0.437710 0.700844 0.034877
C27   C     C_R   0.113023 0.419919 0.198712 -0.067260
C28   C     C_R   0.874491 0.501195 0.798903 -0.079885
C29   C     C_R   0.130735 0.435103 0.087120 -0.126121
C30   C     C_R   0.850856 0.458575 0.895478 -0.125333
C31   C     C_R   0.127207 0.535092 0.059516 -0.123244
C32   C     C_R   0.870343 0.352964 0.897380 -0.145800
C33   C     C_R   0.924685 0.460755 0.395452 0.118680
C34   C     C_R   0.126130 0.504576 0.498818 -0.003315
C35   C     C_R   0.072725 0.508660 0.604113 0.120718
C36   C     C_1   0.376888 0.373971 0.771518 0.244848
C37   C     C_1   0.605120 0.638735 0.227193 0.220821
C38   C     C_1   0.657796 0.674387 0.813249 0.242118
C39   C     C_1   0.364195 0.311876 0.181339 0.245540
C40   C     C_1   0.036185 0.691018 0.331773 0.174371
C41   C     C_1   0.985391 0.265894 0.610022 0.203255
C42   C     C_3   0.818923 0.459719 0.203631 -0.266956
C43   C     C_3   0.157044 0.645336 0.754974 -0.279062
C44   C     C_3   0.330675 0.785391 0.282572 -0.256492
C45   C     C_R   0.947705 0.485137 0.603567 -0.032834
C46   C     C_3   0.635995 0.205762 0.731464 -0.257649
C47   C     C_1   0.221033 0.001431 0.396890 0.231421
C48   C     C_1   0.771797 0.000491 0.603909 0.225906
C49   C     C_R   0.049260 0.485223 0.394167 -0.016935
C50   C     C_R   0.513442 0.812032 0.528548 0.029892
C51   C     C_R   0.481791 0.187880 0.472203 0.030343
C52   C     C_R   0.346087 0.036869 0.430948 -0.013051
Cu1   Cu    Cu3+1 0.509250 0.507730 0.615930 0.995934
Cu2   Cu    Cu3+1 0.490750 0.492270 0.384070 0.976903
H1    H     H_    0.141649 0.546694 0.973452 0.117387
H2    H     H_    0.820164 0.508370 0.969485 0.110444
H3    H     H_    0.698457 0.812688 0.601630 0.164400
H4    H     H_    0.297069 0.188418 0.398322 0.163248
H5    H     H_    0.798697 0.346951 0.308250 0.266932
H6    H     H_    0.725369 0.432780 0.167547 0.143109
H7    H     H_    0.879393 0.443044 0.133856 0.146452
H8    H     H_    0.821178 0.544957 0.234481 0.178414
H9    H     H_    0.129748 0.490814 0.773561 0.252557
H10   H     H_    0.223120 0.658959 0.832857 0.137475
H11   H     H_    0.067039 0.676866 0.778098 0.138790
H12   H     H_    0.852376 0.319288 0.971920 0.118481
H13   H     H_    0.192029 0.687187 0.689474 0.170609
H14   H     H_    0.241059 0.809248 0.439204 0.273747
H15   H     H_    0.252223 0.820349 0.238295 0.143267
H16   H     H_    0.326566 0.699839 0.253900 0.176116
H17   H     H_    0.417038 0.816225 0.256835 0.161171
H18   H     H_    0.745364 0.197204 0.587820 0.265645
H19   H     H_    0.702194 0.160117 0.777946 0.139342
H20   H     H_    0.541728 0.180022 0.743378 0.157872
H21   H     H_    0.646962 0.289433 0.769420 0.174882
H22   H     H_    0.363092 0.318947 0.967317 0.103478
H23   H     H_    0.643527 0.679325 0.030334 0.114726
H24   H     H_    0.091889 0.696070 0.117412 0.115551
H25   H     H_    0.933528 0.209361 0.807283 0.142707
H26   H     H_    0.110554 0.341626 0.217941 0.152344
H27   H     H_    0.868940 0.584085 0.801440 0.134389
H28   H     H_    0.145698 0.369023 0.021575 0.122935
N1    N     N_R   0.523180 0.519350 0.790130 -0.256624
N2    N     N_2   0.145324 0.534843 0.711476 -0.481731
N3    N     N_2   0.324758 0.807924 0.406067 -0.517698
N4    N     N_2   0.657603 0.192264 0.610864 -0.510402
N5    N     N_1   0.120308 0.974677 0.369690 -0.247411
N6    N     N_1   0.872258 0.028337 0.630465 -0.283236
N7    N     N_R   0.476820 0.480650 0.209870 -0.260412
N8    N     N_1   0.310731 0.311693 0.716447 -0.300682
N9    N     N_1   0.663794 0.707118 0.280872 -0.297994
N10   N     N_1   0.715495 0.735355 0.779304 -0.344108
N11   N     N_1   0.319086 0.241351 0.210370 -0.346668
N12   N     N_1   0.999959 0.759249 0.394768 -0.263573
N13   N     N_1   0.026232 0.213536 0.534305 -0.258398
N14   N     N_2   0.859920 0.403157 0.294424 -0.507389
O1    O     O_R   0.506570 0.354460 0.582000 -0.480989
O2    O     O_R   0.493430 0.645540 0.418000 -0.477689
O3    O     O_R   0.490940 0.341410 0.386200 -0.509004
O4    O     O_R   0.509060 0.658590 0.613800 -0.507663
O5    O     O_R   0.327460 0.506540 0.597900 -0.460860
O6    O     O_R   0.672540 0.493460 0.402100 -0.495676
O7    O     O_R   0.311830 0.493480 0.402100 -0.510627
O8    O     O_R   0.688170 0.506520 0.597900 -0.499862

loop_
_geom_bond_atom_site_label_1
_geom_bond_atom_site_label_2
_ccdc_geom_bond_type
C24   C41   S    
C27   C29   A    
C14   C18   A    
C2    C7    A    
C1    O3    A    
C7    C8    A    
Cu1   Cu2   S    
C15   C19   A    
C17   C23   S    
C6    N3    S    
C23   C45   A    
C17   O8    A    
C24   C26   A    
C18   C19   A    
C3    C52   A    
Cu1   O8    S    
C33   C49   A    
C38   N10   T    
C44   H17   S    
C34   C35   A    
C39   N11   T    
C26   C45   S    
C16   C34   S    
C9    C19   A    
Cu1   O5    S    
C23   C33   A    
C22   C25   A    
C4    H3    S    
C48   N6    T    
C44   H16   S    
C9    H22   S    
C42   H8    S    
C12   O2    A    
H14   N3    S    
C46   H21   S    
C10   H23   S    
C43   H10   S    
Cu1   O4    S    
C21   C32   A    
C37   N9    T    
Cu2   O7    S    
Cu2   N7    S    
C27   H26   S    
C1    O1    A    
C5    C7    A    
C3    C51   A    
C6    C8    A    
C2    C48   S    
C30   H2    S    
C4    C50   A    
C47   N5    T    
C2    C4    A    
C17   O6    A    
C14   N7    A    
C1    C51   S    
C11   N7    A    
C16   O7    A    
C12   C50   S    
C43   H11   S    
C22   C40   S    
C21   H25   S    
C44   H15   S    
C6    C50   A    
C11   C39   S    
C9    C11   A    
C42   H7    S    
C13   C38   S    
C5    N4    S    
C20   C22   A    
C42   N14   S    
Cu2   O3    S    
H5    N14   S    
C42   H6    S    
C44   N3    S    
C35   C45   A    
C33   N14   S    
C15   C36   S    
C46   H20   S    
C32   H12   S    
C36   N8    T    
C8    C52   A    
C34   C49   A    
C28   H27   S    
Cu2   O6    S    
Cu2   O2    S    
C40   N12   T    
C10   C13   A    
H18   N4    S    
C35   N2    S    
C47   C52   S    
C25   C27   A    
C13   N1    A    
C26   C28   A    
C20   H24   S    
H9    N2    S    
Cu1   N1    S    
Cu1   O1    S    
C28   C30   A    
C29   H28   S    
C29   C31   A    
C14   C37   S    
C30   C32   A    
C41   N13   T    
C10   C18   A    
C15   N1    A    
C25   C49   S    
C12   O4    A    
C3    H4    S    
C16   O5    A    
C43   N2    S    
C43   H13   S    
C21   C24   A    
C5    C51   A    
C31   H1    S    
C46   H19   S    
C46   N4    S    
C20   C31   A    
