data_mof_unit_42463.cif
_audit_creation_date              2013-03-05T15:49:04-0500
_audit_creation_method            fapswitch 2.2
_symmetry_space_group_name_H-M    P1
_symmetry_Int_Tables_number       1
_space_group_crystal_system       triclinic
_cell_length_a                    10.649934
_cell_length_b                    12.909931
_cell_length_c                    11.811143
_cell_angle_alpha                 98.607815
_cell_angle_beta                  93.679762
_cell_angle_gamma                 92.358704
_cell_volume                      1600.18921002

loop_
_atom_site_label
_atom_site_type_symbol
_atom_site_description
_atom_site_fract_x
_atom_site_fract_y
_atom_site_fract_z
_atom_type_partial_charge
O1    O     O_R   0.506670 0.354460 0.582000 -0.559920
O2    O     O_R   0.493330 0.645540 0.418000 -0.560072
O3    O     O_R   0.490800 0.341410 0.386200 -0.545189
O4    O     O_R   0.509200 0.658590 0.613800 -0.545152
C1    C     C_R   0.497655 0.300254 0.480125 0.870983
C2    C     C_R   0.502309 0.699742 0.519871 0.870205
O5    O     O_R   0.324790 0.506500 0.597880 -0.574584
O6    O     O_R   0.675210 0.493500 0.402120 -0.574698
O7    O     O_R   0.308910 0.493440 0.402080 -0.528158
O8    O     O_R   0.691090 0.506560 0.597920 -0.527693
C3    C     C_R   0.259629 0.500308 0.500309 0.852902
C4    C     C_R   0.740373 0.499724 0.499694 0.853470
Cu1   Cu    Cu3+1 0.509400 0.507730 0.615930 1.060819
Cu2   Cu    Cu3+1 0.490600 0.492270 0.384070 1.060610
C5    C     C_3   0.038125 0.402939 0.512303 -0.286508
C6    C     C_3   0.961879 0.597137 0.487713 -0.286733
C7    C     C_3   0.949307 0.428059 0.411502 -0.228724
C8    C     C_3   0.050703 0.572018 0.588510 -0.228872
H1    H     H_    0.905153 0.371010 0.338735 0.194634
H2    H     H_    0.094860 0.629067 0.661274 0.194592
H3    H     H_    0.072421 0.324799 0.523506 0.194535
H4    H     H_    0.927582 0.675278 0.476516 0.194582
C9    C     C_3   0.877268 0.499757 0.498910 -0.117339
C10   C     C_3   0.122738 0.500316 0.501102 -0.117232
C11   C     C_3   0.965068 0.475043 0.597799 0.559898
C12   C     C_3   0.034940 0.525037 0.402216 0.559792
C13   C     C_R   0.519558 0.811387 0.525992 -0.124195
C14   C     C_R   0.480394 0.188599 0.473950 -0.124725
C15   C     C_R   0.334600 0.045801 0.494122 0.342861
C16   C     C_R   0.665265 0.954061 0.505182 0.341945
C17   C     C_R   0.357846 0.147850 0.474554 -0.225518
C18   C     C_R   0.642078 0.852054 0.524932 -0.225407
C19   C     C_R   0.583789 0.128698 0.492417 0.449588
C20   C     C_R   0.416123 0.871276 0.507605 0.449188
C21   C     C_R   0.563266 0.020801 0.498371 -0.151800
C22   C     C_R   0.436616 0.979119 0.501333 -0.151839
H5    H     H_    0.720031 0.800966 0.529879 0.190530
H6    H     H_    0.279859 0.198868 0.469327 0.190491
N1    N     N_R   0.523540 0.519360 0.790140 -0.325230
N2    N     N_R   0.476460 0.480640 0.209860 -0.325228
C23   C     C_R   0.384002 0.394936 0.024097 0.347923
C24   C     C_R   0.615972 0.605075 0.975906 0.347818
C25   C     C_R   0.395300 0.405678 0.145741 0.373021
C26   C     C_R   0.604691 0.594326 0.854263 0.373130
C27   C     C_R   0.542949 0.550436 0.156026 0.481330
C28   C     C_R   0.457026 0.449575 0.843972 0.481229
C29   C     C_R   0.540148 0.539426 0.033335 -0.272732
C30   C     C_R   0.459835 0.460577 0.966664 -0.272642
O9    O     O_3   0.916238 0.450032 0.699210 -0.567670
C31   C     C_3   0.013935 0.420520 0.771658 -0.167276
H7    H     H_    0.093725 0.480504 0.787831 0.186040
H8    H     H_    0.046362 0.342479 0.735794 0.187572
H9    H     H_    0.976544 0.413194 0.855774 0.195139
O10   O     O_3   0.083769 0.550074 0.300815 -0.567990
C32   C     C_3   0.986075 0.579611 0.228389 -0.167236
H10   H     H_    0.953620 0.657625 0.264296 0.187594
H11   H     H_    0.906307 0.519613 0.212174 0.186031
H12   H     H_    0.023472 0.586996 0.144290 0.195161
O11   O     O_3   0.296167 0.823487 0.498754 -0.566590
C33   C     C_3   0.254514 0.796370 0.381627 -0.163043
H13   H     H_    0.303294 0.727719 0.340690 0.190727
H14   H     H_    0.266520 0.862811 0.332312 0.161415
H15   H     H_    0.152378 0.773763 0.376011 0.206692
O12   O     O_3   0.703722 0.176588 0.501727 -0.566177
C34   C     C_3   0.745128 0.203004 0.618968 -0.164685
H16   H     H_    0.736163 0.135311 0.666804 0.162460
H17   H     H_    0.693812 0.269517 0.661224 0.190477
H18   H     H_    0.846427 0.228431 0.624846 0.206214
N3    N     N_R   0.208108 0.014733 0.514251 0.163510
O13   O     O_R   0.184609 0.986616 0.612394 -0.271889
O14   O     O_R   0.114757 0.036634 0.446699 -0.293518
N4    N     N_R   0.791545 0.984949 0.484148 0.163712
O15   O     O_R   0.814018 0.014000 0.386229 -0.272029
O16   O     O_R   0.885486 0.961934 0.550276 -0.293449
N5    N     N_R   0.399777 0.356654 0.776460 0.176564
O17   O     O_R   0.287614 0.356824 0.726444 -0.388498
O18   O     O_R   0.457393 0.269274 0.771143 -0.411335
N6    N     N_R   0.600105 0.643399 0.223524 0.176544
O19   O     O_R   0.542345 0.730715 0.228887 -0.410753
O20   O     O_R   0.712255 0.643309 0.273593 -0.388516
N7    N     N_R   0.687834 0.656883 0.798393 0.153507
O21   O     O_R   0.656774 0.750398 0.782824 -0.395381
O22   O     O_R   0.805963 0.635340 0.797134 -0.311984
N8    N     N_R   0.312149 0.343136 0.201619 0.153491
O23   O     O_R   0.343189 0.249616 0.217189 -0.395280
O24   O     O_R   0.194028 0.364702 0.202896 -0.311977
O25   O     O_3   0.285235 0.332866 0.962884 -0.556120
C35   C     C_3   0.303968 0.224924 0.962284 -0.056371
H19   H     H_    0.238810 0.192926 0.019484 0.198645
H20   H     H_    0.402940 0.206766 0.985834 0.142608
H21   H     H_    0.277702 0.182538 0.874618 0.209452
O26   O     O_3   0.714707 0.667177 0.037125 -0.556173
C36   C     C_3   0.695889 0.775109 0.037756 -0.056277
H22   H     H_    0.596902 0.793221 0.014197 0.142552
H23   H     H_    0.761027 0.807161 0.980575 0.198600
H24   H     H_    0.722115 0.817485 0.125434 0.209623

loop_
_geom_bond_atom_site_label_1
_geom_bond_atom_site_label_2
_geom_bond_distance
_ccdc_geom_bond_type
C32   H10   1.110541 S    
C36   H22   1.116046 S    
C21   C22   1.435977 A    
O25   C35   1.414869 S    
N7    O21   1.300870 A    
O5    C3    1.296629 A    
C15   C22   1.419781 A    
C7    C9    1.544431 S    
C16   C21   1.419658 A    
C33   H15   1.109760 S    
C8    C10   1.544438 S    
C7    C12   1.539852 S    
C10   C12   1.528481 S    
N6    O20   1.298443 A    
C5    C11   1.539693 S    
C3    C10   1.458514 S    
C33   H14   1.114193 S    
O4    Cu1   1.951602 S    
N3    O14   1.301454 A    
C7    H1    1.110108 S    
N2    C25   1.372917 A    
C2    C13   1.435865 S    
C34   H17   1.109260 S    
C31   H8    1.110592 S    
C27   N6    1.427453 S    
C8    H2    1.110108 S    
O11   C33   1.413013 S    
C36   H23   1.108485 S    
Cu1   Cu2   2.709649 S    
C25   N8    1.430867 S    
C23   C25   1.419430 A    
O2    C2    1.293910 A    
C8    C11   1.539842 S    
C24   C26   1.419407 A    
C12   O10   1.411134 S    
C28   N5    1.427466 S    
N7    O22   1.300104 A    
C15   N3    1.434345 S    
C27   C29   1.432997 A    
C13   C20   1.395744 A    
C6    C12   1.539698 S    
N2    C27   1.376372 A    
C23   O25   1.389543 S    
C28   C30   1.433017 A    
C31   H9    1.109229 S    
N8    O23   1.300870 A    
O4    C2    1.299084 A    
C26   N7    1.430869 S    
O7    Cu2   1.960593 S    
N6    O19   1.301451 A    
C6    H4    1.110247 S    
C33   H13   1.109520 S    
N5    O17   1.298423 A    
C1    C14   1.435937 S    
O7    C3    1.296372 A    
C29   C30   1.410607 A    
C4    C9    1.458529 S    
C35   H21   1.109247 S    
O5    Cu1   1.963111 S    
O6    C4    1.296639 A    
C34   H18   1.109444 S    
C31   H7    1.113095 S    
C18   H5    1.085356 S    
N5    O18   1.301428 A    
O3    Cu2   1.951603 S    
O8    C4    1.296365 A    
N1    C28   1.376390 A    
N4    O16   1.301101 A    
C5    C10   1.543286 S    
C35   H20   1.116044 S    
C14   C19   1.395677 A    
O9    C31   1.405655 S    
C6    C9    1.543293 S    
C32   H11   1.113054 S    
C20   O11   1.386474 S    
O1    C1    1.293968 A    
O1    Cu1   1.957836 S    
C5    C7    1.553592 S    
O10   C32   1.405602 S    
O6    Cu2   1.963112 S    
C24   O26   1.389533 S    
C13   C18   1.387822 A    
C14   C17   1.387792 A    
N8    O24   1.300107 A    
N4    O15   1.301338 A    
O3    C1    1.299053 A    
O8    Cu1   1.960594 S    
C16   N4    1.434512 S    
N1    C26   1.372915 A    
C36   H24   1.109251 S    
C17   H6    1.085387 S    
O12   C34   1.412854 S    
C15   C17   1.386367 A    
C16   C18   1.386426 A    
C19   O12   1.386500 S    
O26   C36   1.414871 S    
C19   C21   1.413947 A    
C23   C30   1.420065 A    
C20   C22   1.414003 A    
C24   C29   1.420050 A    
C9    C11   1.528486 S    
N3    O13   1.301455 A    
O2    Cu2   1.957836 S    
C11   O9    1.411131 S    
Cu1   N1    2.035904 S    
Cu2   N2    2.035905 S    
C5    H3    1.110249 S    
C35   H19   1.108485 S    
C6    C8    1.553589 S    
C34   H16   1.113521 S    
C32   H12   1.109227 S    
