data_mof_unit_31666.cif
_audit_creation_date              2012-12-10T18:13:36-0500
_audit_creation_method            fapswitch 2.2
_symmetry_space_group_name_H-M    P1
_symmetry_Int_Tables_number       1
_space_group_crystal_system       triclinic
_cell_length_a                    12.728916
_cell_length_b                    12.972923
_cell_length_c                    16.694134
_cell_angle_alpha                 89.076659
_cell_angle_beta                  97.743885
_cell_angle_gamma                 98.599325
_cell_volume                      2700.85169024

loop_
_atom_site_label
_atom_site_type_symbol
_atom_type_description
_atom_site_fract_x
_atom_site_fract_y
_atom_site_fract_z
_atom_type_partial_charge
C1    C     C_R   0.561565 0.692677 0.506920 0.913210
C2    C     C_R   0.479705 0.505856 0.738647 -0.113205
C3    C     C_R   0.310090 0.064092 0.367565 0.418737
C4    C     C_R   0.509893 0.489596 0.349384 0.935147
C5    C     C_R   0.401468 0.198491 0.464145 -0.160443
C6    C     C_R   0.700922 0.850018 0.554581 -0.109377
C7    C     C_R   0.723499 0.959400 0.565429 -0.068000
C8    C     C_R   0.645509 0.019752 0.535682 -0.174513
C9    C     C_R   0.550810 0.976102 0.486863 0.047933
C10   C     C_R   0.541303 0.873055 0.460313 -0.044429
C11   C     C_R   0.468985 0.035044 0.459503 -0.021646
C12   C     C_R   0.588954 0.431668 0.231915 -0.127156
C13   C     C_R   0.391156 0.001068 0.392454 -0.121401
C14   C     C_R   0.401671 0.908534 0.351800 0.369392
C15   C     C_R   0.474841 0.843811 0.386835 0.280181
C16   C     C_R   0.439262 0.308154 0.487150 0.906519
C17   C     C_R   0.464522 0.127851 0.498578 -0.161674
C18   C     C_R   0.318816 0.165535 0.400158 -0.157794
C19   C     C_R   0.604549 0.805624 0.505059 -0.128614
C20   C     C_R   0.908906 0.418469 0.650325 -0.281627
C21   C     C_R   0.211065 0.620039 0.396221 -0.064193
C22   C     C_R   0.114842 0.659262 0.379385 0.360002
C23   C     C_R   0.548428 0.481106 0.879128 -0.108271
C24   C     C_R   0.033590 0.628045 0.426212 -0.130093
C25   C     C_R   0.045106 0.551670 0.486238 -0.071935
C26   C     C_R   0.147270 0.519500 0.505958 0.121481
C27   C     C_R   0.959895 0.506870 0.528920 -0.061439
C28   C     C_R   0.488360 0.506276 0.651365 0.922179
C29   C     C_R   0.987099 0.464259 0.605744 0.042141
C30   C     C_R   0.091615 0.450652 0.632155 -0.261719
C31   C     C_R   0.163768 0.458168 0.576879 0.397865
C32   C     C_R   0.850000 0.493079 0.496362 0.493955
C33   C     C_R   0.802551 0.405385 0.616548 0.026095
C34   C     C_R   0.568889 0.507007 0.800429 -0.088850
C35   C     C_R   0.499700 0.452094 0.266005 -0.073019
C36   C     C_R   0.396492 0.423498 0.223663 -0.158431
C37   C     C_R   0.381755 0.377020 0.147473 -0.065511
C38   C     C_R   0.473395 0.365996 0.110939 0.027666
C39   C     C_R   0.575957 0.389779 0.154599 -0.113838
C40   C     C_2   0.241607 0.234773 0.365789 1.009301
C41   C     C_2   0.777278 0.785744 0.597404 1.015530
C42   C     C_2   0.827156 0.014174 0.607586 0.988568
C43   C     C_2   0.726564 0.339712 0.662963 0.993615
C44   C     C_2   0.683012 0.539368 0.788344 0.972231
C45   C     C_R   0.375597 0.495019 0.760801 -0.150349
C46   C     C_2   0.270626 0.342758 0.107013 0.977624
C47   C     C_R   0.357711 0.471931 0.839434 -0.107621
C48   C     C_R   0.443601 0.459324 0.897388 0.192393
C49   C     C_2   0.467340 0.359901 0.023098 0.413866
C50   C     C_2   0.424900 0.435489 0.979932 -0.294344
Cl1   Cl    Cl    0.340203 0.879810 0.251432 -0.354072
Cl2   Cl    Cl    0.190276 0.015759 0.304038 -0.371806
Cl3   Cl    Cl    0.502638 0.741520 0.327857 -0.522175
Cl4   Cl    Cl    0.811649 0.514711 0.393381 -0.584490
Cl5   Cl    Cl    0.095742 0.747673 0.300249 -0.401504
Cl6   Cl    Cl    0.236133 0.353410 0.589614 -0.534572
Cl7   Cl    Cl    0.533326 0.268272 0.979981 -0.501477
H1    H     H_    0.326608 0.435125 0.250880 0.224126
H2    H     H_    0.382979 0.488946 0.008502 0.147513
H3    H     H_    0.646675 0.382622 0.126738 0.194099
H4    H     H_    0.614316 0.480427 0.927544 0.195126
H5    H     H_    0.668888 0.450602 0.263583 0.229163
H6    H     H_    0.126580 0.319592 0.384386 0.351755
H7    H     H_    0.883343 0.686953 0.589920 0.328524
H8    H     H_    0.904699 0.139799 0.672187 0.364428
H9    H     H_    0.691898 0.286048 0.772063 0.375019
H10   H     H_    0.789844 0.611957 0.720555 0.362779
H11   H     H_    0.112972 0.352503 0.101227 0.376534
H12   H     H_    0.276613 0.461094 0.854551 0.161423
H13   H     H_    0.514797 0.149495 0.554722 0.213390
H14   H     H_    0.664235 0.102999 0.545190 0.201809
H15   H     H_    0.109419 0.410050 0.688681 0.185876
H16   H     H_    0.931755 0.384101 0.708627 0.213906
H17   H     H_    0.275663 0.645673 0.361261 0.210406
H18   H     H_    0.963506 0.666751 0.416889 0.242417
H19   H     H_    0.306499 0.501163 0.716957 0.180300
N1    N     N_R   0.774070 0.445420 0.541180 -0.160718
N2    N     N_R   0.226730 0.554050 0.459240 -0.149859
O1    O     O_R   0.631480 0.627510 0.519670 -0.556864
O2    O     O_R   0.176411 0.274078 0.415077 -0.706323
O3    O     O_2   0.801293 0.795049 0.670604 -0.581727
O4    O     O_R   0.829333 0.722703 0.553725 -0.754623
O5    O     O_2   0.910563 0.978704 0.605637 -0.560292
O6    O     O_R   0.829765 0.108975 0.647169 -0.786451
O7    O     O_2   0.651499 0.281019 0.628426 -0.620906
O8    O     O_R   0.747769 0.335872 0.747245 -0.772970
O9    O     O_2   0.754766 0.513765 0.837540 -0.557360
O10   O     O_R   0.710099 0.603120 0.724057 -0.774323
O11   O     O_2   0.253914 0.278660 0.052102 -0.555290
O12   O     O_R   0.455770 0.662400 0.493360 -0.603530
O13   O     O_R   0.184419 0.382288 0.132902 -0.750759
O14   O     O_R   0.598240 0.480510 0.398910 -0.555093
O15   O     O_R   0.422540 0.515400 0.372600 -0.616755
O16   O     O_R   0.544230 0.337600 0.506640 -0.574508
O17   O     O_R   0.368520 0.372490 0.480330 -0.545369
O18   O     O_R   0.577460 0.484600 0.627400 -0.597912
O19   O     O_R   0.401760 0.519490 0.601090 -0.595875
O20   O     O_2   0.231247 0.252983 0.293349 -0.596305
Zn1   Zn    Zn3+2 0.617320 0.476700 0.517570 1.061192
Zn2   Zn    Zn3+2 0.382680 0.523300 0.482430 1.017987

loop_
_geom_bond_atom_site_label_1
_geom_bond_atom_site_label_2
_ccdc_geom_bond_type
C28   O19   A    
C1    O12   A    
C27   C29   A    
C35   C36   A    
C7    C8    A    
C38   C49   S    
C6    C19   A    
H10   O10   S    
C26   N2    A    
C45   H19   S    
C50   H2    S    
C15   Cl3   S    
O1    Zn1   S    
C36   C37   A    
C36   H1    S    
C10   C15   A    
C40   O20   D    
C30   C31   A    
C5    C17   A    
C41   O4    S    
O18   Zn1   S    
H11   O13   S    
C49   Cl7   S    
C3    C18   A    
C7    C42   S    
O12   Zn2   S    
C18   C40   S    
C47   H12   S    
C5    C16   S    
C32   N1    A    
C14   Cl1   S    
C8    C9    A    
C8    H14   S    
C6    C41   S    
C21   N2    A    
C40   O2    S    
C31   Cl6   S    
C44   O9    D    
C9    C10   A    
C3    C13   A    
C20   C29   A    
C2    C34   A    
C48   C50   S    
C4    C35   S    
C17   H13   S    
C13   C14   A    
C32   Cl4   S    
H6    O2    S    
C45   C47   A    
C2    C45   A    
C1    C19   S    
C33   C43   S    
C42   O6    S    
C24   C25   A    
C46   O11   D    
O17   Zn2   S    
H8    O6    S    
C46   O13   S    
C25   C26   A    
C21   H17   S    
C43   O7    D    
C37   C38   A    
C12   H5    S    
C47   C48   A    
C23   H4    S    
C10   C19   A    
C23   C34   A    
C41   O3    D    
C34   C44   S    
C12   C35   A    
C9    C11   A    
O15   Zn2   S    
H7    O4    S    
C22   Cl5   S    
C20   C33   A    
N2    Zn2   S    
C1    O1    A    
C22   C24   A    
O19   Zn2   S    
C11   C17   A    
C16   O17   A    
C23   C48   A    
C27   C32   A    
C43   O8    S    
C42   O5    D    
H9    O8    S    
C30   H15   S    
C3    Cl2   S    
C24   H18   S    
C6    C7    A    
C5    C18   A    
C25   C27   A    
C16   O16   A    
C28   O18   A    
C12   C39   A    
C44   O10   S    
C11   C13   A    
C33   N1    A    
C38   C39   A    
O16   Zn1   S    
C39   H3    S    
C20   H16   S    
N1    Zn1   S    
C29   C30   A    
C4    O15   A    
C26   C31   A    
C49   C50   D    
C14   C15   A    
C2    C28   S    
C37   C46   S    
C21   C22   A    
O14   Zn1   S    
C4    O14   A    
