data_mof_unit_24940.cif
_audit_creation_date              2012-10-26T18:50:46-0400
_audit_creation_method            fapswitch 2.2
_symmetry_space_group_name_H-M    P1
_symmetry_Int_Tables_number       1
_space_group_crystal_system       triclinic
_cell_length_a                    12.312782
_cell_length_b                    13.20231
_cell_length_c                    17.337432
_cell_angle_alpha                 104.945753
_cell_angle_beta                  74.739554
_cell_angle_gamma                 116.691211
_cell_volume                      2397.10971462

loop_
_atom_site_label
_atom_site_type_symbol
_atom_type_description
_atom_site_fract_x
_atom_site_fract_y
_atom_site_fract_z
_atom_type_partial_charge
C1    C     C_R   0.144581 0.713509 0.506713 0.531856
C2    C     C_R   0.014588 0.488689 0.261983 0.015010
C3    C     C_R   0.734820 0.976155 0.390937 -0.131105
C4    C     C_R   0.988905 0.505452 0.652223 0.544691
C5    C     C_R   0.774517 0.164925 0.470283 -0.001271
C6    C     C_R   0.178939 0.916507 0.556721 -0.133225
C7    C     C_R   0.256024 0.032230 0.570719 -0.141334
C8    C     C_R   0.382034 0.069261 0.542213 -0.123795
C9    C     C_R   0.433348 0.990733 0.495957 0.030675
C10   C     C_R   0.352182 0.875188 0.473182 0.023164
C11   C     C_R   0.562454 0.023361 0.470801 0.027390
C12   C     C_R   0.892246 0.532099 0.796894 -0.131262
C13   C     C_R   0.607488 0.944609 0.416341 0.051179
C14   C     C_R   0.524961 0.836198 0.386540 -0.140612
C15   C     C_R   0.399178 0.802363 0.413682 -0.123517
C16   C     C_R   0.855887 0.286324 0.487755 0.549906
C17   C     C_R   0.648477 0.131639 0.499191 -0.136411
C18   C     C_R   0.818106 0.086284 0.417326 -0.136226
C19   C     C_R   0.225967 0.836503 0.509884 -0.002511
C20   C     C_R   0.642194 0.674955 0.628822 -0.149591
C21   C     C_R   0.247938 0.350012 0.391392 0.062995
C22   C     C_R   0.345249 0.314280 0.368447 -0.028269
C23   C     C_R   0.921266 0.490709 0.156359 -0.110953
C24   C     C_R   0.445994 0.372550 0.409686 -0.139448
C25   C     C_R   0.450080 0.464012 0.474053 -0.017845
C26   C     C_R   0.347370 0.494832 0.495505 0.173642
C27   C     C_R   0.551121 0.524954 0.518645 -0.012333
C28   C     C_R   0.011570 0.495213 0.347806 0.541899
C29   C     C_R   0.546045 0.614153 0.583789 0.038331
C30   C     C_R   0.444813 0.642066 0.604059 -0.176904
C31   C     C_R   0.347852 0.583682 0.561147 -0.099186
C32   C     C_R   0.657746 0.501860 0.501969 0.037948
C33   C     C_R   0.743732 0.647680 0.609513 0.039340
C34   C     C_R   0.918959 0.496449 0.237701 -0.133536
C35   C     C_R   0.988160 0.515063 0.738137 0.014304
C36   C     C_R   0.085917 0.510547 0.762142 -0.136404
C37   C     C_R   0.086498 0.520355 0.843584 -0.109737
C38   C     C_R   0.988379 0.533288 0.902114 0.042980
C39   C     C_R   0.892769 0.541617 0.878581 -0.118206
C40   C     C_3   0.346715 0.214581 0.301381 -0.269571
C41   C     C_3   0.230846 0.150131 0.261499 -0.309259
C42   C     C_3   0.240428 0.049700 0.196972 -0.445264
C43   C     C_R   0.111364 0.472665 0.203592 -0.135663
C44   C     C_R   0.113687 0.467132 0.122028 -0.119002
C45   C     C_R   0.020141 0.478517 0.098251 0.043196
C46   C     C_2   0.982862 0.536914 0.988036 -0.137508
C47   C     C_2   0.027589 0.476938 0.012382 -0.136523
Cu1   Cu    Cu3+1 0.900140 0.524980 0.518800 0.926026
Cu2   Cu    Cu3+1 0.099860 0.475020 0.481200 0.909669
H1    H     H_    0.162440 0.500029 0.718164 0.126518
H2    H     H_    0.339690 0.719506 0.385424 0.151593
H3    H     H_    0.818333 0.694400 0.643951 0.117513
H4    H     H_    0.841892 0.506378 0.281397 0.123262
H5    H     H_    0.440050 0.709817 0.654106 0.109228
H6    H     H_    0.638752 0.743190 0.678723 0.090947
H7    H     H_    0.670091 0.436296 0.453259 0.116782
H8    H     H_    0.169014 0.307819 0.360983 0.125379
H9    H     H_    0.519441 0.343491 0.390716 0.091399
H10   H     H_    0.274408 0.610894 0.582465 0.183758
H11   H     H_    0.185571 0.465256 0.220852 0.121066
H12   H     H_    0.189692 0.456215 0.077606 0.098652
H13   H     H_    0.073396 0.427075 0.968534 0.115508
H14   H     H_    0.817208 0.552894 0.923310 0.098450
H15   H     H_    0.845023 0.494688 0.139247 0.099457
H16   H     H_    0.816526 0.537197 0.779833 0.124862
H17   H     H_    0.936945 0.586715 0.031832 0.113631
H18   H     H_    0.164125 0.518517 0.860448 0.101666
H19   H     H_    0.321416 0.081105 0.148737 0.151677
H20   H     H_    0.249654 0.987316 0.224497 0.157266
H21   H     H_    0.155794 0.004993 0.169106 0.142555
H22   H     H_    0.148113 0.115869 0.308109 0.155309
H23   H     H_    0.915714 0.111166 0.394045 0.116457
H24   H     H_    0.219337 0.209593 0.232265 0.152417
H25   H     H_    0.428418 0.247920 0.253890 0.142799
H26   H     H_    0.358945 0.152252 0.327240 0.154726
H27   H     H_    0.557746 0.776960 0.342223 0.105308
H28   H     H_    0.769718 0.916586 0.349080 0.105030
H29   H     H_    0.619979 0.192689 0.543756 0.119489
H30   H     H_    0.082462 0.889379 0.584121 0.128014
H31   H     H_    0.436120 0.160307 0.555724 0.104286
H32   H     H_    0.218423 0.093354 0.606094 0.119779
N1    N     N_R   0.749710 0.562810 0.547300 -0.233589
N2    N     N_R   0.249640 0.437820 0.453210 -0.249581
O1    O     O_R   0.025490 0.682370 0.523640 -0.501481
O2    O     O_R   0.194150 0.640180 0.491890 -0.528261
O3    O     O_R   0.905900 0.523560 0.631310 -0.505688
O4    O     O_R   0.074570 0.481370 0.599560 -0.521720
O5    O     O_R   0.805850 0.359820 0.508110 -0.508923
O6    O     O_R   0.974510 0.317630 0.476360 -0.504653
O7    O     O_R   0.925430 0.518630 0.400440 -0.508052
O8    O     O_R   0.094100 0.476440 0.368690 -0.520565

loop_
_geom_bond_atom_site_label_1
_geom_bond_atom_site_label_2
_ccdc_geom_bond_type
C40   C41   S    
C26   N2    A    
C23   C45   A    
C27   C29   A    
C41   C42   S    
Cu2   O4    S    
C35   C36   A    
C47   H13   S    
C7    C8    A    
C4    O4    A    
C33   H3    S    
C6    C19   A    
C30   H5    S    
C29   C30   A    
C36   C37   A    
C46   H17   S    
C10   C15   A    
C30   C31   A    
C5    C17   A    
C42   H21   S    
C3    C18   A    
C31   H10   S    
C32   N1    A    
C5    C16   S    
C11   C17   A    
C21   N2    A    
C40   H25   S    
C8    C9    A    
Cu1   O5    S    
C15   H2    S    
C33   N1    A    
C2    C43   A    
C3    C13   A    
C41   H22   S    
C2    C34   A    
C4    C35   S    
C16   O6    A    
Cu1   O7    S    
C13   C14   A    
C42   H19   S    
Cu2   O8    S    
C20   H6    S    
C20   C29   A    
C45   C47   S    
C18   H23   S    
C1    C19   S    
Cu2   O2    S    
C24   C25   A    
C5    C18   A    
C25   C26   A    
C42   H20   S    
Cu1   O1    S    
C1    O1    A    
C14   H27   S    
C43   C44   A    
C21   H8    S    
C37   C38   A    
C10   C19   A    
C23   C34   A    
C22   C40   S    
C12   C35   A    
C9    C11   A    
C43   H11   S    
C20   C33   A    
Cu1   Cu2   S    
C7    H32   S    
Cu1   O3    S    
C1    O2    A    
C3    H28   S    
C36   H1    S    
C44   C45   A    
C8    H31   S    
C9    C10   A    
C46   C47   D    
C23   H15   S    
C27   C32   A    
Cu2   O6    S    
C28   O7    A    
C6    C7    A    
C44   H12   S    
C25   C27   A    
C39   H14   S    
C12   H16   S    
C40   H26   S    
Cu2   N2    S    
C12   C39   A    
C11   C13   A    
C6    H30   S    
C38   C39   A    
C37   H18   S    
C17   H29   S    
Cu1   N1    S    
C28   O8    A    
C22   C24   A    
C38   C46   S    
C41   H24   S    
C26   C31   A    
C4    O3    A    
C34   H4    S    
C24   H9    S    
C16   O5    A    
C14   C15   A    
C2    C28   S    
C21   C22   A    
C32   H7    S    
