data_mof_unit_19843.cif
_audit_creation_date              2012-12-10T17:19:24-0500
_audit_creation_method            fapswitch 2.2
_symmetry_space_group_name_H-M    P1
_symmetry_Int_Tables_number       1
_space_group_crystal_system       triclinic
_cell_length_a                    15.008754
_cell_length_b                    10.872119
_cell_length_c                    9.691637
_cell_angle_alpha                 89.035973
_cell_angle_beta                  87.889385
_cell_angle_gamma                 95.622711
_cell_volume                      1572.44322094

loop_
_atom_site_label
_atom_site_type_symbol
_atom_type_description
_atom_site_fract_x
_atom_site_fract_y
_atom_site_fract_z
_atom_type_partial_charge
C1    C     C_R   0.495171 0.261682 0.501974 0.842395
C2    C     C_R   0.915216 0.610590 0.461143 0.148295
C3    C     C_R   0.932584 0.287322 0.587058 0.419474
C4    C     C_R   0.025589 0.286143 0.585257 -0.242188
C5    C     C_R   0.082750 0.391080 0.542200 0.014646
C6    C     C_R   0.045713 0.501409 0.507327 0.027042
C7    C     C_R   0.101983 0.610049 0.472048 0.133939
C8    C     C_R   0.064458 0.717983 0.432969 -0.171389
C9    C     C_R   0.971679 0.717823 0.425882 -0.182065
C10   C     C_R   0.175996 0.387978 0.531412 0.149775
C11   C     C_R   0.231758 0.498305 0.505529 -0.074936
C12   C     C_R   0.328925 0.498953 0.501874 0.833061
C13   C     C_R   0.194816 0.608548 0.475840 -0.267976
C14   C     C_R   0.381090 0.096526 0.709998 -0.145601
C15   C     C_R   0.318771 0.016804 0.789590 0.244311
C16   C     C_R   0.312312 0.890850 0.769424 -0.164846
C17   C     C_R   0.367704 0.842429 0.672450 -0.182169
C18   C     C_R   0.432307 0.919327 0.592886 0.101774
C19   C     C_R   0.436267 0.049496 0.604709 0.009899
C20   C     C_R   0.490803 0.125602 0.505244 -0.193482
C21   C     C_R   0.540319 0.069603 0.400681 0.450453
C22   C     C_R   0.540364 0.942212 0.399044 -0.280181
C23   C     C_R   0.498578 0.736441 0.498782 0.769282
C24   C     C_R   0.489893 0.868002 0.497012 -0.145375
C25   C     C_R   0.624999 0.662259 0.134040 -0.159608
C26   C     C_R   0.687770 0.740705 0.057426 0.163082
C27   C     C_R   0.687866 0.740855 0.914798 -0.197584
C28   C     C_R   0.625975 0.662192 0.847478 -0.143797
C29   C     C_R   0.563260 0.577460 0.920679 0.170405
C30   C     C_R   0.562067 0.579019 0.069815 0.115915
C31   C     C_R   0.440804 0.424598 0.078673 0.260891
C32   C     C_R   0.433784 0.436866 0.933773 0.185220
C33   C     C_R   0.670811 0.503330 0.498058 0.769729
C34   C     C_R   0.822275 0.609122 0.453741 -0.235962
C35   C     C_R   0.767045 0.503223 0.495765 -0.059206
C36   C     C_R   0.803186 0.399110 0.546675 -0.202098
C37   C     C_R   0.895733 0.395630 0.546770 0.012252
C38   C     C_R   0.952256 0.502513 0.505099 0.011154
Cu1   Cu    Cu3+1 0.499990 0.499990 0.640660 0.962398
Cu2   Cu    Cu3+1 0.500010 0.500010 0.359340 0.992389
H1    H     H_    0.792605 0.690735 0.419661 0.142772
H2    H     H_    0.380917 0.194030 0.726245 0.196698
H3    H     H_    0.262485 0.829741 0.827157 0.173496
H4    H     H_    0.355906 0.744239 0.656818 0.171059
H5    H     H_    0.580986 0.901182 0.320877 0.183142
H6    H     H_    0.627077 0.670437 0.243243 0.199008
H7    H     H_    0.735306 0.803958 0.855269 0.171669
H8    H     H_    0.628139 0.674249 0.738137 0.199046
H9    H     H_    0.758699 0.320690 0.585248 0.170711
H10   H     H_    0.051922 0.202976 0.621466 0.199026
H11   H     H_    0.238654 0.692148 0.451867 0.145678
H12   H     H_    0.106945 0.801954 0.405886 0.167678
H13   H     H_    0.944088 0.801630 0.393475 0.167167
N1    N     N_R   0.500860 0.501210 0.147910 -0.235120
N2    N     N_R   0.500890 0.501290 0.852040 -0.227080
O1    O     O_R   0.499990 0.319640 0.618810 -0.590160
O2    O     O_R   0.500000 0.319660 0.381240 -0.500327
O3    O     O_R   0.370250 0.499960 0.618800 -0.559269
O4    O     O_R   0.370260 0.499980 0.381230 -0.548281
O5    O     O_R   0.500000 0.680340 0.618760 -0.602695
O6    O     O_R   0.500010 0.680360 0.381190 -0.592346
O7    O     O_R   0.629740 0.500020 0.618770 -0.589041
O8    O     O_R   0.629750 0.500040 0.381200 -0.597954
I1    I     I_    0.222236 0.077184 0.929508 -0.260486
I2    I     I_    0.356824 0.279965 0.183439 -0.172875
I3    I     I_    0.781979 0.862307 0.156741 -0.484805
I4    I     I_    0.298423 0.404356 0.873179 -0.268817
O9    O     O_3   0.877578 0.184875 0.635834 -0.569718
C39   C     C_3   0.876980 0.091149 0.536586 0.072852
H14   H     H_    0.943097 0.053012 0.528598 0.164194
H15   H     H_    0.860251 0.126550 0.433081 0.140663
C40   C     C_3   0.806405 0.986380 0.580519 -0.791120
H16   H     H_    0.739528 0.021542 0.591773 0.237195
H17   H     H_    0.803597 0.913474 0.501588 0.203714
H18   H     H_    0.823540 0.945505 0.680689 0.263262
I5    I     I_    0.230125 0.214725 0.524416 -0.355289
O10   O     O_3   0.585955 0.139036 0.294657 -0.540352
C41   C     C_3   0.676846 0.160394 0.326999 0.048537
H19   H     H_    0.683696 0.206610 0.427797 0.115104
H20   H     H_    0.708450 0.072188 0.331016 0.167122
C42   C     C_3   0.726462 0.244158 0.216176 -0.670441
H21   H     H_    0.695363 0.332404 0.207959 0.260135
H22   H     H_    0.797600 0.264681 0.243028 0.194342
H23   H     H_    0.723810 0.197935 0.114881 0.262585

loop_
_geom_bond_atom_site_label_1
_geom_bond_atom_site_label_2
_ccdc_geom_bond_type
C8    C9    A    
C19   C20   A    
C42   H21   S    
C7    C8    A    
O10   C41   S    
C30   N1    A    
C26   C27   A    
C29   C30   A    
Cu2   O8    S    
C18   C24   A    
C28   C29   A    
C1    O1    A    
C34   C35   A    
C5    C6    A    
C41   H20   S    
C3    O9    S    
C15   C16   A    
C18   C19   A    
C39   H15   S    
C13   H11   S    
C12   O4    A    
C10   I5    S    
Cu1   N2    S    
C31   C32   A    
C16   C17   A    
C15   I1    S    
C6    C38   A    
C8    H12   S    
C32   N2    A    
C33   O8    A    
C14   H2    S    
C12   O3    A    
C2    C34   A    
Cu2   O4    S    
C21   C22   A    
C34   H1    S    
C40   H18   S    
C42   H22   S    
C23   O5    A    
C26   I3    S    
C40   H17   S    
Cu1   Cu2   S    
C41   H19   S    
C40   H16   S    
C29   N2    A    
C25   C26   A    
Cu1   O3    S    
C33   O7    A    
Cu2   O6    S    
C4    H10   S    
C35   C36   A    
C39   C40   S    
C37   C38   A    
C1    O2    A    
C2    C38   A    
Cu1   O1    S    
C7    C13   A    
C23   C24   S    
C17   C18   A    
C16   H3    S    
C32   I4    S    
Cu2   N1    S    
C22   C24   A    
C9    H13   S    
C3    C4    A    
C42   H23   S    
C27   H7    S    
C25   C30   A    
C31   I2    S    
Cu1   O7    S    
C28   H8    S    
C1    C20   S    
Cu2   O2    S    
C14   C19   A    
O9    C39   S    
C4    C5    A    
C11   C12   S    
C6    C7    A    
C17   H4    S    
C5    C10   A    
C11   C13   A    
C41   C42   S    
Cu1   O5    S    
C33   C35   S    
C31   N1    A    
C39   H14   S    
C10   C11   A    
C23   O6    A    
C22   H5    S    
C20   C21   A    
C3    C37   A    
C36   C37   A    
C21   O10   S    
C27   C28   A    
C14   C15   A    
C2    C9    A    
C25   H6    S    
C36   H9    S    
