data_mof_unit_55303.cif
_audit_creation_date              2013-03-05T16:08:54-0500
_audit_creation_method            fapswitch 2.2
_symmetry_space_group_name_H-M    P1
_symmetry_Int_Tables_number       1
_space_group_crystal_system       triclinic
_cell_length_a                    17.261893
_cell_length_b                    6.891645
_cell_length_c                    14.44255
_cell_angle_alpha                 89.658035
_cell_angle_beta                  110.423825
_cell_angle_gamma                 90.216154
_cell_volume                      1610.08878482

loop_
_atom_site_label
_atom_site_type_symbol
_atom_site_description
_atom_site_fract_x
_atom_site_fract_y
_atom_site_fract_z
_atom_type_partial_charge
O1    O     O_R   0.314130 0.635770 0.168990 -0.602111
O2    O     O_R   0.685870 0.364230 0.831010 -0.602104
O3    O     O_R   0.185870 0.135770 0.331010 -0.608436
O4    O     O_R   0.814130 0.864230 0.668990 -0.608437
O5    O     O_R   0.146800 0.302460 0.139760 -0.603487
O6    O     O_R   0.853200 0.697540 0.860240 -0.603483
O7    O     O_R   0.353200 0.802460 0.360240 -0.578173
O8    O     O_R   0.646800 0.197540 0.639760 -0.578176
C1    C     C_R   0.113912 0.475880 0.113051 1.035902
C2    C     C_R   0.886088 0.524120 0.886949 1.035901
C3    C     C_R   0.386055 0.975752 0.387073 1.026475
C4    C     C_R   0.613945 0.024248 0.612927 1.026512
O9    O     O_R   0.311100 0.305780 0.157130 -0.589368
O10   O     O_R   0.688900 0.694220 0.842870 -0.589368
O11   O     O_R   0.188900 0.805780 0.342870 -0.577546
O12   O     O_R   0.811100 0.194220 0.657130 -0.577552
O13   O     O_R   0.351340 0.139640 0.348510 -0.606181
O14   O     O_R   0.648660 0.860360 0.651490 -0.606186
O15   O     O_R   0.148660 0.639640 0.151490 -0.606896
O16   O     O_R   0.851340 0.360360 0.848510 -0.606898
C5    C     C_R   0.333322 0.475390 0.136879 1.061995
C6    C     C_R   0.666679 0.524610 0.863122 1.062005
C7    C     C_R   0.163209 0.973552 0.358633 1.031035
C8    C     C_R   0.836790 0.026448 0.641366 1.031050
C9    C     C_1   0.533547 0.009042 0.533111 -0.233658
C10   C     C_1   0.466453 0.990957 0.466888 -0.233649
C11   C     C_1   0.966458 0.508675 0.966809 -0.226854
C12   C     C_1   0.033542 0.491326 0.033191 -0.226856
O17   O     O_3   0.263010 0.470920 0.312770 -0.269914
O18   O     O_3   0.736990 0.529080 0.687230 -0.269923
O19   O     O_3   0.236990 0.970920 0.187230 -0.277669
O20   O     O_3   0.763010 0.029080 0.812770 -0.277668
V1    V     V_3+5 0.247590 0.194450 0.238360 1.186009
V2    V     V_3+5 0.752410 0.805550 0.761640 1.186005
V3    V     V_3+5 0.252410 0.694450 0.261640 1.202562
V4    V     V_3+5 0.747590 0.305550 0.738360 1.202550
C13   C     C_R   0.111928 0.979577 0.420994 -0.313356
C14   C     C_R   0.888071 0.020421 0.579004 -0.313355
C15   C     C_R   0.383990 0.485993 0.072797 -0.344023
C16   C     C_R   0.616011 0.514010 0.927203 -0.344032
C17   C     C_R   0.892010 0.018328 0.413056 -0.268780
C18   C     C_R   0.107988 0.981666 0.586943 -0.268781
C19   C     C_R   0.605861 0.452540 0.088321 -0.274224
C20   C     C_R   0.394141 0.547483 0.911681 -0.274238
C21   C     C_R   0.846763 0.022424 0.475864 0.343156
C22   C     C_R   0.153235 0.977568 0.524135 0.343178
C23   C     C_R   0.653998 0.467559 0.028265 0.349353
C24   C     C_R   0.346004 0.532459 0.971738 0.349361
C25   C     C_R   0.976537 0.010890 0.619058 0.055573
C26   C     C_R   0.023461 0.989111 0.380940 0.055575
C27   C     C_R   0.529009 0.541893 0.886510 0.062701
C28   C     C_R   0.470991 0.458105 0.113490 0.062707
C29   C     C_R   0.021122 0.997693 0.551872 0.076310
C30   C     C_R   0.978876 0.002306 0.448126 0.076313
C31   C     C_R   0.480589 0.522453 0.948973 0.085168
C32   C     C_R   0.519412 0.477556 0.051028 0.085151
H1    H     H_    0.856344 0.029906 0.335306 0.193393
H2    H     H_    0.143654 0.970085 0.664692 0.193395
H3    H     H_    0.638391 0.423242 0.165564 0.190557
H4    H     H_    0.361612 0.576802 0.834441 0.190551
C33   C     C_3   0.971599 0.986931 0.269659 -0.438188
C34   C     C_3   0.010548 0.941379 0.192086 -0.330920
C35   C     C_3   0.944197 0.933818 0.089236 -0.767149
H5    H     H_    0.894870 0.828917 0.087507 0.296233
H6    H     H_    0.916358 0.079553 0.066955 0.269287
H7    H     H_    0.972245 0.885731 0.035193 0.237853
H8    H     H_    0.054803 0.056264 0.190111 0.220551
H9    H     H_    0.041065 0.797779 0.208663 0.218087
H10   H     H_    0.923935 0.871938 0.259195 0.227922
H11   H     H_    0.940155 0.129829 0.250132 0.236461
C36   C     C_3   0.028400 0.013071 0.730340 -0.438186
C37   C     C_3   0.989452 0.058628 0.807912 -0.330923
C38   C     C_3   0.055804 0.066193 0.910762 -0.767146
H12   H     H_    0.083644 0.920459 0.933042 0.269292
H13   H     H_    0.105129 0.171097 0.912490 0.296230
H14   H     H_    0.027756 0.114277 0.964806 0.237852
H15   H     H_    0.958935 0.202229 0.791334 0.218087
H16   H     H_    0.945196 0.943745 0.809889 0.220551
H17   H     H_    0.059843 0.870173 0.749867 0.236460
H18   H     H_    0.076065 0.128062 0.740802 0.227923
C39   C     C_3   0.511359 0.417565 0.224257 -0.443227
C40   C     C_3   0.543503 0.606571 0.280476 -0.277545
C41   C     C_3   0.582474 0.570782 0.391495 -0.712896
H19   H     H_    0.536775 0.504367 0.420602 0.231909
H20   H     H_    0.636701 0.473668 0.407454 0.293002
H21   H     H_    0.603691 0.710712 0.429800 0.253768
H22   H     H_    0.590248 0.674519 0.253660 0.245818
H23   H     H_    0.491452 0.710253 0.266886 0.195437
H24   H     H_    0.467386 0.348750 0.255042 0.184400
H25   H     H_    0.561073 0.307718 0.239342 0.221582
C42   C     C_3   0.488641 0.582411 0.775740 -0.443262
C43   C     C_3   0.456481 0.393402 0.719534 -0.277384
C44   C     C_3   0.417591 0.429135 0.608503 -0.713201
H26   H     H_    0.363419 0.526433 0.592476 0.293040
H27   H     H_    0.463360 0.495312 0.579438 0.231904
H28   H     H_    0.396314 0.289219 0.570214 0.253831
H29   H     H_    0.508509 0.289634 0.733189 0.195446
H30   H     H_    0.409684 0.325577 0.746301 0.245829
H31   H     H_    0.438934 0.692279 0.760651 0.221571
H32   H     H_    0.532617 0.651189 0.744949 0.184422
N1    N     N_R   0.242209 0.975682 0.567676 0.224423
O21   O     O_R   0.285828 0.856883 0.536300 -0.447933
O22   O     O_R   0.279103 0.074258 0.647647 -0.418373
N2    N     N_R   0.757789 0.024296 0.432323 0.224419
O23   O     O_R   0.714165 0.143077 0.463702 -0.447948
O24   O     O_R   0.720897 0.925719 0.352351 -0.418369
N3    N     N_R   0.258310 0.567095 0.928278 0.232421
O25   O     O_R   0.206087 0.466763 0.955769 -0.466029
O26   O     O_R   0.229707 0.687460 0.854419 -0.406391
N4    N     N_R   0.741692 0.432934 0.071727 0.232420
O27   O     O_R   0.793913 0.533261 0.044230 -0.466032
O28   O     O_R   0.770297 0.312583 0.145591 -0.406396

loop_
_geom_bond_atom_site_label_1
_geom_bond_atom_site_label_2
_geom_bond_distance
_ccdc_geom_bond_type
C2    C11   1.466017 S    
C33   H11   1.112590 S    
C16   C23   1.410981 A    
C31   C32   1.422691 A    
C35   H6    1.111331 S    
O1    C5    1.289414 A    
C44   H26   1.108812 S    
N3    O26   1.301793 A    
C38   H12   1.111332 S    
O3    C7    1.289295 A    
C18   H2    1.078479 S    
N2    O24   1.301478 A    
C39   C40   1.535102 S    
C43   H30   1.110598 S    
C14   C25   1.433435 A    
C29   C30   1.419468 A    
O7    C3    1.321034 A    
C26   C30   1.436983 A    
C34   H8    1.105274 S    
O20   V4    2.153092 S    
C18   C29   1.409847 A    
O8    V4    1.970451 S    
O4    C8    1.289293 A    
C25   C29   1.436981 A    
C24   N3    1.442301 S    
O3    V1    2.018516 S    
O2    V4    2.023321 S    
C40   H22   1.110619 S    
O17   V1    2.162644 S    
C18   C22   1.388752 A    
N4    O27   1.300082 A    
N2    O23   1.299923 A    
C14   C21   1.409292 A    
C37   H16   1.105274 S    
C37   H15   1.107835 S    
C27   C42   1.530028 S    
C1    O15   1.308292 A    
C2    O16   1.308293 A    
O5    V1    1.968989 S    
O2    C6    1.289415 A    
C8    C14   1.467537 S    
N3    O25   1.300083 A    
O19   V1    1.693825 S    
C42   H32   1.108626 S    
C19   H3    1.077759 S    
C39   H24   1.108627 S    
O11   C7    1.289505 A    
C15   C28   1.422173 A    
C35   H7    1.105208 S    
O12   C8    1.289506 A    
O9    V1    2.011819 S    
C38   H13   1.108608 S    
C28   C39   1.530025 S    
O13   V1    1.972402 S    
O11   V3    2.020297 S    
C36   H18   1.112461 S    
C43   H29   1.111957 S    
C22   N1    1.442374 S    
O4    V2    2.018516 S    
O18   V2    2.162645 S    
N1    O21   1.299920 A    
C42   C43   1.535102 S    
C3    C10   1.466164 S    
C9    C10   1.224286 T    
C7    C13   1.467537 S    
C36   H17   1.112591 S    
O6    V2    1.968988 S    
O20   V2    1.693824 S    
O5    C1    1.321458 A    
C34   C35   1.527778 S    
C21   N2    1.442376 S    
C41   H19   1.111284 S    
C5    C15   1.480042 S    
O8    C4    1.321035 A    
C6    C16   1.480040 S    
O9    C5    1.292220 A    
O14   V2    1.972401 S    
C39   H25   1.108801 S    
C41   H20   1.108856 S    
C44   H28   1.110142 S    
C38   H14   1.105208 S    
O19   V3    2.153091 S    
C23   N4    1.442303 S    
O1    V3    2.023320 S    
C33   H10   1.112462 S    
C3    O13   1.307531 A    
O7    V3    1.970451 S    
C37   C38   1.527778 S    
O10   V2    2.011819 S    
C34   H9    1.107835 S    
C16   C27   1.422175 A    
O17   V3    1.687050 S    
O18   V4    1.687049 S    
C4    C9    1.466164 S    
O10   C6    1.292219 A    
C17   H1    1.078479 S    
C36   C37   1.528804 S    
O15   V3    1.973449 S    
O12   V4    2.020295 S    
C13   C26   1.433438 A    
C20   C31   1.409464 A    
C44   H27   1.111247 S    
C20   H4    1.077758 S    
C40   H23   1.111973 S    
C43   C44   1.525757 S    
C27   C31   1.433300 A    
C33   C34   1.528805 S    
N4    O28   1.301793 A    
C17   C30   1.409849 A    
O6    C2    1.321458 A    
C35   H5    1.108607 S    
O16   V4    1.973449 S    
C20   C24   1.398138 A    
C19   C32   1.409466 A    
C41   H21   1.110157 S    
N1    O22   1.301478 A    
C40   C41   1.525772 S    
C25   C36   1.542968 S    
C4    O14   1.307531 A    
C11   C12   1.224437 T    
C26   C33   1.542967 S    
C17   C21   1.388753 A    
C42   H31   1.108801 S    
C13   C22   1.409289 A    
C19   C23   1.398133 A    
C28   C32   1.433302 A    
C1    C12   1.466018 S    
C15   C24   1.410982 A    
