data_mof_unit_33458.cif
_audit_creation_date              2012-10-26T19:06:54-0400
_audit_creation_method            fapswitch 2.2
_symmetry_space_group_name_H-M    P1
_symmetry_Int_Tables_number       1
_space_group_crystal_system       triclinic
_cell_length_a                    12.385773
_cell_length_b                    13.13963
_cell_length_c                    27.758015
_cell_angle_alpha                 76.452606
_cell_angle_beta                  100.92944
_cell_angle_gamma                 117.013378
_cell_volume                      3894.53559799

loop_
_atom_site_label
_atom_site_type_symbol
_atom_type_description
_atom_site_fract_x
_atom_site_fract_y
_atom_site_fract_z
_atom_type_partial_charge
C1    C     C_R   0.855027 0.285812 0.506101 0.533643
C2    C     C_R   0.923616 0.416372 0.027851 0.033036
C3    C     C_R   0.117383 0.594588 0.025469 0.014688
C4    C     C_R   0.000321 0.501033 0.592340 0.563777
C5    C     C_R   0.019032 0.505872 0.051810 -0.051975
C6    C     C_R   0.818697 0.338529 0.053299 0.259070
C7    C     C_R   0.816690 0.344668 0.102958 -0.100631
C8    C     C_R   0.915379 0.425254 0.128016 -0.012619
C9    C     C_R   0.016027 0.507087 0.102430 -0.058895
C10   C     C_R   0.113158 0.590970 0.127491 -0.017711
C11   C     C_R   0.107751 0.591264 0.177504 0.428916
C12   C     C_R   0.068187 0.448600 0.731475 -0.126802
C13   C     C_R   0.913941 0.428110 0.178116 0.384968
C14   C     C_R   0.069219 0.455944 0.289298 0.315438
C15   C     C_R   0.068730 0.454996 0.339738 -0.149453
C16   C     C_R   0.145110 0.714102 0.492078 0.550508
C17   C     C_R   0.938724 0.554987 0.318349 -0.162267
C18   C     C_R   0.941546 0.560451 0.267584 0.002770
C19   C     C_R   0.006846 0.509751 0.253143 0.265527
C20   C     C_R   0.935978 0.409787 0.978886 0.033350
C21   C     C_R   0.023743 0.506377 0.950734 0.014558
C22   C     C_R   0.110126 0.602054 0.973147 0.017074
C23   C     C_R   0.020436 0.512348 0.746883 0.222186
C24   C     C_R   0.866068 0.309010 0.957304 -0.100135
C25   C     C_R   0.182298 0.704470 0.891678 -0.128115
C26   C     C_R   0.219944 0.670780 0.052963 0.252681
C27   C     C_R   0.214756 0.670643 0.102703 -0.086107
C28   C     C_R   0.000559 0.500472 0.407649 0.520865
C29   C     C_R   0.183779 0.702896 0.942071 -0.116520
C30   C     C_R   0.282107 0.035660 0.439008 0.027929
C31   C     C_R   0.228925 0.837529 0.481656 -0.013027
C32   C     C_R   0.807160 0.082662 0.548739 0.268673
C33   C     C_R   0.724777 0.966556 0.558547 -0.111108
C34   C     C_R   0.025066 0.507218 0.899653 -0.028919
C35   C     C_R   0.605133 0.929900 0.537403 -0.152986
C36   C     C_R   0.565380 0.008247 0.503799 0.009242
C37   C     C_R   0.653774 0.120760 0.487587 -0.070522
C38   C     C_R   0.441181 0.979015 0.485860 -0.037224
C39   C     C_R   0.407819 0.061103 0.450985 0.017653
C40   C     C_R   0.946884 0.412440 0.827123 0.413512
C41   C     C_R   0.500126 0.162792 0.427785 0.265402
C42   C     C_R   0.621960 0.189974 0.446079 -0.093491
C43   C     C_R   0.348761 0.870885 0.502608 -0.173682
C44   C     C_R   0.195178 0.919400 0.448671 0.258068
C45   C     C_R   0.946212 0.408917 0.877957 0.024594
C46   C     C_R   0.773023 0.160786 0.512432 -0.005327
C47   C     C_R   0.331673 0.309781 0.573112 -0.150167
C48   C     C_R   0.756685 0.637175 0.429014 0.068701
C49   C     C_R   0.651115 0.647008 0.406938 -0.169418
C50   C     C_R   0.545214 0.584098 0.430821 -0.101518
C51   C     C_R   0.545213 0.520180 0.479111 -0.007288
C52   C     C_R   0.104242 0.605515 0.819710 0.430005
C53   C     C_R   0.650538 0.500413 0.496814 0.117735
C54   C     C_R   0.440803 0.464327 0.507413 -0.045013
C55   C     C_R   0.435281 0.371597 0.546798 0.000254
C56   C     C_R   0.869821 0.309117 0.907557 -0.119420
C57   C     C_R   0.534815 0.343551 0.560614 0.214057
C58   C     C_R   0.642598 0.412011 0.537706 -0.100679
C59   C     C_R   0.346271 0.502078 0.501099 0.414581
C60   C     C_R   0.237105 0.342921 0.562547 -0.017214
C61   C     C_R   0.966010 0.575480 0.711696 0.321389
C62   C     C_R   0.950953 0.566388 0.660708 0.243229
C63   C     C_R   0.061494 0.446222 0.681219 -0.214813
C64   C     C_3   0.985212 0.758192 0.710236 -0.073033
C65   C     C_3   0.397536 0.679205 0.037901 -0.125248
C66   C     C_3   0.876316 0.622551 0.229974 -0.235777
C67   C     C_R   0.105173 0.606317 0.870259 0.025871
C68   C     C_3   0.945857 0.754106 0.227794 -0.305337
C69   C     C_3   0.881608 0.817854 0.189615 -0.451897
C70   C     C_3   0.069950 0.864144 0.379472 -0.128439
C71   C     C_3   0.535587 0.343423 0.379572 -0.134066
C72   C     C_3   0.236346 0.129463 0.422399 -0.214647
C73   C     C_3   0.166534 0.129121 0.462781 -0.307887
C74   C     C_3   0.122130 0.223933 0.447589 -0.431255
C75   C     C_3   0.913555 0.138020 0.621322 -0.121973
C76   C     C_3   0.531958 0.164440 0.584691 -0.119587
C77   C     C_3   0.325723 0.634633 0.431029 -0.056895
C78   C     C_R   0.003270 0.504575 0.645362 -0.021570
C79   C     C_3   0.078987 0.290236 0.284246 -0.119054
C80   C     C_3   0.658593 0.156322 0.051758 -0.134936
C81   C     C_3   0.766323 0.566432 0.630732 -0.083144
C82   C     C_R   0.002314 0.502905 0.354574 -0.058403
Cu1   Cu    Cu3+1 0.098270 0.475420 0.511360 0.953284
Cu2   Cu    Cu3+1 0.901730 0.524580 0.488640 0.945467
H1    H     H_    0.100433 0.396809 0.670443 0.140390
H2    H     H_    0.692962 0.263787 0.426580 0.143425
H3    H     H_    0.156802 0.293998 0.582329 0.162931
H4    H     H_    0.323443 0.235995 0.602079 0.165759
H5    H     H_    0.837625 0.681161 0.409554 0.141345
H6    H     H_    0.812621 0.230353 0.892443 0.164164
H7    H     H_    0.462588 0.573354 0.408139 0.105196
H8    H     H_    0.649261 0.696808 0.369966 0.103918
H9    H     H_    0.717855 0.391986 0.552785 0.185962
H10   H     H_    0.119892 0.416213 0.367111 0.120336
H11   H     H_    0.735518 0.288392 0.121657 0.161513
H12   H     H_    0.241285 0.783499 0.869475 0.165019
H13   H     H_    0.811284 0.227240 0.978728 0.160503
H14   H     H_    0.942057 0.782581 0.673353 0.153820
H15   H     H_    0.083678 0.785295 0.707891 0.153093
H16   H     H_    0.979797 0.808118 0.736125 0.142059
H17   H     H_    0.349990 0.605367 0.017012 0.131533
H18   H     H_    0.418748 0.647520 0.077759 0.123454
H19   H     H_    0.485263 0.737155 0.021912 0.145182
H20   H     H_    0.875625 0.799450 0.151878 0.159044
H21   H     H_    0.788464 0.790586 0.199544 0.156561
H22   H     H_    0.933791 0.912682 0.188975 0.148676
H23   H     H_    0.888287 0.593517 0.329462 0.120997
H24   H     H_    0.953381 0.776547 0.264881 0.146419
H25   H     H_    0.039292 0.784035 0.217420 0.199404
H26   H     H_    0.865807 0.602646 0.192200 0.169301
H27   H     H_    0.782946 0.591890 0.240591 0.146431
H28   H     H_    0.978142 0.848694 0.360278 0.116962
H29   H     H_    0.083215 0.784661 0.382097 0.114129
H30   H     H_    0.136943 0.938460 0.355913 0.116827
H31   H     H_    0.624816 0.374941 0.364944 0.140600
H32   H     H_    0.548003 0.371472 0.415851 0.116562
H33   H     H_    0.482661 0.385046 0.352843 0.146786
H34   H     H_    0.292907 0.732005 0.122124 0.174698
H35   H     H_    0.200190 0.310419 0.440669 0.140537
H36   H     H_    0.057113 0.209059 0.413623 0.144139
H37   H     H_    0.074487 0.222029 0.478015 0.206584
H38   H     H_    0.086206 0.044542 0.470094 0.223531
H39   H     H_    0.227393 0.143339 0.498004 0.159297
H40   H     H_    0.311280 0.217360 0.416468 0.179635
H41   H     H_    0.177056 0.115775 0.386845 0.162088
H42   H     H_    0.853235 0.056704 0.644157 0.115724
H43   H     H_    0.881574 0.206575 0.617277 0.116877
H44   H     H_    0.005488 0.168448 0.641907 0.126034
H45   H     H_    0.239642 0.783683 0.955399 0.187056
H46   H     H_    0.623209 0.186664 0.574224 0.117291
H47   H     H_    0.460770 0.135864 0.553232 0.120320
H48   H     H_    0.511041 0.089894 0.615790 0.153335
H49   H     H_    0.259318 0.671084 0.426995 0.153348
H50   H     H_    0.283754 0.555557 0.413511 0.093496
H51   H     H_    0.399505 0.703724 0.409020 0.113306
H52   H     H_    0.984001 0.256953 0.266078 0.151101
H53   H     H_    0.079778 0.256687 0.324884 0.097411
H54   H     H_    0.129140 0.255911 0.268495 0.146906
H55   H     H_    0.598134 0.146842 0.078970 0.138485
H56   H     H_    0.110916 0.400830 0.758691 0.145529
H57   H     H_    0.727649 0.123640 0.070235 0.100859
H58   H     H_    0.600748 0.100443 0.023849 0.156799
H59   H     H_    0.744862 0.589666 0.662512 0.162106
H60   H     H_    0.730028 0.470465 0.635036 0.145332
H61   H     H_    0.717998 0.596096 0.596633 0.142773
H62   H     H_    0.367774 0.808122 0.530925 0.156883
H63   H     H_    0.546965 0.839418 0.548087 0.137044
H64   H     H_    0.752363 0.905313 0.584712 0.133052
N1    N     N_R   0.024328 0.510190 0.799066 -0.368439
N2    N     N_R   0.009143 0.510491 0.201616 -0.373113
N3    N     N_R   0.246290 0.438210 0.528570 -0.225059
N4    N     N_R   0.754320 0.561170 0.471730 -0.229765
O1    O     O_R   0.972510 0.318140 0.514280 -0.466853
O2    O     O_R   0.082990 0.479230 0.439860 -0.526387
O3    O     O_R   0.917010 0.520730 0.420680 -0.523558
O4    O     O_2   0.869973 0.319408 0.805735 -0.496558
O5    O     O_3   0.921086 0.638799 0.728528 -0.560206
O6    O     O_3   0.329038 0.743001 0.032919 -0.593715
O7    O     O_3   0.076548 0.887719 0.427302 -0.562108
O8    O     O_3   0.470610 0.221948 0.382562 -0.579053
O9    O     O_3   0.921727 0.118838 0.574464 -0.568571
O10   O     O_3   0.531953 0.258034 0.601212 -0.579243
O11   O     O_3   0.374175 0.617967 0.481206 -0.547763
O12   O     O_2   0.818342 0.349298 0.203254 -0.522593
O13   O     O_3   0.138206 0.412319 0.274575 -0.546716
O14   O     O_3   0.711712 0.272297 0.026870 -0.569069
O15   O     O_3   0.892444 0.623214 0.625529 -0.560245
O16   O     O_2   0.182935 0.698776 0.791503 -0.514613
O17   O     O_2   0.200106 0.671345 0.201914 -0.501915
O18   O     O_R   0.806530 0.359640 0.495100 -0.547667
O19   O     O_R   0.082990 0.479270 0.579320 -0.508937
O20   O     O_R   0.917010 0.520770 0.560140 -0.469717
O21   O     O_R   0.193470 0.640360 0.504900 -0.472837
O22   O     O_R   0.027490 0.681860 0.485720 -0.441680

loop_
_geom_bond_atom_site_label_1
_geom_bond_atom_site_label_2
_ccdc_geom_bond_type
C10   C27   A    
C77   O11   S    
C66   C68   S    
C6    O14   S    
C8    C13   A    
C4    O19   A    
C41   C42   A    
C76   O10   S    
C35   C36   A    
C25   C67   A    
C65   H17   S    
C15   H10   S    
C7    C8    A    
C39   C41   A    
Cu1   O2    S    
C70   H30   S    
C16   C31   S    
C4    C78   S    
C74   H35   S    
C12   C23   A    
C26   C27   A    
C31   C43   A    
C36   C37   A    
C22   C29   A    
C58   H9    S    
C13   N2    A    
C70   O7    S    
Cu2   O18   S    
C17   H23   S    
C38   C39   A    
C76   H47   S    
C1    C46   S    
C27   H34   S    
C1    O18   A    
C19   N2    S    
C17   C82   A    
C73   C74   S    
C73   H38   S    
C37   C42   A    
C33   C35   A    
C47   C60   A    
C68   C69   S    
C76   H46   S    
C64   H15   S    
C29   H45   S    
C57   O10   S    
C20   C24   A    
C45   C56   A    
C52   N1    A    
C73   H39   S    
Cu1   O19   S    
C64   O5    S    
C30   C39   A    
C28   O3    A    
C12   H56   S    
C75   H44   S    
C42   H2    S    
C66   H27   S    
C9    C10   A    
C72   C73   S    
C64   H14   S    
C56   H6    S    
C62   O15   S    
C23   N1    S    
C21   C22   A    
C63   H1    S    
C28   O2    A    
C30   C44   A    
C2    C6    A    
C77   H49   S    
C65   H18   S    
Cu2   O22   S    
C80   O14   S    
C60   H3    S    
C50   C51   A    
C15   C82   A    
Cu1   N3    S    
C54   C59   A    
C81   H60   S    
C70   H29   S    
C25   C29   A    
C40   C45   A    
C31   C44   A    
C71   H33   S    
C28   C82   S    
C24   H13   S    
Cu1   O21   S    
C12   C63   A    
C69   H21   S    
C18   C19   A    
C21   C34   A    
C3    C5    A    
C2    C20   A    
C79   O13   S    
C51   C53   A    
C60   N3    A    
C5    C9    A    
C71   O8    S    
C33   H64   S    
C61   O5    S    
C53   N4    A    
C41   O8    S    
C11   N2    A    
Cu1   Cu2   S    
C81   H59   S    
C53   C58   A    
C32   O9    S    
C74   H37   S    
C17   C18   A    
C8    C9    A    
C71   H31   S    
C34   C45   A    
C35   H63   S    
C66   H26   S    
C14   O13   S    
C1    O1    A    
C81   O15   S    
C52   C67   A    
C70   H28   S    
Cu2   N4    S    
C48   C49   A    
C79   H53   S    
C79   H52   S    
C11   O17   S    
C81   H61   S    
C48   H5    S    
C48   N4    A    
C16   O21   A    
C72   H40   S    
C2    C5    A    
C18   C66   S    
C77   H50   S    
C65   H19   S    
C49   H8    S    
C7    H11   S    
C13   O12   S    
C47   C55   A    
C69   H20   S    
C16   O22   A    
C54   C55   A    
C4    O20   A    
C32   C46   A    
C14   C19   A    
C62   C78   A    
C3    C26   A    
C65   O6    S    
Cu2   O20   S    
C34   C67   A    
C30   C72   S    
C69   H22   S    
C6    C7    A    
Cu1   O1    S    
C59   N3    A    
C24   C56   A    
C80   H55   S    
C74   H36   S    
C80   H58   S    
C72   H41   S    
C75   O9    S    
C75   H42   S    
C32   C33   A    
C51   C54   A    
C55   C57   A    
C64   H16   S    
C38   C43   A    
C43   H62   S    
C47   H4    S    
C76   H48   S    
C57   C58   A    
C36   C38   A    
Cu2   O3    S    
C40   N1    A    
C26   O6    S    
C75   H43   S    
C68   H25   S    
C61   C62   A    
C68   H24   S    
C71   H32   S    
C59   O11   S    
C10   C11   A    
C50   H7    S    
C23   C61   A    
C79   H54   S    
C20   C21   A    
C25   H12   S    
C49   C50   A    
C44   O7    S    
C14   C15   A    
C40   O4    S    
C3    C22   A    
C77   H51   S    
C37   C46   A    
C80   H57   S    
C52   O16   S    
C63   C78   A    
