data_mof_unit_63574.cif
_audit_creation_date              2012-12-10T20:18:26-0500
_audit_creation_method            fapswitch 2.2
_symmetry_space_group_name_H-M    P1
_symmetry_Int_Tables_number       1
_space_group_crystal_system       tetragonal
_cell_length_a                    35.500169
_cell_length_b                    35.500169
_cell_length_c                    29.137961
_cell_angle_alpha                 90.0
_cell_angle_beta                  90.0
_cell_angle_gamma                 90.0
_cell_volume                      36721.4649775

loop_
_atom_site_label
_atom_site_type_symbol
_atom_type_description
_atom_site_fract_x
_atom_site_fract_y
_atom_site_fract_z
_atom_type_partial_charge
C1    C     C_R   0.000000 0.426698 0.500000 0.968048
C2    C     C_1   0.233466 0.000000 0.500000 0.032925
C3    C     C_1   0.500000 0.000000 0.678918 0.051204
C4    C     C_1   0.500000 0.000000 0.821082 0.051204
C5    C     C_1   0.000000 0.500000 0.821082 0.051204
C6    C     C_1   0.500000 0.000000 0.178918 0.051204
C7    C     C_1   0.000000 0.500000 0.178918 0.051204
C8    C     C_1   0.000000 0.500000 0.271145 0.051474
C9    C     C_1   0.500000 0.000000 0.271145 0.051474
C10   C     C_1   0.000000 0.500000 0.728855 0.051474
C11   C     C_1   0.500000 0.000000 0.728855 0.051474
C12   C     C_1   0.500000 0.000000 0.771145 0.051474
C13   C     C_1   0.000000 0.766534 0.500000 0.032925
C14   C     C_1   0.000000 0.500000 0.771145 0.051474
C15   C     C_1   0.500000 0.000000 0.228855 0.051474
C16   C     C_1   0.000000 0.500000 0.228855 0.051474
C17   C     C_R   0.025668 0.174050 0.527457 -0.159829
C18   C     C_R   0.174050 0.974332 0.527457 -0.159830
C19   C     C_R   0.974332 0.825950 0.527457 -0.159830
C20   C     C_R   0.825950 0.025668 0.527457 -0.159830
C21   C     C_R   0.025668 0.825950 0.472543 -0.159830
C22   C     C_R   0.174050 0.025668 0.472542 -0.159830
C23   C     C_R   0.974332 0.174050 0.472543 -0.159830
C24   C     C_1   0.766534 0.000000 0.500000 0.032925
C25   C     C_R   0.825950 0.974332 0.472543 -0.159830
C26   C     C_R   0.525668 0.674050 0.027457 -0.159829
C27   C     C_R   0.674050 0.474332 0.027457 -0.159830
C28   C     C_R   0.474332 0.325950 0.027457 -0.159830
C29   C     C_R   0.325950 0.525668 0.027457 -0.159830
C30   C     C_R   0.525668 0.325950 0.972543 -0.159830
C31   C     C_R   0.674050 0.525668 0.972542 -0.159830
C32   C     C_R   0.474332 0.674050 0.972543 -0.159830
C33   C     C_R   0.325950 0.474332 0.972543 -0.159830
C34   C     C_R   0.025848 0.134837 0.527667 0.354841
C35   C     C_1   0.500000 0.733466 0.000000 0.032925
C36   C     C_R   0.134837 0.974152 0.527667 0.354841
C37   C     C_R   0.974152 0.865162 0.527667 0.354841
C38   C     C_R   0.865162 0.025848 0.527667 0.354840
C39   C     C_R   0.025848 0.865162 0.472333 0.354841
C40   C     C_R   0.134837 0.025848 0.472333 0.354842
C41   C     C_R   0.974152 0.134837 0.472333 0.354840
C42   C     C_R   0.865162 0.974152 0.472333 0.354841
C43   C     C_R   0.525848 0.634837 0.027667 0.354841
C44   C     C_R   0.634838 0.474152 0.027667 0.354841
C45   C     C_R   0.474152 0.365163 0.027667 0.354841
C46   C     C_1   0.733466 0.500000 1.000000 0.032925
C47   C     C_R   0.365162 0.525848 0.027667 0.354840
C48   C     C_R   0.525848 0.365162 0.972333 0.354841
C49   C     C_R   0.634837 0.525848 0.972333 0.354842
C50   C     C_R   0.474152 0.634838 0.972333 0.354840
C51   C     C_R   0.365163 0.474152 0.972333 0.354841
C52   C     C_R   0.000000 0.114981 0.500000 -0.228591
C53   C     C_R   0.114981 0.000000 0.500000 -0.228591
C54   C     C_R   0.000000 0.885019 0.500000 -0.228591
C55   C     C_R   0.885019 0.000000 0.500000 -0.228591
C56   C     C_R   0.500000 0.614981 0.000000 -0.228591
C57   C     C_1   0.500000 0.266534 0.000000 0.032925
C58   C     C_R   0.614981 0.500000 0.000000 -0.228591
C59   C     C_R   0.500000 0.385019 0.000000 -0.228591
C60   C     C_R   0.385019 0.500000 0.000000 -0.228591
C61   C     C_R   1.000000 0.193445 0.500000 -0.006584
C62   C     C_R   0.193445 1.000000 0.500000 -0.006583
C63   C     C_R   1.000000 0.806554 0.500000 -0.006583
C64   C     C_R   0.806554 0.000000 0.500000 -0.006584
C65   C     C_R   0.500000 0.693445 0.000000 -0.006584
C66   C     C_R   0.693445 0.500000 1.000000 -0.006583
C67   C     C_R   0.500000 0.306555 0.000000 -0.006583
C68   C     C_1   0.266534 0.500000 1.000000 0.032925
C69   C     C_R   0.306555 0.500000 1.000000 -0.006584
C70   C     C_1   1.000000 0.267113 0.500000 0.029891
C71   C     C_1   0.267113 0.000000 0.500000 0.029891
C72   C     C_1   0.000000 0.732887 0.500000 0.029890
C73   C     C_R   0.426698 0.000000 0.500000 0.968048
C74   C     C_1   0.732887 0.000000 0.500000 0.029891
C75   C     C_1   0.500000 0.767113 0.000000 0.029891
C76   C     C_1   0.767113 0.500000 1.000000 0.029891
C77   C     C_1   0.500000 0.232887 0.000000 0.029890
C78   C     C_1   0.232887 0.500000 1.000000 0.029891
C79   C     C_R   0.021935 0.326529 0.531891 -0.165604
C80   C     C_R   0.326529 0.978065 0.531891 -0.165604
C81   C     C_R   0.978065 0.673471 0.531891 -0.165604
C82   C     C_R   0.673471 0.021935 0.531891 -0.165604
C83   C     C_R   0.021935 0.673471 0.468108 -0.165604
C84   C     C_R   1.000000 0.573302 0.500000 0.968048
C85   C     C_R   0.326529 0.021935 0.468108 -0.165604
C86   C     C_R   0.978065 0.326529 0.468108 -0.165604
C87   C     C_R   0.673471 0.978065 0.468108 -0.165605
C88   C     C_R   0.521935 0.826529 0.031892 -0.165604
C89   C     C_R   0.826529 0.478065 0.031891 -0.165604
C90   C     C_R   0.478065 0.173471 0.031892 -0.165604
C91   C     C_R   0.173471 0.521935 0.031891 -0.165604
C92   C     C_R   0.521935 0.173471 0.968108 -0.165604
C93   C     C_R   0.826529 0.521935 0.968108 -0.165604
C94   C     C_R   0.478065 0.826529 0.968108 -0.165604
C95   C     C_R   0.573302 0.000000 0.500000 0.968048
C96   C     C_R   0.173471 0.478065 0.968108 -0.165605
C97   C     C_R   0.022101 0.365743 0.532128 0.341744
C98   C     C_R   0.365743 0.977899 0.532128 0.341744
C99   C     C_R   0.977899 0.634257 0.532128 0.341744
C100  C     C_R   0.634257 0.022101 0.532128 0.341744
C101  C     C_R   0.022101 0.634257 0.467872 0.341744
C102  C     C_R   0.365743 0.022101 0.467872 0.341744
C103  C     C_R   0.977899 0.365743 0.467872 0.341745
C104  C     C_R   0.634257 0.977899 0.467872 0.341744
C105  C     C_R   0.522101 0.865743 0.032128 0.341744
C106  C     C_R   0.500000 0.926698 0.000000 0.968048
C107  C     C_R   0.865743 0.477899 0.032128 0.341744
C108  C     C_R   0.477899 0.134257 0.032128 0.341744
C109  C     C_R   0.134257 0.522101 0.032128 0.341744
C110  C     C_R   0.522101 0.134257 0.967872 0.341744
C111  C     C_R   0.865743 0.522101 0.967872 0.341744
C112  C     C_R   0.477899 0.865743 0.967872 0.341745
C113  C     C_R   0.134257 0.477899 0.967872 0.341744
C114  C     C_R   0.000000 0.385628 0.500000 -0.233769
C115  C     C_R   0.385628 0.000000 0.500000 -0.233769
C116  C     C_R   0.000000 0.614372 0.500000 -0.233770
C117  C     C_R   0.926698 0.500000 0.000000 0.968048
C118  C     C_R   0.614372 0.000000 0.500000 -0.233770
C119  C     C_R   0.500000 0.885628 0.000000 -0.233769
C120  C     C_R   0.885628 0.500000 1.000000 -0.233769
C121  C     C_R   0.500000 0.114372 0.000000 -0.233770
C122  C     C_R   0.114372 0.500000 1.000000 -0.233770
C123  C     C_R   1.000000 0.307134 0.500000 -0.006596
C124  C     C_R   0.307134 0.000000 0.500000 -0.006596
C125  C     C_R   1.000000 0.692866 0.500000 -0.006596
C126  C     C_R   0.692866 0.000000 0.500000 -0.006596
C127  C     C_R   0.500000 0.807134 0.000000 -0.006596
C128  C     C_R   0.500000 0.073302 0.000000 0.968048
C129  C     C_R   0.807134 0.500000 1.000000 -0.006596
C130  C     C_R   0.500000 0.192865 0.000000 -0.006596
C131  C     C_R   0.192865 0.500000 1.000000 -0.006596
C132  C     C_R   0.073950 1.000000 0.500000 1.023815
C133  C     C_R   0.000000 0.926050 0.500000 1.023816
C134  C     C_R   0.926050 0.000000 0.500000 1.023816
C135  C     C_R   1.000000 0.073950 0.500000 1.023815
C136  C     C_R   0.573950 0.500000 0.000000 1.023815
C137  C     C_R   0.500000 0.426050 0.000000 1.023816
C138  C     C_R   0.426050 0.500000 0.000000 1.023816
C139  C     C_R   0.073302 0.500000 0.000000 0.968048
C140  C     C_R   0.500000 0.573950 0.000000 1.023815
C141  C     C_R   0.000000 0.500000 0.414154 0.900684
C142  C     C_R   0.500000 0.000000 0.414154 0.900684
C143  C     C_R   0.000000 0.500000 0.585846 0.900683
C144  C     C_R   0.500000 0.000000 0.585846 0.900683
C145  C     C_R   0.500000 0.000000 0.914154 0.900684
C146  C     C_R   0.000000 0.500000 0.914154 0.900684
C147  C     C_R   0.500000 0.000000 0.085846 0.900683
C148  C     C_R   0.000000 0.500000 0.085846 0.900683
C149  C     C_1   0.000000 0.500000 0.363370 -0.118004
C150  C     C_1   1.000000 0.233466 0.500000 0.032925
C151  C     C_1   0.500000 0.000000 0.363370 -0.118004
C152  C     C_1   0.000000 0.500000 0.636630 -0.118004
C153  C     C_1   0.500000 0.000000 0.636630 -0.118004
C154  C     C_1   0.500000 0.000000 0.863370 -0.118004
C155  C     C_1   0.000000 0.500000 0.863370 -0.118004
C156  C     C_1   0.500000 0.000000 0.136630 -0.118004
C157  C     C_1   0.000000 0.500000 0.136630 -0.118004
C158  C     C_1   0.000000 0.500000 0.321082 0.051204
C159  C     C_1   0.500000 0.000000 0.321082 0.051204
C160  C     C_1   0.000000 0.500000 0.678918 0.051204
Cl1   Cl    Cl    0.059955 0.111680 0.561409 -0.525919
Cl2   Cl    Cl    0.611680 0.440045 0.061409 -0.525919
Cl3   Cl    Cl    0.440045 0.388320 0.061409 -0.525919
Cl4   Cl    Cl    0.388320 0.559955 0.061409 -0.525919
Cl5   Cl    Cl    0.559955 0.388320 0.938590 -0.525919
Cl6   Cl    Cl    0.611680 0.559955 0.938590 -0.525919
Cl7   Cl    Cl    0.440045 0.611680 0.938590 -0.525919
Cl8   Cl    Cl    0.388320 0.440045 0.938591 -0.525919
Cl9   Cl    Cl    0.049040 0.388828 0.574470 -0.556422
Cl10  Cl    Cl    0.388828 0.950960 0.574470 -0.556422
Cl11  Cl    Cl    0.950960 0.611171 0.574470 -0.556422
Cl12  Cl    Cl    0.111680 0.940045 0.561410 -0.525919
Cl13  Cl    Cl    0.611171 0.049040 0.574470 -0.556423
Cl14  Cl    Cl    0.049040 0.611171 0.425530 -0.556422
Cl15  Cl    Cl    0.388828 0.049040 0.425530 -0.556422
Cl16  Cl    Cl    0.950960 0.388828 0.425530 -0.556422
Cl17  Cl    Cl    0.611171 0.950960 0.425530 -0.556422
Cl18  Cl    Cl    0.549040 0.888828 0.074470 -0.556422
Cl19  Cl    Cl    0.888828 0.450960 0.074470 -0.556422
Cl20  Cl    Cl    0.450960 0.111172 0.074470 -0.556422
Cl21  Cl    Cl    0.111172 0.549040 0.074470 -0.556423
Cl22  Cl    Cl    0.549040 0.111172 0.925530 -0.556422
Cl23  Cl    Cl    0.940045 0.888320 0.561410 -0.525919
Cl24  Cl    Cl    0.888828 0.549040 0.925530 -0.556422
Cl25  Cl    Cl    0.450960 0.888828 0.925530 -0.556422
Cl26  Cl    Cl    0.111172 0.450960 0.925530 -0.556422
Cl27  Cl    Cl    0.888320 0.059955 0.561409 -0.525919
Cl28  Cl    Cl    0.059955 0.888320 0.438590 -0.525919
Cl29  Cl    Cl    0.111680 0.059955 0.438590 -0.525919
Cl30  Cl    Cl    0.940045 0.111680 0.438590 -0.525919
Cl31  Cl    Cl    0.888320 0.940045 0.438591 -0.525919
Cl32  Cl    Cl    0.559955 0.611680 0.061409 -0.525919
H1    H     H_    0.045655 0.189387 0.548485 0.190136
H2    H     H_    0.689387 0.454345 0.048485 0.190136
H3    H     H_    0.454345 0.310613 0.048485 0.190136
H4    H     H_    0.310613 0.545655 0.048485 0.190136
H5    H     H_    0.545655 0.310613 0.951515 0.190136
H6    H     H_    0.689387 0.545655 0.951515 0.190136
H7    H     H_    0.454345 0.689387 0.951515 0.190136
H8    H     H_    0.310613 0.454345 0.951515 0.190136
H9    H     H_    0.038731 0.311187 0.556715 0.191216
H10   H     H_    0.311187 0.961269 0.556715 0.191216
H11   H     H_    0.961269 0.688813 0.556715 0.191216
H12   H     H_    0.189387 0.954345 0.548485 0.190136
H13   H     H_    0.688813 0.038731 0.556715 0.191216
H14   H     H_    0.038731 0.688813 0.443285 0.191216
H15   H     H_    0.311187 0.038731 0.443285 0.191216
H16   H     H_    0.961269 0.311187 0.443285 0.191216
H17   H     H_    0.688813 0.961269 0.443285 0.191216
H18   H     H_    0.538731 0.811187 0.056715 0.191216
H19   H     H_    0.811187 0.461269 0.056715 0.191216
H20   H     H_    0.461269 0.188813 0.056715 0.191216
H21   H     H_    0.188813 0.538731 0.056715 0.191216
H22   H     H_    0.538731 0.188813 0.943285 0.191216
H23   H     H_    0.954345 0.810613 0.548485 0.190136
H24   H     H_    0.811187 0.538731 0.943285 0.191216
H25   H     H_    0.461269 0.811187 0.943285 0.191216
H26   H     H_    0.188813 0.461269 0.943285 0.191216
H27   H     H_    0.810613 0.045655 0.548485 0.190136
H28   H     H_    0.045655 0.810613 0.451515 0.190136
H29   H     H_    0.189387 0.045655 0.451515 0.190136
H30   H     H_    0.954345 0.189387 0.451515 0.190136
H31   H     H_    0.810613 0.954345 0.451515 0.190136
H32   H     H_    0.545655 0.689387 0.048485 0.190136
O1    O     O_R   0.968700 0.444570 0.500010 -0.577860
O2    O     O_R   0.944570 0.531300 0.000010 -0.577861
O3    O     O_R   0.531300 0.055430 0.000010 -0.577861
O4    O     O_R   0.055430 0.468700 0.000010 -0.577860
O5    O     O_R   0.468700 0.055430 0.999990 -0.577860
O6    O     O_R   0.944570 0.468700 0.999990 -0.577860
O7    O     O_R   0.531300 0.944570 0.999990 -0.577861
O8    O     O_R   0.055430 0.531300 0.999990 -0.577861
O9    O     O_R   0.968700 0.500000 0.436870 -0.586131
O10   O     O_R   0.500000 0.031300 0.436870 -0.586132
O11   O     O_R   0.031300 0.500000 0.436870 -0.586132
O12   O     O_R   0.444570 0.031300 0.500010 -0.577861
O13   O     O_R   0.500000 0.968700 0.436870 -0.586131
O14   O     O_R   0.968700 0.500000 0.563130 -0.586131
O15   O     O_R   0.500000 0.968700 0.563130 -0.586131
O16   O     O_R   0.031300 0.500000 0.563130 -0.586132
O17   O     O_R   0.500000 0.031300 0.563130 -0.586132
O18   O     O_R   0.468700 0.000000 0.936870 -0.586131
O19   O     O_R   0.000000 0.531300 0.936870 -0.586132
O20   O     O_R   0.531300 0.000000 0.936870 -0.586132
O21   O     O_R   0.000000 0.468700 0.936870 -0.586131
O22   O     O_R   0.468700 0.000000 0.063130 -0.586131
O23   O     O_R   0.031300 0.555430 0.500010 -0.577861
O24   O     O_R   1.000000 0.468700 0.063130 -0.586131
O25   O     O_R   0.531300 0.000000 0.063130 -0.586132
O26   O     O_R   0.000000 0.531300 0.063130 -0.586132
O27   O     O_R   0.055320 0.999990 0.464380 -0.583549
O28   O     O_R   0.999990 0.944680 0.464380 -0.583549
O29   O     O_R   0.944680 0.000010 0.464380 -0.583549
O30   O     O_R   0.000010 0.055320 0.464380 -0.583549
O31   O     O_R   0.055320 0.000010 0.535620 -0.583549
O32   O     O_R   0.999990 0.055320 0.535620 -0.583550
O33   O     O_R   0.944680 0.999990 0.535620 -0.583549
O34   O     O_R   0.555430 0.968700 0.500010 -0.577860
O35   O     O_R   0.000010 0.944680 0.535620 -0.583549
O36   O     O_R   0.555320 0.499990 0.964380 -0.583549
O37   O     O_R   0.499990 0.444680 0.964380 -0.583549
O38   O     O_R   0.444680 0.500010 0.964380 -0.583549
O39   O     O_R   0.500010 0.555320 0.964380 -0.583549
O40   O     O_R   0.555320 0.500010 0.035620 -0.583549
O41   O     O_R   0.499990 0.555320 0.035620 -0.583550
O42   O     O_R   0.444680 0.499990 0.035620 -0.583549
O43   O     O_R   0.500010 0.444680 0.035620 -0.583549
O44   O     O_R   0.968700 0.555430 0.499990 -0.577860
O45   O     O_R   0.444570 0.968700 0.499990 -0.577860
O46   O     O_R   0.031300 0.444570 0.499990 -0.577861
O47   O     O_R   0.555430 0.031300 0.499990 -0.577861
O48   O     O_R   0.468700 0.944570 0.000010 -0.577860
Zn1   Zn    Zn3+2 0.958200 0.500000 0.500000 1.104401
Zn2   Zn    Zn3+2 1.000000 0.000000 0.547590 1.171724
Zn3   Zn    Zn3+2 0.500000 0.500000 0.952410 1.171725
Zn4   Zn    Zn3+2 0.500000 0.500000 0.047590 1.171724
Zn5   Zn    Zn3+2 0.500000 0.041800 0.500000 1.104401
Zn6   Zn    Zn3+2 0.041800 0.500000 0.500000 1.104401
Zn7   Zn    Zn3+2 0.500000 0.958200 0.500000 1.104401
Zn8   Zn    Zn3+2 0.458200 0.000000 0.000000 1.104401
Zn9   Zn    Zn3+2 0.000000 0.541800 0.000000 1.104401
Zn10  Zn    Zn3+2 0.541800 0.000000 0.000000 1.104401
Zn11  Zn    Zn3+2 0.000000 0.458200 0.000000 1.104401
Zn12  Zn    Zn3+2 0.000000 0.000000 0.452410 1.171725

loop_
_geom_bond_atom_site_label_1
_geom_bond_atom_site_label_2
_ccdc_geom_bond_type
C95   O34   A    
C4    C154  T    
C152  C160  T    
C106  O48   A    
C128  O5    A    
C106  C119  S    
C136  O40   A    
O7    Zn10  S    
C17   H1    S    
C70   C150  T    
O18   Zn8   S    
C105  Cl18  S    
C38   C55   A    
C34   Cl1   S    
C8    C158  S    
C148  C157  S    
C46   C76   T    
C51   Cl8   S    
C141  C149  S    
C28   C45   A    
C89   H19   S    
C94   C127  A    
C31   H6    S    
O38   Zn3   S    
C146  O21   A    
C84   O44   A    
O33   Zn2   S    
O40   Zn4   S    
C41   Cl30  S    
C29   C47   A    
C84   O23   A    
O48   Zn8   S    
C30   C48   A    
O13   Zn7   S    
C57   C67   S    
C122  C139  S    
C46   C66   S    
C83   H14   S    
O28   Zn12  S    
C110  C121  A    
C80   C124  A    
O24   Zn11  S    
C56   C140  S    
C91   C131  A    
C109  C122  A    
C39   C54   A    
C99   Cl11  S    
C9    C159  S    
C145  O20   A    
C1    O1    A    
C38   Cl27  S    
C37   Cl23  S    
C117  O6    A    
C148  O24   A    
C28   H3    S    
C97   Cl9   S    
C106  O7    A    
O45   Zn7   S    
O35   Zn2   S    
C94   C112  A    
C144  C153  S    
C3    C153  T    
C82   C126  A    
C73   O12   A    
C102  C115  A    
C19   C37   A    
C132  O31   A    
C17   C61   A    
C6    C15   S    
C146  C155  S    
O36   Zn3   S    
C70   C123  S    
C92   C110  A    
C80   H10   S    
C48   Cl5   S    
C138  O38   A    
C147  O22   A    
C44   C58   A    
C68   C69   S    
C79   H9    S    
C140  O39   A    
O15   Zn7   S    
C146  O19   A    
O21   Zn11  S    
C92   H22   S    
C139  O8    A    
C36   C53   A    
C135  O32   A    
C4    C12   S    
O14   Zn1   S    
C149  C158  T    
C108  C121  A    
C41   C52   A    
C104  C118  A    
C30   C67   A    
O29   Zn12  S    
C33   C69   A    
C77   C130  S    
C107  Cl19  S    
C26   C65   A    
C47   C60   A    
O9    Zn1   S    
C8    C16   T    
O10   Zn5   S    
C88   H18   S    
C93   H24   S    
C98   Cl10  S    
C87   H17   S    
C143  O14   A    
O32   Zn2   S    
C101  Cl14  S    
C142  O10   A    
C44   Cl2   S    
C83   C125  A    
C93   C129  A    
C86   C103  A    
C42   Cl31  S    
O34   Zn7   S    
C26   C43   A    
C29   C69   A    
C95   C118  S    
C68   C78   T    
C117  O2    A    
C22   H29   S    
O43   Zn4   S    
C36   Cl12  S    
O25   Zn10  S    
C113  C122  A    
O31   Zn2   S    
O12   Zn5   S    
C57   C77   T    
C71   C124  S    
C28   C67   A    
C121  C128  S    
C81   H11   S    
C10   C14   T    
C117  C120  S    
C86   H16   S    
C112  Cl25  S    
C53   C132  S    
C18   C62   A    
C1    O46   A    
C138  O42   A    
C33   H8    S    
C58   C136  S    
C102  Cl15  S    
C5    C155  T    
C54   C133  S    
C79   C123  A    
O6    Zn11  S    
C21   H28   S    
C94   H25   S    
C50   C56   A    
C49   C58   A    
C144  O15   A    
O47   Zn5   S    
C139  O4    A    
C25   C64   A    
C151  C159  T    
C142  C151  S    
C20   C64   A    
C92   C130  A    
C78   C131  S    
C136  O36   A    
O17   Zn5   S    
C42   C55   A    
C22   C62   A    
C20   C38   A    
C76   C129  S    
O41   Zn4   S    
C104  Cl17  S    
C13   C63   S    
C23   H30   S    
C133  O35   A    
C141  O11   A    
C86   C123  A    
C22   C40   A    
C144  O17   A    
C103  C114  A    
C47   Cl4   S    
C25   H31   S    
C31   C66   A    
C27   H2    S    
C75   C127  S    
O22   Zn8   S    
C147  C156  S    
C133  O28   A    
C32   C50   A    
C5    C14   S    
C137  O37   A    
C19   C63   A    
C93   C111  A    
C96   C131  A    
C7    C157  T    
C39   Cl28  S    
O4    Zn11  S    
C141  O9    A    
C143  C152  S    
C50   Cl7   S    
C43   Cl32  S    
C59   C137  S    
O39   Zn3   S    
C26   H32   S    
C89   C107  A    
O8    Zn9   S    
C20   H27   S    
O16   Zn6   S    
C96   C113  A    
C33   C51   A    
C1    C114  S    
C37   C54   A    
O42   Zn4   S    
C2    C71   T    
C55   C134  S    
O3    Zn10  S    
C10   C160  S    
C107  C120  A    
C99   C116  A    
C108  Cl20  S    
C103  Cl16  S    
C85   H15   S    
C48   C59   A    
C142  O13   A    
C109  Cl21  S    
C52   C135  S    
C147  O25   A    
C83   C101  A    
C81   C125  A    
O11   Zn6   S    
O1    Zn1   S    
C21   C39   A    
C79   C97   A    
C7    C16   S    
C35   C75   T    
C134  O29   A    
C148  O26   A    
C143  O16   A    
C25   C42   A    
C112  C119  A    
C11   C12   T    
C24   C74   T    
O44   Zn1   S    
C95   O47   A    
O37   Zn3   S    
C13   C72   T    
C88   C127  A    
C29   H4    S    
C81   C99   A    
O5    Zn8   S    
C34   C52   A    
C23   C41   A    
C72   C125  S    
O46   Zn6   S    
O23   Zn6   S    
C45   Cl3   S    
O2    Zn9   S    
C90   C108  A    
C49   Cl6   S    
C91   H21   S    
C27   C66   A    
C73   O45   A    
C73   C115  S    
O19   Zn9   S    
C111  Cl24  S    
C90   H20   S    
C88   C105  A    
C137  O43   A    
C91   C109  A    
C98   C115  A    
C74   C126  S    
C80   C98   A    
C134  O33   A    
C96   H26   S    
C113  Cl26  S    
C40   Cl29  S    
C82   C100  A    
O20   Zn10  S    
O26   Zn9   S    
C45   C59   A    
C145  O18   A    
C24   C64   S    
C19   H23   S    
O27   Zn12  S    
C82   H13   S    
C135  O30   A    
C9    C15   T    
C128  O3    A    
C21   C63   A    
C3    C11   S    
C87   C104  A    
C90   C130  A    
C111  C120  A    
C43   C56   A    
C23   C61   A    
C30   H5    S    
C100  C118  A    
C110  Cl22  S    
C84   C116  S    
C40   C53   A    
C17   C34   A    
C100  Cl13  S    
C2    C62   S    
C101  C116  A    
C35   C65   S    
C140  O41   A    
C105  C119  A    
C18   H12   S    
C51   C60   A    
C31   C49   A    
C85   C124  A    
C145  C154  S    
C97   C114  A    
C27   C44   A    
C89   C129  A    
C18   C36   A    
C87   C126  A    
C6    C156  T    
C85   C102  A    
C61   C150  S    
C132  O27   A    
C60   C138  S    
C32   C65   A    
C32   H7    S    
O30   Zn12  S    
