data_mof_unit_27952.cif
_audit_creation_date              2012-12-11T14:21:10-0500
_audit_creation_method            fapswitch 2.2
_symmetry_space_group_name_H-M    P1
_symmetry_Int_Tables_number       1
_space_group_crystal_system       triclinic
_cell_length_a                    11.54122
_cell_length_b                    11.483622
_cell_length_c                    19.502434
_cell_angle_alpha                 90.627319
_cell_angle_beta                  90.146
_cell_angle_gamma                 59.959364
_cell_volume                      2237.39959095

loop_
_atom_site_label
_atom_site_type_symbol
_atom_type_description
_atom_site_fract_x
_atom_site_fract_y
_atom_site_fract_z
_atom_type_partial_charge
C1    C     C_R   0.640629 0.117980 0.599079 0.543410
C2    C     C_1   0.652852 0.150562 0.668501 0.002419
C3    C     C_R   0.659841 0.677010 0.191949 -0.009812
C4    C     C_R   0.613760 0.743372 0.597893 0.539221
C5    C     C_R   0.534964 0.721075 0.223440 0.027309
C6    C     C_R   0.534461 0.693415 0.292924 0.035627
C7    C     C_R   0.764021 0.648890 0.302892 -0.147261
C8    C     C_R   0.774009 0.639822 0.232304 -0.140006
C9    C     C_R   0.414561 0.773958 0.185598 -0.075823
C10   C     C_R   0.302639 0.775688 0.213183 -0.126953
C11   C     C_R   0.307662 0.730151 0.279332 -0.153975
C12   C     C_1   0.651542 0.683222 0.664020 0.002785
C13   C     C_R   0.423150 0.686230 0.318436 -0.095177
C14   C     C_R   0.644176 0.677577 0.334082 -0.002757
C15   C     C_R   0.172253 0.180564 0.184366 -0.008276
C16   C     C_R   0.298336 0.120100 0.605437 0.562171
C17   C     C_R   0.246184 0.239589 0.208331 0.026399
C18   C     C_R   0.278318 0.231029 0.278796 0.025995
C19   C     C_R   0.203563 0.067254 0.292456 -0.139564
C20   C     C_R   0.153753 0.093105 0.226327 -0.153205
C21   C     C_R   0.279454 0.316069 0.164501 -0.090204
C22   C     C_R   0.310646 0.408945 0.191487 -0.118207
C23   C     C_1   0.146892 0.188040 0.863260 0.000872
C24   C     C_R   0.321796 0.416846 0.261727 -0.145016
C25   C     C_R   0.317103 0.322828 0.304172 -0.100391
C26   C     C_R   0.263016 0.137037 0.320589 0.000367
C27   C     C_R   0.673254 0.185849 0.194517 0.002082
C28   C     C_R   0.648728 0.112139 0.403085 0.538062
C29   C     C_R   0.740192 0.052821 0.219121 0.026881
C30   C     C_R   0.766198 0.033152 0.289610 0.039293
C31   C     C_R   0.615453 0.272053 0.310925 -0.163925
C32   C     C_R   0.617545 0.294446 0.241158 -0.138916
C33   C     C_R   0.796609 0.939914 0.174270 -0.081181
C34   C     C_1   0.227749 0.144871 0.735687 -0.030534
C35   C     C_R   0.901011 0.817098 0.195974 -0.122530
C36   C     C_R   0.943340 0.802285 0.263615 -0.148206
C37   C     C_R   0.876288 0.908151 0.310361 -0.084934
C38   C     C_R   0.683501 0.141208 0.335502 0.001077
C39   C     C_R   0.084638 0.229421 0.929344 0.535609
C40   C     C_R   0.617007 0.735107 0.403086 0.537005
C41   C     C_R   0.708903 0.546275 0.922609 0.558984
C42   C     C_R   0.708037 0.206150 0.930299 0.536315
C43   C     C_R   0.088796 0.232469 0.123224 0.537098
C44   C     C_R   0.681232 0.616219 0.124266 0.541188
C45   C     C_1   0.188082 0.163946 0.805154 -0.028897
C46   C     C_R   0.706684 0.210283 0.126242 0.534046
C47   C     C_R   0.301873 0.116018 0.393516 0.558264
C48   C     C_1   0.698634 0.581037 0.851733 0.001500
C49   C     C_1   0.672930 0.644552 0.722244 -0.028666
C50   C     C_1   0.689035 0.608658 0.791872 -0.031503
C51   C     C_1   0.259018 0.132909 0.676034 0.000419
C52   C     C_1   0.678277 0.190662 0.860931 0.001778
C53   C     C_1   0.658216 0.167854 0.729009 -0.032191
C54   C     C_1   0.665265 0.180807 0.800392 -0.032293
Cr1   Cr    Cr6+3 0.404720 0.198220 0.499960 1.006804
Cr2   Cr    Cr6+3 0.698290 0.897110 0.500380 1.018302
Cr3   Cr    Cr6+3 0.396970 0.904720 0.499610 1.022596
Cr4   Cr    Cr6+3 0.926180 0.151990 0.028120 1.017076
Cr5   Cr    Cr6+3 0.921330 0.451820 0.027470 1.014251
Cr6   Cr    Cr6+3 0.626260 0.446870 0.028710 1.013069
H1    H     H_    0.849821 0.632118 0.333130 0.135634
H2    H     H_    0.918597 0.892343 0.361117 0.143488
H3    H     H_    0.409168 0.807726 0.133428 0.126605
H4    H     H_    0.872516 0.597830 0.209616 0.149209
H5    H     H_    0.212984 0.809820 0.182793 0.115496
H6    H     H_    0.222029 0.728673 0.300587 0.102806
H7    H     H_    0.424918 0.644150 0.368032 0.133004
H8    H     H_    0.185814 0.999969 0.323352 0.150629
H9    H     H_    0.276057 0.308775 0.109257 0.131905
H10   H     H_    0.094156 0.049578 0.209289 0.145203
H11   H     H_    0.327094 0.473997 0.158058 0.123079
H12   H     H_    0.346847 0.487913 0.283303 0.109974
H13   H     H_    0.342511 0.329181 0.356232 0.169648
H14   H     H_    0.560385 0.356472 0.345660 0.110466
H15   H     H_    0.766622 0.948742 0.121039 0.125796
H16   H     H_    0.574398 0.397098 0.223604 0.148510
H17   H     H_    0.950881 0.734210 0.159878 0.114820
H18   H     H_    0.026784 0.707636 0.280187 0.106622
O1    O     O_R   0.267740 0.231960 0.575440 -0.492159
O2    O     O_R   0.596130 0.579390 0.952730 -0.504395
O3    O     O_R   0.639060 0.321160 0.958670 -0.510928
O4    O     O_R   0.527280 0.186640 0.570530 -0.510368
O5    O     O_R   0.821240 0.124200 0.104370 -0.518784
O6    O     O_R   0.036890 0.167040 0.097840 -0.501500
O7    O     O_R   0.056180 0.349610 0.102880 -0.524315
O8    O     O_R   0.797660 0.564870 0.097950 -0.501049
O9    O     O_R   0.595880 0.584250 0.104270 -0.517293
O10   O     O_R   0.638830 0.325670 0.099150 -0.502357
O11   O     O_3   0.824590 0.350230 0.028100 -0.262391
O12   O     O_R   0.685970 0.784660 0.430010 -0.494560
O13   O     O_R   0.728090 0.003450 0.576380 -0.499859
O14   O     O_R   0.682970 0.789190 0.570490 -0.492134
O15   O     O_R   0.499290 0.771880 0.575530 -0.513409
O16   O     O_R   0.285330 0.030870 0.569730 -0.479554
O17   O     O_R   0.270980 0.227080 0.423890 -0.524958
O18   O     O_R   0.530280 0.182120 0.430050 -0.529928
O19   O     O_R   0.731330 0.998570 0.424830 -0.525137
O20   O     O_R   0.502530 0.767000 0.423990 -0.535292
O21   O     O_R   0.288330 0.026350 0.429250 -0.487985
O22   O     O_3   0.499990 0.000020 0.499980 -0.284496
O23   O     O_R   0.821500 0.119340 0.952830 -0.505489
O24   O     O_R   0.037130 0.162530 0.957360 -0.495500
O25   O     O_R   0.056440 0.344740 0.951340 -0.515907
O26   O     O_R   0.797900 0.560360 0.957470 -0.491015

loop_
_geom_bond_atom_site_label_1
_geom_bond_atom_site_label_2
_ccdc_geom_bond_type
C28   O19   A    
C23   C45   T    
C27   C29   A    
C19   C20   A    
C18   C26   A    
C16   C51   S    
C41   O2    A    
C12   C49   T    
Cr6   O10   S    
C7    C8    A    
C53   C54   S    
C42   O3    A    
C34   C51   T    
Cr5   O26   S    
C36   C37   A    
C40   O20   A    
C5    C6    A    
Cr3   O21   S    
C29   C33   A    
C47   O21   A    
C30   C38   A    
C1    C2    S    
Cr5   O11   S    
C19   C26   A    
C7    H1    S    
C33   H15   S    
Cr2   O13   S    
C35   C36   A    
Cr1   O22   S    
Cr4   O24   S    
C4    C12   S    
C44   O9    A    
C9    C10   A    
C11   H6    S    
Cr2   O12   S    
C1    O13   A    
Cr3   O15   S    
C21   C22   A    
C43   O6    A    
C20   H10   S    
C18   C25   A    
Cr2   O19   S    
C44   O8    A    
Cr6   O9    S    
C52   C54   T    
C37   H2    S    
C46   O10   A    
C7    C14   A    
C15   C20   A    
C3    C44   S    
C43   O7    A    
C24   C25   A    
Cr1   O17   S    
C3    C8    A    
Cr4   O23   S    
C31   H14   S    
C1    O4    A    
Cr6   O11   S    
Cr3   O22   S    
C35   H17   S    
C17   C21   A    
C4    O15   A    
C30   C37   A    
C21   H9    S    
Cr5   O7    S    
C5    C9    A    
C29   C30   A    
Cr4   O6    S    
C6    C14   A    
Cr1   O1    S    
Cr6   O3    S    
C31   C32   A    
C28   C38   S    
C17   C18   A    
C19   H8    S    
C34   C45   S    
Cr1   O4    S    
C26   C47   S    
C8    H4    S    
C27   C46   S    
Cr3   O16   S    
C22   C24   A    
Cr2   O22   S    
C42   O23   A    
C22   H11   S    
C24   H12   S    
C39   O24   A    
C13   H7    S    
C10   H5    S    
C15   C17   A    
Cr6   O2    S    
C27   C32   A    
C9    H3    S    
Cr1   O18   S    
C3    C5    A    
C2    C53   T    
C32   H16   S    
C31   C38   A    
C39   O25   A    
C16   O16   A    
C41   O26   A    
C28   O18   A    
C16   O1    A    
Cr5   O25   S    
Cr5   O8    S    
C15   C43   S    
C36   H18   S    
Cr4   O5    S    
C6    C13   A    
C11   C13   A    
C23   C39   S    
Cr3   O20   S    
C48   C50   T    
C33   C35   A    
C41   C48   S    
C25   H13   S    
Cr4   O11   S    
C10   C11   A    
C14   C40   S    
C46   O5    A    
Cr2   O14   S    
C49   C50   S    
C47   O17   A    
C40   O12   A    
C42   C52   S    
C4    O14   A    
