data_mof_unit_63020.cif
_audit_creation_date              2012-12-10T16:55:52-0500
_audit_creation_method            fapswitch 2.2
_symmetry_space_group_name_H-M    P1
_symmetry_Int_Tables_number       1
_space_group_crystal_system       triclinic
_cell_length_a                    14.348094
_cell_length_b                    10.955065
_cell_length_c                    9.708201
_cell_angle_alpha                 90.455803
_cell_angle_beta                  89.682037
_cell_angle_gamma                 90.091621
_cell_volume                      1525.90317352

loop_
_atom_site_label
_atom_site_type_symbol
_atom_type_description
_atom_site_fract_x
_atom_site_fract_y
_atom_site_fract_z
_atom_type_partial_charge
C1    C     C_R   0.499527 0.265199 0.499096 0.860792
C2    C     C_1   0.771234 0.500007 0.499067 -0.195688
C3    C     C_2   0.492126 0.930790 0.387290 -0.214083
C4    C     C_2   0.491601 0.866290 0.503813 -0.350529
C5    C     C_2   0.483291 0.064400 0.385233 0.191660
C6    C     C_2   0.503312 0.132779 0.497650 -0.310494
C7    C     C_2   0.459268 0.416334 0.921739 -0.056155
C8    C     C_2   0.447532 0.429240 0.075573 0.058245
C9    C     C_R   0.331104 0.499948 0.500338 0.807719
C10   C     C_R   0.498415 0.734578 0.500660 0.863956
C11   C     C_R   0.668894 0.500036 0.499640 0.809800
C12   C     C_1   0.228764 0.499917 0.500839 -0.194547
C13   C     C_1   0.143355 0.499909 0.500682 -0.009079
C14   C     C_1   0.042703 0.499920 0.500155 0.003811
C15   C     C_1   0.957296 0.499943 0.499643 0.004343
C16   C     C_1   0.856644 0.499977 0.499158 -0.007718
Cu1   Cu    Cu3+1 0.500020 0.500020 0.638630 0.940129
Cu2   Cu    Cu3+1 0.499980 0.499980 0.361370 0.942472
H1    H     H_    0.496217 0.884340 0.288105 0.172118
H2    H     H_    0.482286 0.908592 0.604127 0.148714
H3    H     H_    0.526578 0.092014 0.592631 0.115845
H4    H     H_    0.429645 0.336479 0.871791 0.140410
H5    H     H_    0.511274 0.582512 0.891549 0.237674
H6    H     H_    0.392999 0.375721 0.124063 0.117980
N1    N     N_2   0.499070 0.498660 0.846910 -0.262871
N2    N     N_2   0.499040 0.498630 0.153040 -0.119818
O1    O     O_R   0.500010 0.321960 0.617040 -0.588542
O2    O     O_R   0.499990 0.321920 0.382900 -0.534714
O3    O     O_R   0.376070 0.500020 0.617100 -0.557762
O4    O     O_R   0.376040 0.499980 0.382950 -0.561626
O5    O     O_R   0.500010 0.678080 0.617100 -0.583364
O6    O     O_R   0.499990 0.678040 0.382960 -0.573900
O7    O     O_R   0.623960 0.500020 0.617050 -0.544101
O8    O     O_R   0.623930 0.499980 0.382900 -0.576033
N3    N     N_3   0.454079 0.119903 0.259098 -0.565652
H7    H     H_    0.389335 0.082988 0.232497 0.208330
H8    H     H_    0.501774 0.095672 0.181837 0.210319
N4    N     N_3   0.584322 0.533957 0.097239 -0.513744
H9    H     H_    0.603184 0.615861 0.145389 0.240827
H10   H     H_    0.633532 0.468269 0.124391 0.245279

loop_
_geom_bond_atom_site_label_1
_geom_bond_atom_site_label_2
_ccdc_geom_bond_type
C1    O2    A    
C3    H1    S    
Cu2   O4    S    
C7    H4    S    
C2    C16   T    
Cu1   O1    S    
N3    H7    S    
C7    N1    D    
C9    O3    A    
Cu1   N1    S    
Cu1   Cu2   S    
C7    C8    S    
C13   C14   S    
N4    H10   S    
Cu2   O8    S    
C5    C6    D    
Cu1   O7    S    
C9    O4    A    
C2    C11   S    
C5    N3    S    
C8    H6    S    
H5    N1    S    
N4    H9    S    
Cu1   O5    S    
C9    C12   S    
Cu2   O6    S    
C15   C16   S    
C8    N2    D    
C4    C10   S    
C3    C4    D    
C4    H2    S    
C10   O6    A    
Cu1   O3    S    
C11   O7    A    
Cu2   O2    S    
C12   C13   T    
C1    O1    A    
C14   C15   T    
N2    N4    S    
N3    H8    S    
C6    H3    S    
C10   O5    A    
C11   O8    A    
C1    C6    S    
C3    C5    S    
Cu2   N2    S    
