data_mof_unit_19985.cif
_audit_creation_date              2012-10-26T19:42:09-0400
_audit_creation_method            fapswitch 2.2
_symmetry_space_group_name_H-M    P1
_symmetry_Int_Tables_number       1
_space_group_crystal_system       triclinic
_cell_length_a                    9.608781
_cell_length_b                    10.799103
_cell_length_c                    17.337179
_cell_angle_alpha                 92.096332
_cell_angle_beta                  85.919855
_cell_angle_gamma                 90.020736
_cell_volume                      1793.24836391

loop_
_atom_site_label
_atom_site_type_symbol
_atom_type_description
_atom_site_fract_x
_atom_site_fract_y
_atom_site_fract_z
_atom_type_partial_charge
C1    C     C_R   0.499804 0.737163 0.501567 0.537348
C2    C     C_R   0.527007 0.501595 0.265697 0.024793
C3    C     C_R   0.357501 0.873487 0.631348 -0.118740
C4    C     C_R   0.481750 0.499333 0.649751 0.592996
C5    C     C_R   0.287632 0.938786 0.692952 -0.180497
C6    C     C_R   0.286395 0.067319 0.694773 -0.054213
C7    C     C_R   0.354856 0.131863 0.635072 0.390216
C8    C     C_R   0.425225 0.067736 0.570653 -0.022568
C9    C     C_R   0.426004 0.936326 0.569313 -0.037636
C10   C     C_R   0.498982 0.870894 0.507011 -0.046026
C11   C     C_R   0.572792 0.933056 0.448323 -0.098154
C12   C     C_R   0.344502 0.506206 0.776975 -0.126437
C13   C     C_R   0.571740 0.060798 0.448621 0.322615
C14   C     C_R   0.498100 0.128915 0.508512 0.016315
C15   C     C_R   0.869524 0.337469 0.396694 -0.059710
C16   C     C_R   0.499354 0.262839 0.503407 0.652215
C17   C     C_R   0.947968 0.258167 0.345994 -0.137725
C18   C     C_R   0.091281 0.257565 0.346250 -0.176878
C19   C     C_R   0.156982 0.336462 0.397075 -0.085654
C20   C     C_R   0.081273 0.419762 0.449373 0.159005
C21   C     C_R   0.931826 0.420026 0.449288 0.143067
C22   C     C_R   0.919992 0.576117 0.548276 0.007523
C23   C     C_R   0.410078 0.507788 0.146942 -0.107350
C24   C     C_R   0.067832 0.576129 0.548234 0.013439
C25   C     C_R   0.518235 0.500211 0.350204 0.541982
C26   C     C_R   0.472117 0.487823 0.733673 -0.024689
C27   C     C_R   0.590075 0.451802 0.770374 -0.078459
C28   C     C_R   0.581855 0.436084 0.849543 0.378963
C29   C     C_R   0.455463 0.458723 0.893737 0.022718
C30   C     C_R   0.335365 0.491583 0.856809 -0.052279
C31   C     C_1   0.202907 0.514199 0.899847 0.196350
C32   C     C_R   0.403888 0.506364 0.226981 -0.122513
C33   C     C_R   0.656812 0.499448 0.223044 -0.119601
C34   C     C_R   0.662890 0.500861 0.142562 -0.097104
C35   C     C_R   0.539599 0.502935 0.104155 0.030915
C36   C     C_2   0.449539 0.450670 0.978210 -0.085871
C37   C     C_2   0.548307 0.502832 0.019464 -0.083268
Cu1   Cu    Cu3+1 0.359340 0.500010 0.500010 0.984193
Cu2   Cu    Cu3+1 0.640660 0.499990 0.499990 0.962628
F1    F     F_    0.353670 0.256587 0.642939 -0.635509
F2    F     F_    0.639045 0.118234 0.388444 -0.669978
F3    F     F_    0.696800 0.395905 0.882574 -0.627281
H1    H     H_    0.688665 0.433529 0.737659 0.164170
H2    H     H_    0.302320 0.509696 0.258404 0.134658
H3    H     H_    0.152341 0.195282 0.306841 0.136914
H4    H     H_    0.267150 0.327697 0.392616 0.186079
H5    H     H_    0.117937 0.638617 0.587797 0.109580
H6    H     H_    0.753264 0.496409 0.251681 0.129986
H7    H     H_    0.638526 0.546394 0.990446 0.183710
H8    H     H_    0.313359 0.514631 0.118970 0.116872
H9    H     H_    0.252392 0.532746 0.748789 0.147527
H10   H     H_    0.358984 0.407049 0.006666 0.125744
H11   H     H_    0.763619 0.498595 0.110191 0.135535
H12   H     H_    0.628783 0.881948 0.400836 0.153114
H13   H     H_    0.358818 0.773605 0.633700 0.133422
H14   H     H_    0.235666 0.889413 0.739983 0.127553
H15   H     H_    0.233404 0.117654 0.743454 0.152005
H16   H     H_    0.859867 0.638583 0.587878 0.121036
H17   H     H_    0.760598 0.329779 0.392106 0.229995
H18   H     H_    0.896847 0.196398 0.306350 0.176854
N1    N     N_R   0.852190 0.498790 0.499250 -0.252563
N2    N     N_R   0.148060 0.498710 0.499220 -0.240990
N3    N     N_1   0.096811 0.532286 0.934312 -0.268440
O1    O     O_R   0.381190 0.680360 0.500010 -0.508469
O2    O     O_R   0.618760 0.680340 0.500000 -0.505034
O3    O     O_R   0.367440 0.500030 0.613600 -0.460437
O4    O     O_R   0.605010 0.500010 0.613590 -0.519250
O5    O     O_R   0.381240 0.319660 0.500000 -0.478167
O6    O     O_R   0.618810 0.319640 0.499990 -0.491744
O7    O     O_R   0.394990 0.499990 0.386410 -0.535401
O8    O     O_R   0.632560 0.499970 0.386400 -0.533398

loop_
_geom_bond_atom_site_label_1
_geom_bond_atom_site_label_2
_ccdc_geom_bond_type
C22   H16   S    
C4    O4    A    
C4    C26   S    
C7    F1    S    
Cu1   O7    S    
C6    C7    A    
C25   O8    A    
C27   H1    S    
C37   H7    S    
C9    C10   A    
C5    H14   S    
C1    O2    A    
C19   C20   A    
C6    H15   S    
C15   C21   A    
C30   C31   S    
C3    C5    A    
C23   C32   A    
C22   C24   A    
C13   F2    S    
C33   C34   A    
C32   H2    S    
C19   H4    S    
C7    C8    A    
C13   C14   A    
C22   N1    A    
C4    O3    A    
Cu2   O2    S    
C29   C36   S    
C28   C29   A    
C26   C27   A    
C29   C30   A    
C11   H12   S    
C15   H17   S    
C3    C9    A    
C5    C6    A    
C2    C33   A    
C28   F3    S    
C36   C37   D    
C35   C37   S    
Cu1   O5    S    
C17   C18   A    
C2    C25   S    
Cu1   O1    S    
C20   N2    A    
C16   O5    A    
Cu2   N1    S    
C23   C35   A    
C14   C16   S    
Cu2   O6    S    
C10   C11   A    
C1    C10   S    
C17   H18   S    
C18   H3    S    
C31   N3    T    
C11   C13   A    
C12   H9    S    
Cu1   Cu2   S    
C20   C21   A    
C34   H11   S    
C2    C32   A    
C34   C35   A    
C27   C28   A    
C15   C17   A    
C33   H6    S    
Cu2   O8    S    
C18   C19   A    
C23   H8    S    
C24   N2    A    
C25   O7    A    
C8    C14   A    
C12   C30   A    
C3    H13   S    
C24   H5    S    
Cu2   O4    S    
C1    O1    A    
C21   N1    A    
C16   O6    A    
Cu1   O3    S    
C12   C26   A    
C8    C9    A    
Cu1   N2    S    
C36   H10   S    
