data_mof_unit_17720.cif
_audit_creation_date              2012-12-10T17:55:27-0500
_audit_creation_method            fapswitch 2.2
_symmetry_space_group_name_H-M    P1
_symmetry_Int_Tables_number       1
_space_group_crystal_system       triclinic
_cell_length_a                    10.801029
_cell_length_b                    9.521874
_cell_length_c                    10.939595
_cell_angle_alpha                 90.078719
_cell_angle_beta                  90.165142
_cell_angle_gamma                 90.191682
_cell_volume                      1125.08194809

loop_
_atom_site_label
_atom_site_type_symbol
_atom_type_description
_atom_site_fract_x
_atom_site_fract_y
_atom_site_fract_z
_atom_type_partial_charge
C1    C     C_R   0.262157 0.499539 0.501959 0.856585
C2    C     C_R   0.737688 0.500213 0.502251 0.838687
C3    C     C_R   0.501018 0.499959 0.265291 0.839651
C4    C     C_R   0.498348 0.500126 0.734706 0.853456
C5    C     C_2   0.494823 0.384736 0.932906 -0.151960
C6    C     C_2   0.490967 0.385063 0.066876 -0.161113
C7    C     C_2   0.492644 0.502897 0.866568 -0.313825
C8    C     C_2   0.506051 0.502169 0.133414 -0.317945
C9    C     C_R   0.064049 0.393095 0.569898 0.339928
C10   C     C_R   0.934746 0.399333 0.576058 0.333124
C11   C     C_R   0.871344 0.500736 0.506853 -0.172750
C12   C     C_R   0.128214 0.498352 0.505171 -0.167102
C13   C     C_R   0.936109 0.604039 0.442591 -0.252718
C14   C     C_R   0.064079 0.603894 0.443049 -0.263427
C15   C     C_R   0.423446 0.074011 0.423571 -0.033360
C16   C     C_R   0.577093 0.074785 0.575797 -0.027140
C17   C     C_R   0.423187 0.925204 0.423814 -0.025619
C18   C     C_R   0.577038 0.926015 0.575922 -0.023440
Cu1   Cu    Cu3+1 0.500000 0.640660 0.500000 0.934458
Cu2   Cu    Cu3+1 0.500000 0.359340 0.500000 0.963108
H1    H     H_    0.887594 0.683875 0.390897 0.174490
H2    H     H_    0.113121 0.684496 0.392570 0.165987
N1    N     N_R   0.500000 0.852070 0.500000 -0.157209
N2    N     N_R   0.500000 0.147940 0.500000 -0.162716
O1    O     O_R   0.319640 0.618740 0.499990 -0.595259
O2    O     O_R   0.680360 0.618740 0.500010 -0.597501
O3    O     O_R   0.319620 0.381170 0.499990 -0.563108
O4    O     O_R   0.680380 0.381170 0.500010 -0.546087
O5    O     O_R   0.500000 0.618750 0.321940 -0.589851
O6    O     O_R   0.500000 0.618750 0.678060 -0.593147
O7    O     O_R   0.499970 0.381180 0.321940 -0.586833
O8    O     O_R   0.500030 0.381180 0.678060 -0.576142
H3    H     H_    0.497926 0.282924 0.888121 0.161787
H4    H     H_    0.476571 0.284500 0.111544 0.163095
H5    H     H_    0.483944 0.605864 0.907324 0.142844
H6    H     H_    0.524167 0.603605 0.092856 0.143670
O9    O     O_3   0.128108 0.296291 0.639969 -0.567922
C19   C     C_3   0.120561 0.163018 0.583361 0.118732
H7    H     H_    0.158513 0.166647 0.488840 0.123568
H8    H     H_    0.023427 0.124033 0.579465 0.171715
C20   C     C_3   0.196075 0.058495 0.657322 -0.768923
H9    H     H_    0.156226 0.047473 0.750307 0.239725
H10   H     H_    0.194807 0.954342 0.611456 0.198337
H11   H     H_    0.293406 0.095321 0.665495 0.261030
O10   O     O_3   0.871110 0.306723 0.650565 -0.585365
C21   C     C_3   0.858768 0.368617 0.767343 0.104062
H12   H     H_    0.794101 0.459343 0.763305 0.119825
H13   H     H_    0.949854 0.404760 0.804248 0.158804
C22   C     C_3   0.806570 0.260779 0.855834 -0.794034
H14   H     H_    0.869875 0.169377 0.862298 0.246375
H15   H     H_    0.796503 0.308671 0.947884 0.206684
H16   H     H_    0.714371 0.224215 0.824073 0.233094
H17   H     H_    0.362035 0.129749 0.362429 0.111350
H18   H     H_    0.639146 0.131111 0.636072 0.152440
H19   H     H_    0.361438 0.868847 0.362961 0.115360
H20   H     H_    0.638855 0.870324 0.636717 0.122526

loop_
_geom_bond_atom_site_label_1
_geom_bond_atom_site_label_2
_ccdc_geom_bond_type
Cu1   N1    S    
C1    O1    A    
C8    H6    S    
O9    C19   S    
Cu2   O3    S    
C11   C13   A    
C20   H9    S    
C17   H19   S    
Cu1   Cu2   S    
C18   H20   S    
C3    O7    A    
C22   H16   S    
C1    O3    A    
C14   H2    S    
C10   O10   S    
C9    O9    S    
C13   H1    S    
C2    O2    A    
C4    O8    A    
C13   C14   A    
C19   H8    S    
C20   H10   S    
C21   C22   S    
C3    O5    A    
C17   N1    A    
C1    C12   S    
C4    C7    S    
C2    C11   S    
C15   H17   S    
C16   C18   A    
C15   N2    A    
C9    C12   A    
C12   C14   A    
C3    C8    S    
C16   H18   S    
Cu2   O8    S    
C5    C6    S    
Cu1   O1    S    
C20   H11   S    
C16   N2    A    
C2    O4    A    
C10   C11   A    
C18   N1    A    
Cu1   O5    S    
C21   H13   S    
Cu2   N2    S    
C19   H7    S    
C19   C20   S    
C5    C7    D    
C22   H14   S    
C9    C10   A    
C15   C17   A    
Cu1   O2    S    
C21   H12   S    
C6    C8    D    
Cu2   O4    S    
O10   C21   S    
Cu1   O6    S    
C7    H5    S    
C4    O6    A    
C6    H4    S    
C22   H15   S    
Cu2   O7    S    
C5    H3    S    
