data_mof_unit_66945.cif
_audit_creation_date              2013-03-05T15:57:30-0500
_audit_creation_method            fapswitch 2.2
_symmetry_space_group_name_H-M    P1
_symmetry_Int_Tables_number       1
_space_group_crystal_system       triclinic
_cell_length_a                    17.128682
_cell_length_b                    18.303015
_cell_length_c                    8.380643
_cell_angle_alpha                 90.000468
_cell_angle_beta                  101.720864
_cell_angle_gamma                 89.973851
_cell_volume                      2572.60208552

loop_
_atom_site_label
_atom_site_type_symbol
_atom_site_description
_atom_site_fract_x
_atom_site_fract_y
_atom_site_fract_z
_atom_type_partial_charge
P1    P     P_3+3 0.834140 0.419320 0.003900 0.458902
P2    P     P_3+3 0.834140 0.580680 0.503900 0.455674
P3    P     P_3+3 0.334140 0.919320 0.003900 0.456598
P4    P     P_3+3 0.334140 0.080680 0.503900 0.452898
O1    O     O_2   0.841960 0.394640 0.833410 -0.369093
O2    O     O_2   0.841960 0.605360 0.333410 -0.373097
O3    O     O_2   0.341960 0.894640 0.833410 -0.374542
O4    O     O_2   0.341960 0.105360 0.333410 -0.370789
O5    O     O_3   0.907950 0.463080 0.102990 -0.403508
O6    O     O_3   0.907950 0.536920 0.602990 -0.400804
O7    O     O_3   0.407950 0.963080 0.102990 -0.397278
O8    O     O_3   0.407950 0.036920 0.602990 -0.400346
O9    O     O_3   0.972780 0.329600 0.629720 -0.396213
O10   O     O_3   0.972780 0.670400 0.129720 -0.393263
O11   O     O_3   0.472780 0.829600 0.629720 -0.391754
O12   O     O_3   0.472780 0.170400 0.129720 -0.391207
O13   O     O_2   0.837717 0.274550 0.685177 -0.353865
O14   O     O_2   0.838565 0.726297 0.188046 -0.367659
O15   O     O_2   0.337999 0.774483 0.687083 -0.367647
O16   O     O_2   0.339632 0.227677 0.189686 -0.371179
O17   O     O_3   0.751144 0.477237 0.968982 -0.581432
O18   O     O_3   0.751039 0.522947 0.469373 -0.578529
O19   O     O_3   0.251139 0.977231 0.970027 -0.580584
O20   O     O_3   0.250945 0.023063 0.468394 -0.582732
O21   O     O_3   0.941770 0.177279 0.643363 -0.476654
O22   O     O_3   0.943455 0.822204 0.142511 -0.485666
O23   O     O_3   0.442599 0.678029 0.643869 -0.485547
O24   O     O_3   0.445010 0.322342 0.139896 -0.485007
H1    H     H_    0.059668 0.201172 0.737881 0.145281
H2    H     H_    0.064596 0.803789 0.202784 0.117179
H3    H     H_    0.563799 0.696843 0.697674 0.114990
H4    H     H_    0.565745 0.301711 0.200220 0.117534
C1    C     C_3   0.047203 0.096774 0.616462 -1.038624
C2    C     C_3   0.037665 0.906399 0.076424 -1.032330
C3    C     C_3   0.535939 0.592119 0.581864 -1.008091
C4    C     C_3   0.541151 0.404528 0.073844 -1.007968
H5    H     H_    0.532737 0.562500 0.695815 0.266512
H6    H     H_    0.602785 0.408720 0.051742 0.243113
H7    H     H_    0.110922 0.094033 0.607527 0.239115
H8    H     H_    0.098960 0.911793 0.053038 0.245033
H9    H     H_    0.037864 0.065963 0.725003 0.277645
H10   H     H_    0.032408 0.938750 0.185774 0.268436
H11   H     H_    0.491017 0.567881 0.481666 0.278026
H12   H     H_    0.536056 0.437140 0.182777 0.269574
P5    P     P_3+3 0.165830 0.418670 0.685610 0.515109
P6    P     P_3+3 0.165830 0.581330 0.185610 0.520560
P7    P     P_3+3 0.665830 0.918670 0.685610 0.517840
P8    P     P_3+3 0.665830 0.081330 0.185610 0.525702
P9    P     P_3+3 0.098937 0.261126 0.110373 0.458347
P10   P     P_3+3 0.100584 0.737709 0.610963 0.445313
P11   P     P_3+3 0.600598 0.762290 0.111181 0.447629
P12   P     P_3+3 0.600336 0.237919 0.610364 0.445388
O25   O     O_2   0.157990 0.394030 0.856030 -0.310167
O26   O     O_2   0.157990 0.605970 0.356030 -0.309392
O27   O     O_2   0.657990 0.894030 0.856030 -0.297822
O28   O     O_2   0.657990 0.105970 0.356030 -0.319085
O29   O     O_3   0.027110 0.329490 0.059550 -0.346402
O30   O     O_3   0.027110 0.670510 0.559550 -0.382868
O31   O     O_3   0.527110 0.829490 0.059550 -0.380396
O32   O     O_3   0.527110 0.170510 0.559550 -0.385753
O33   O     O_2   0.156396 0.268169 0.990711 -0.383864
O34   O     O_2   0.161643 0.726510 0.500438 -0.365052
O35   O     O_2   0.661470 0.773167 0.000128 -0.367134
O36   O     O_2   0.661113 0.227089 0.499019 -0.363373
O37   O     O_3   0.247956 0.477636 0.720863 -0.525718
O38   O     O_3   0.248114 0.522451 0.218709 -0.523563
O39   O     O_3   0.748553 0.976597 0.722943 -0.522577
O40   O     O_3   0.747806 0.022142 0.216973 -0.514077
O41   O     O_3   0.048280 0.179042 0.055844 -0.502953
O42   O     O_3   0.058172 0.822593 0.549548 -0.528161
O43   O     O_3   0.557951 0.677480 0.050337 -0.527256
O44   O     O_3   0.557166 0.322649 0.550093 -0.527957
C5    C     C_3   0.016438 0.155624 0.189168 0.354470
C6    C     C_3   0.982430 0.826705 0.589263 0.448680
C7    C     C_3   0.482081 0.673674 0.089594 0.451590
C8    C     C_3   0.480675 0.325082 0.586614 0.450762
H13   H     H_    0.989190 0.201514 0.245902 0.063831
H14   H     H_    0.937873 0.799049 0.493270 0.131551
H15   H     H_    0.437244 0.698456 0.989641 0.132966
H16   H     H_    0.437651 0.295903 0.490497 0.134311
H17   H     H_    0.064174 0.129143 0.280334 0.071802
H18   H     H_    0.980905 0.801583 0.709348 0.024031
H19   H     H_    0.479132 0.701804 0.205749 0.024292
H20   H     H_    0.479060 0.300550 0.707194 0.024326
C9    C     C_3   0.950697 0.100387 0.132846 -0.881755
C10   C     C_3   0.959850 0.906723 0.597734 -0.982775
C11   C     C_3   0.461456 0.593828 0.108219 -0.994667
C12   C     C_3   0.455283 0.404448 0.591267 -0.981785
H21   H     H_    0.400536 0.588965 0.133746 0.257653
H22   H     H_    0.394149 0.407878 0.616211 0.251098
H23   H     H_    0.897095 0.129738 0.067839 0.248197
H24   H     H_    0.899003 0.911608 0.623666 0.253552
H25   H     H_    0.970025 0.059242 0.051606 0.261623
H26   H     H_    0.961966 0.934348 0.480848 0.268825
H27   H     H_    0.464775 0.563372 0.995374 0.272809
H28   H     H_    0.456790 0.431313 0.473302 0.272514
C13   C     C_3   0.230547 0.458303 0.294677 0.387458
C14   C     C_3   0.228101 0.543342 0.787596 0.396861
C15   C     C_3   0.730542 0.958604 0.295447 0.394618
C16   C     C_3   0.727335 0.044821 0.775417 0.365734
H29   H     H_    0.239122 0.468896 0.426688 0.120806
H30   H     H_    0.225628 0.533783 0.916204 0.117163
H31   H     H_    0.736827 0.970663 0.426445 0.112926
H32   H     H_    0.717564 0.039719 0.901080 0.112321
H33   H     H_    0.168947 0.438459 0.246338 0.091210
H34   H     H_    0.170466 0.565906 0.720607 0.100761
H35   H     H_    0.669802 0.937351 0.244303 0.091829
H36   H     H_    0.673558 0.067922 0.694081 0.117448
C17   C     C_3   0.288444 0.398922 0.265995 -0.814770
C18   C     C_3   0.292913 0.599093 0.778735 -0.830929
C19   C     C_3   0.790658 0.899990 0.274137 -0.815552
C20   C     C_3   0.796120 0.096614 0.773626 -0.807104
H37   H     H_    0.347511 0.422658 0.260658 0.282456
H38   H     H_    0.351911 0.572073 0.794827 0.274770
H39   H     H_    0.850147 0.924560 0.276653 0.275566
H40   H     H_    0.853367 0.069650 0.828319 0.263464
H41   H     H_    0.296364 0.357895 0.365211 0.193606
H42   H     H_    0.295413 0.641288 0.874308 0.193612
H43   H     H_    0.796196 0.858732 0.372539 0.190040
H44   H     H_    0.788962 0.147503 0.840698 0.210930
H45   H     H_    0.264637 0.370907 0.149125 0.315163
H46   H     H_    0.280172 0.626263 0.658414 0.321547
H47   H     H_    0.770660 0.872204 0.155473 0.319512
H48   H     H_    0.798000 0.110632 0.646415 0.326841
Ba1   Ba    Ba6+2 0.000000 0.447380 0.844850 1.568364
Ba2   Ba    Ba6+2 1.000000 0.552620 0.344850 1.559769
Ba3   Ba    Ba6+2 0.500000 0.947380 0.844850 1.559243
Ba4   Ba    Ba6+2 0.500000 0.052620 0.344850 1.556610
C21   C     C_3   0.771564 0.545300 0.913558 0.365138
C22   C     C_3   0.771112 0.454993 0.412805 0.365484
C23   C     C_3   0.270011 0.044157 0.906735 0.388420
C24   C     C_3   0.271276 0.954847 0.413576 0.363983
H49   H     H_    0.775621 0.540214 0.784241 0.111604
H50   H     H_    0.774734 0.460356 0.283287 0.109816
H51   H     H_    0.264265 0.038239 0.773786 0.109874
H52   H     H_    0.275957 0.959797 0.284557 0.114615
H53   H     H_    0.828309 0.566988 0.986501 0.130550
H54   H     H_    0.828009 0.433115 0.484855 0.128711
H55   H     H_    0.330660 0.063803 0.963053 0.122509
H56   H     H_    0.327709 0.932925 0.487536 0.131348
C25   C     C_3   0.706106 0.599363 0.928072 -0.856662
C26   C     C_3   0.705671 0.400971 0.427625 -0.861043
C27   C     C_3   0.210829 0.101180 0.939884 -0.903825
C28   C     C_3   0.205294 0.901184 0.426927 -0.860253
H57   H     H_    0.646895 0.574193 0.884137 0.265901
H58   H     H_    0.646351 0.426257 0.384870 0.266856
H59   H     H_    0.150350 0.077379 0.924182 0.273529
H60   H     H_    0.146215 0.926527 0.381262 0.266202
H61   H     H_    0.710997 0.649108 0.855275 0.209224
H62   H     H_    0.710292 0.351417 0.354079 0.206808
H63   H     H_    0.209328 0.148173 0.855917 0.213898
H64   H     H_    0.210505 0.851228 0.354998 0.209925
H65   H     H_    0.710939 0.614872 0.057591 0.271907
H66   H     H_    0.710963 0.385114 0.557031 0.272493
H67   H     H_    0.228426 0.120785 0.066790 0.273207
H68   H     H_    0.209342 0.885970 0.556469 0.272269
O45   O     O_3   0.092100 0.536880 0.086720 -0.419467
O46   O     O_3   0.092100 0.463120 0.586720 -0.423270
O47   O     O_3   0.592100 0.036880 0.086720 -0.416239
O48   O     O_3   0.592100 0.963120 0.586720 -0.428380
P13   P     P_3+3 0.900350 0.737795 0.079326 0.507176
P14   P     P_3+3 0.900222 0.262176 0.578472 0.517947
P15   P     P_3+3 0.400779 0.238120 0.079094 0.508099
P16   P     P_3+3 0.400052 0.762459 0.579222 0.505211
C29   C     C_3   0.022011 0.175873 0.628533 0.527941
C30   C     C_3   0.018963 0.826556 0.101472 0.504836
C31   C     C_3   0.517394 0.672458 0.600108 0.497373
C32   C     C_3   0.520616 0.325157 0.098903 0.490920
H69   H     H_    0.032501 0.205232 0.519007 -0.019797
H70   H     H_    0.022478 0.796876 0.987370 0.013739
H71   H     H_    0.519512 0.699812 0.482678 0.013160
H72   H     H_    0.523386 0.295229 0.984737 0.015875
H73   H     H_    0.596404 0.585743 0.554355 0.242373
H74   H     H_    0.498698 0.427248 0.967750 0.272663
H75   H     H_    0.010704 0.070822 0.506917 0.266217
H76   H     H_    0.994324 0.928542 0.970932 0.274274
H77   H     H_    0.504998 0.569257 0.210142 0.261682
H78   H     H_    0.497103 0.433682 0.688616 0.261676
H79   H     H_    0.934800 0.072125 0.238979 0.242073
H80   H     H_    0.002987 0.934290 0.695799 0.263678
C33   C     C_R   0.136864 0.678237 0.925006 -0.535939
C34   C     C_R   0.137499 0.322122 0.424098 -0.512111
C35   C     C_R   0.637338 0.177792 0.923617 -0.546317
C36   C     C_R   0.636569 0.821470 0.425722 -0.530106
C37   C     C_R   0.863541 0.323496 0.266302 -0.604390
C38   C     C_R   0.863844 0.676528 0.766900 -0.626169
C39   C     C_R   0.363592 0.823513 0.266823 -0.625143
C40   C     C_R   0.363984 0.176764 0.766567 -0.624617
C41   C     C_R   0.798224 0.209154 0.295187 0.697759
C42   C     C_R   0.798032 0.790640 0.797074 0.687853
C43   C     C_R   0.297980 0.709314 0.296716 0.685653
C44   C     C_R   0.298056 0.290789 0.796830 0.681852
C45   C     C_R   0.851109 0.264222 0.361340 0.072512
C46   C     C_R   0.851108 0.735613 0.862431 0.080510
C47   C     C_R   0.350955 0.764389 0.362231 0.081210
C48   C     C_R   0.351018 0.235687 0.862372 0.087367
C49   C     C_R   0.817393 0.333312 0.110204 0.320090
C50   C     C_R   0.817712 0.666785 0.610714 0.303863
C51   C     C_R   0.317551 0.833242 0.110595 0.303878
C52   C     C_R   0.317856 0.166955 0.610413 0.296019
C53   C     C_R   0.756736 0.281209 0.046810 -0.139596
C54   C     C_R   0.757054 0.718934 0.547665 -0.143396
C55   C     C_R   0.256899 0.781109 0.047471 -0.144631
C56   C     C_R   0.257583 0.219371 0.546855 -0.127327
C57   C     C_R   0.246500 0.717977 0.142314 -0.289517
C58   C     C_R   0.246999 0.282384 0.641841 -0.290646
C59   C     C_R   0.746570 0.217930 0.141208 -0.283134
C60   C     C_R   0.746602 0.782028 0.642589 -0.291739
C61   C     C_R   0.184186 0.667052 0.079720 0.325483
C62   C     C_R   0.184692 0.333278 0.579068 0.319528
C63   C     C_R   0.684411 0.166840 0.078686 0.330488
C64   C     C_R   0.684170 0.832862 0.580105 0.323156
C65   C     C_R   0.151690 0.735846 0.827274 0.215696
C66   C     C_R   0.152868 0.264917 0.325701 0.173011
C67   C     C_R   0.651669 0.235833 0.826453 0.216200
C68   C     C_R   0.651680 0.764105 0.327610 0.212689
C69   C     C_R   0.208120 0.788874 0.890793 -0.134335
C70   C     C_R   0.209273 0.211902 0.389686 -0.154501
C71   C     C_R   0.707782 0.289102 0.890350 -0.141283
C72   C     C_R   0.708299 0.711193 0.390963 -0.134215
H81   H     H_    0.713413 0.335451 0.814597 0.171622
H82   H     H_    0.714297 0.665153 0.314648 0.171835
H83   H     H_    0.214028 0.834988 0.814590 0.171402
H84   H     H_    0.214841 0.165547 0.314161 0.165139
H85   H     H_    0.091064 0.639006 0.875590 0.168288
H86   H     H_    0.090785 0.360679 0.375645 0.166276
H87   H     H_    0.592073 0.138163 0.873639 0.170061
H88   H     H_    0.590257 0.860348 0.376842 0.169196
H89   H     H_    0.907112 0.364289 0.317900 0.193594
H90   H     H_    0.907531 0.635757 0.818260 0.199715
H91   H     H_    0.407172 0.864318 0.318299 0.199398
H92   H     H_    0.408127 0.136310 0.817446 0.200151
F1    F     F_    0.300541 0.647228 0.384519 -0.667658
F2    F     F_    0.300506 0.352775 0.884985 -0.663354
F3    F     F_    0.801538 0.146541 0.380770 -0.677365
F4    F     F_    0.800308 0.852509 0.885544 -0.659852

loop_
_geom_bond_atom_site_label_1
_geom_bond_atom_site_label_2
_geom_bond_distance
_ccdc_geom_bond_type
P11   C68   1.847110 S    
C69   H83   1.075555 S    
C15   H31   1.103437 S    
C12   H28   1.109146 S    
P1    O17   1.749272 S    
C14   C18   1.521097 S    
C26   H58   1.107547 S    
P3    O19   1.749281 S    
O3    Ba3   2.857600 S    
C2    H10   1.109968 S    
C16   H32   1.103382 S    
C28   H60   1.108105 S    
O24   P15   1.747611 S    
C7    H19   1.111384 S    
C18   H42   1.107207 S    
C72   H82   1.075316 S    
C9    H23   1.106646 S    
P16   C47   1.842319 S    
C25   H61   1.108618 S    
O9    P14   1.742552 S    
O8    Ba3   2.824809 S    
C22   H50   1.104108 S    
C1    H75   1.107423 S    
C4    H74   1.108736 S    
O26   Ba2   2.860936 S    
C1    H7    1.110170 S    
P1    O1    1.530098 D    
C44   C48   1.392322 A    
O38   C13   1.397334 S    
C33   C61   1.397487 A    
C3    H5    1.109145 S    
P1    Ba1   3.413423 S    
O37   C14   1.396998 S    
C20   H48   1.103366 S    
P3    O3    1.530098 D    
O29   Ba1   2.787244 S    
P4    O20   1.749415 S    
O14   P13   1.544810 D    
P3    Ba3   3.413423 S    
C24   H52   1.104086 S    
C36   C68   1.389849 A    
C11   H77   1.108600 S    
Ba1   O45   2.825603 S    
C40   C52   1.396125 A    
O2    Ba2   2.856766 S    
O31   Ba3   2.787244 S    
C4    C32   1.519452 S    
P9    O29   1.745404 S    
C19   H43   1.107923 S    
C43   C57   1.418936 A    
C54   C72   1.413042 A    
P4    O4    1.530141 D    
C58   C62   1.433346 A    
P12   O32   1.749608 S    
C33   C65   1.389927 A    
P5    O37   1.750280 S    
C9    H25   1.109785 S    
O4    Ba4   2.856766 S    
P5    Ba1   3.415259 S    
C11   H27   1.109116 S    
P2    O18   1.749414 S    
P3    C51   1.861746 S    
P7    Ba3   3.415259 S    
O41   C5    1.406222 S    
P4    O8    1.581781 S    
O6    Ba1   2.824809 S    
C3    H11   1.109858 S    
C18   H38   1.108230 S    
P4    C52   1.862498 S    
C9    H79   1.109687 S    
O9    Ba1   2.788267 S    
C27   H63   1.108275 S    
P5    O25   1.529460 D    
C24   C28   1.518844 S    
P9    O41   1.748983 S    
P7    C64   1.859973 S    
O18   C22   1.398479 S    
C59   C63   1.434157 A    
C40   H92   1.081790 S    
C8    H20   1.111272 S    
C56   C58   1.433574 A    
P2    O2    1.530141 D    
C42   F4    1.349758 S    
P11   O43   1.747260 S    
C15   H35   1.112053 S    
C51   C55   1.430815 A    
C22   C26   1.518914 S    
C5    H17   1.110423 S    
C60   C64   1.433541 A    
C21   H53   1.111270 S    
P6    Ba2   3.415662 S    
C36   C64   1.397782 A    
C42   C46   1.392025 A    
P7    O48   1.586661 S    
Ba2   O46   2.824787 S    
O12   P15   1.738774 S    
C29   H69   1.109360 S    
C70   H84   1.074250 S    
P8    O47   1.587245 S    
C1    C29   1.519729 S    
C16   H36   1.111950 S    
P9    O33   1.546636 D    
C55   C69   1.413007 A    
C19   H47   1.107565 S    
P10   O30   1.750244 S    
C68   C72   1.396517 A    
O11   P16   1.740202 S    
O32   Ba4   2.787549 S    
O5    Ba2   2.825625 S    
P11   O35   1.545121 D    
C1    H9    1.109176 S    
H2    C30   1.111562 S    
P12   O36   1.545414 D    
C35   H87   1.082239 S    
C20   H44   1.107438 S    
C23   H55   1.110123 S    
C65   C69   1.396934 A    
Ba1   O46   2.939128 S    
C34   H86   1.081962 S    
C31   H71   1.111324 S    
P10   C65   1.846354 S    
C33   H85   1.082150 S    
C14   H30   1.101207 S    
O16   P15   1.545023 D    
P9    C66   1.854036 S    
P12   C67   1.845856 S    
C26   H66   1.108446 S    
O19   C23   1.398707 S    
C39   C51   1.395797 A    
C3    H73   1.111905 S    
C28   H68   1.109222 S    
C27   H59   1.106910 S    
C2    H76   1.109078 S    
O42   C6    1.405322 S    
P12   O44   1.747611 S    
C67   C71   1.397465 A    
O23   P16   1.746784 S    
C71   H81   1.075618 S    
C55   C57   1.434030 A    
O20   C24   1.398507 S    
C3    C31   1.518496 S    
P8    C63   1.862824 S    
C57   C61   1.434079 A    
O21   P14   1.748858 S    
C52   C56   1.430260 A    
C15   C19   1.522116 S    
P6    O26   1.529418 D    
C35   C67   1.390446 A    
C10   H80   1.108856 S    
C10   H26   1.109492 S    
C53   C59   1.433097 A    
P1    O5    1.582358 S    
O44   C8    1.405411 S    
P7    O39   1.746701 S    
C6    C10   1.519940 S    
C49   C53   1.431012 A    
O12   Ba4   2.787961 S    
O17   C21   1.398710 S    
O25   Ba1   2.860095 S    
O39   C16   1.396165 S    
C21   H49   1.103910 S    
C50   C54   1.430306 A    
P2    Ba2   3.413030 S    
C42   C60   1.419091 A    
H3    C31   1.111680 S    
O30   Ba2   2.787549 S    
H4    C32   1.111623 S    
C66   C70   1.396852 A    
Ba1   Ba2   4.611854 S    
P10   O34   1.545067 D    
C2    H8    1.110926 S    
C4    H12   1.108891 S    
P11   O31   1.749798 S    
C36   H88   1.082079 S    
O1    Ba1   2.857600 S    
Ba3   Ba4   4.611854 S    
C22   H54   1.111445 S    
Ba3   O47   2.825603 S    
C20   H40   1.110007 S    
C23   C27   1.519060 S    
Ba4   O48   2.824787 S    
P7    O27   1.529460 D    
C6    H18   1.111584 S    
Ba2   O45   2.938984 S    
C7    C11   1.519147 S    
P8    O28   1.529418 D    
C8    C12   1.518941 S    
P15   C48   1.843464 S    
O22   C30   1.406485 S    
P4    Ba4   3.413030 S    
C12   H22   1.110418 S    
C39   C47   1.388445 A    
P2    C50   1.861756 S    
C53   C71   1.412975 A    
C44   C58   1.419236 A    
C39   H91   1.082032 S    
C38   C46   1.388805 A    
P1    C49   1.859675 S    
P5    O46   1.586661 S    
C8    H16   1.111905 S    
C44   F2    1.349881 S    
C37   C45   1.387753 A    
P8    O40   1.750115 S    
C14   H34   1.111197 S    
O27   Ba3   2.860095 S    
C19   H39   1.110249 S    
C17   H41   1.108033 S    
P6    O38   1.750580 S    
C16   C20   1.515004 S    
C38   H90   1.081999 S    
C17   H37   1.110477 S    
C24   H56   1.111653 S    
P6    C61   1.860624 S    
C37   H89   1.082042 S    
O22   P13   1.747730 S    
C23   H51   1.103777 S    
P5    C62   1.860400 S    
O10   Ba2   2.787961 S    
C27   H67   1.104809 S    
O21   C29   1.405171 S    
C26   H62   1.108391 S    
O10   P13   1.739210 S    
C4    H6    1.110958 S    
C13   C17   1.522616 S    
P10   O42   1.747434 S    
O40   C15   1.397051 S    
C13   H33   1.111760 S    
C5    C9    1.515915 S    
C28   H64   1.108684 S    
C10   H24   1.110586 S    
C18   H46   1.105543 S    
O43   C7    1.405600 S    
P6    O45   1.587245 S    
C25   H65   1.108666 S    
C7    H15   1.111560 S    
P8    Ba4   3.415662 S    
C41   C59   1.417694 A    
C43   F1    1.349649 S    
C34   C62   1.398385 A    
P14   C45   1.843485 S    
C25   H57   1.106852 S    
C30   H70   1.111972 S    
P13   C46   1.842347 S    
O7    Ba4   2.825625 S    
H1    C29   1.109222 S    
O15   P16   1.544473 D    
O28   Ba4   2.860936 S    
C41   F3    1.347000 S    
C43   C47   1.392619 A    
P3    O7    1.582358 S    
O13   P14   1.544663 D    
O24   C32   1.406615 S    
C41   C45   1.393045 A    
C32   H72   1.111834 S    
C21   C25   1.518380 S    
C40   C48   1.388982 A    
C6    H14   1.112112 S    
C56   C70   1.412671 A    
C34   C66   1.390509 A    
C11   H21   1.110545 S    
C5    H13   1.113178 S    
C38   C50   1.396222 A    
C54   C60   1.433937 A    
O11   Ba3   2.788267 S    
C17   H45   1.107440 S    
C37   C49   1.395790 A    
C2    C30   1.519883 S    
C35   C63   1.397614 A    
C12   H78   1.108121 S    
C13   H29   1.103247 S    
Ba4   O47   2.938984 S    
O23   C31   1.406056 S    
Ba3   O48   2.939128 S    
P2    O6    1.581781 S    
