data_mof_unit_16796.cif
_audit_creation_date              2013-03-05T15:55:36-0500
_audit_creation_method            fapswitch 2.2
_symmetry_space_group_name_H-M    P1
_symmetry_Int_Tables_number       1
_space_group_crystal_system       triclinic
_cell_length_a                    12.423257
_cell_length_b                    13.134696
_cell_length_c                    15.842613
_cell_angle_alpha                 75.75535
_cell_angle_beta                  101.099843
_cell_angle_gamma                 116.92539
_cell_volume                      2224.16905767

loop_
_atom_site_label
_atom_site_type_symbol
_atom_site_description
_atom_site_fract_x
_atom_site_fract_y
_atom_site_fract_z
_atom_type_partial_charge
O1    O     O_R   0.972520 0.318130 0.524690 -0.514112
O2    O     O_R   0.806530 0.359650 0.491530 -0.566587
C1    C     C_R   0.855213 0.285889 0.503884 0.936899
O3    O     O_R   0.083030 0.479240 0.637150 -0.548911
O4    O     O_R   0.917040 0.520750 0.603990 -0.520922
C2    C     C_R   0.000870 0.500896 0.659363 0.860010
Cu1   Cu    Cu3+1 0.098280 0.475420 0.519630 1.079806
Cu2   Cu    Cu3+1 0.901720 0.524580 0.480370 1.120060
O5    O     O_R   0.193470 0.640350 0.508470 -0.583826
O6    O     O_R   0.027480 0.681870 0.475310 -0.527293
O7    O     O_R   0.082960 0.479250 0.396010 -0.591141
O8    O     O_R   0.916970 0.520760 0.362850 -0.519313
C3    C     C_R   0.144765 0.714489 0.493530 0.840721
C4    C     C_R   0.000632 0.501164 0.340454 0.833001
C5    C     C_3   0.998889 0.390736 0.973604 -0.393741
C6    C     C_3   0.891541 0.519647 0.930807 0.183551
C7    C     C_3   0.895212 0.524383 0.028368 -0.408478
H1    H     H_    0.912812 0.318574 0.095737 0.221399
H2    H     H_    0.914522 0.317735 0.952688 0.213177
H3    H     H_    0.808788 0.442208 0.914285 0.185645
H4    H     H_    0.810239 0.454274 0.054993 0.209835
H5    H     H_    0.897088 0.607502 0.034954 0.274716
C8    C     C_1   0.001683 0.502980 0.250656 0.008457
C9    C     C_3   0.005621 0.507540 0.916175 -0.044910
C10   C     C_3   0.998047 0.390674 0.071040 -0.390934
C11   C     C_3   0.006897 0.508352 0.082478 -0.001618
C12   C     C_3   0.126898 0.609305 0.046668 0.573709
C13   C     C_3   0.122049 0.612101 0.946078 0.108043
C14   C     C_1   0.003524 0.505132 0.174943 0.103026
C15   C     C_1   0.003873 0.504639 0.824206 0.099944
C16   C     C_1   0.002558 0.502688 0.748851 0.025560
H6    H     H_    0.112194 0.692028 0.910012 0.192988
H7    H     H_    0.074547 0.372411 0.965197 0.266238
H8    H     H_    0.073993 0.372625 0.110199 0.256610
C17   C     C_R   0.273535 0.043211 0.427474 0.284580
H9    H     H_    0.451839 0.239322 0.352840 0.214896
C18   C     C_R   0.227506 0.840334 0.488615 -0.221761
C19   C     C_R   0.815707 0.073198 0.528795 0.296627
C20   C     C_R   0.734608 0.956014 0.533344 0.383849
C21   C     C_R   0.611184 0.923718 0.508681 0.263049
C22   C     C_R   0.564821 0.008691 0.483930 -0.034402
C23   C     C_R   0.648900 0.126769 0.463386 -0.063137
C24   C     C_R   0.438198 0.980947 0.473961 0.128542
C25   C     C_R   0.397440 0.067252 0.431595 -0.060821
C26   C     C_R   0.481479 0.176012 0.394131 -0.161437
C27   C     C_R   0.604700 0.203456 0.405517 0.392505
C28   C     C_R   0.351327 0.871117 0.507996 -0.155723
C29   C     C_R   0.188343 0.929891 0.459559 0.270387
C30   C     C_R   0.773658 0.161297 0.496585 -0.236000
H10   H     H_    0.377580 0.807613 0.551707 0.232570
C31   C     C_R   0.323309 0.298883 0.618508 -0.125470
H11   H     H_    0.314387 0.223043 0.668108 0.234063
N1    N     N_R   0.246300 0.438200 0.549400 -0.236737
C32   C     C_R   0.757456 0.645378 0.378611 0.469104
C33   C     C_R   0.658433 0.672948 0.349871 0.319480
C34   C     C_R   0.552574 0.611154 0.390716 -0.143470
C35   C     C_R   0.542656 0.521462 0.462232 -0.065667
C36   C     C_R   0.645376 0.494307 0.491668 0.070106
C37   C     C_R   0.434067 0.458631 0.506666 -0.015293
C38   C     C_R   0.419444 0.354434 0.565371 -0.038671
C39   C     C_R   0.506706 0.312371 0.575671 0.268123
C40   C     C_R   0.624950 0.391553 0.557490 0.293218
C41   C     C_R   0.339114 0.494550 0.496421 0.093297
C42   C     C_R   0.241446 0.345349 0.612774 0.587288
N2    N     N_R   0.754300 0.561180 0.451130 -0.259744
H12   H     H_    0.337783 0.567487 0.447729 0.171823
H13   H     H_    0.477093 0.632088 0.362903 0.209061
Cl1   Cl    Cl    0.142572 0.746974 0.061814 -0.448262
N3    N     N_R   0.068274 0.909170 0.473053 0.189544
O9    O     O_R   0.022995 0.845742 0.545829 -0.252031
O10   O     O_R   0.011761 0.966337 0.420553 -0.196242
N4    N     N_R   0.235414 0.134616 0.393883 0.143097
O11   O     O_R   0.219183 0.167622 0.309871 -0.283189
O12   O     O_R   0.213219 0.182416 0.447194 -0.294363
Cl2   Cl    Cl    0.970773 0.103727 0.555719 -0.358322
Cl3   Cl    Cl    0.526488 0.781760 0.486575 -0.604170
Cl4   Cl    Cl    0.787253 0.846462 0.571669 -0.319541
Cl5   Cl    Cl    0.691616 0.315373 0.325652 -0.578582
Cl6   Cl    Cl    0.134125 0.281541 0.689890 -0.450254
Cl7   Cl    Cl    0.479355 0.170384 0.634229 -0.494564
N5    N     N_R   0.852696 0.693423 0.322383 0.156333
O13   O     O_R   0.942215 0.793601 0.329800 -0.272888
O14   O     O_R   0.829354 0.658616 0.248013 -0.277771
Cl8   Cl    Cl    0.662911 0.782419 0.258401 -0.360992
N6    N     N_R   0.710224 0.389848 0.631284 0.160337
O15   O     O_R   0.739061 0.302457 0.656050 -0.323914
O16   O     O_R   0.725572 0.452343 0.688712 -0.297332
Cl9   Cl    Cl    0.874843 0.642905 0.860541 -0.422114
N7    N     N_R   0.234130 0.620877 0.920218 0.171454
O17   O     O_R   0.265959 0.535480 0.943916 -0.262460
O18   O     O_R   0.301345 0.714735 0.869875 -0.248636
Cl10  Cl    Cl    0.257531 0.593046 0.109382 -0.420988

loop_
_geom_bond_atom_site_label_1
_geom_bond_atom_site_label_2
_geom_bond_distance
_ccdc_geom_bond_type
C36   C40   1.439595 A    
C33   C34   1.381856 A    
C22   C23   1.420439 A    
C29   N3    1.439187 S    
N5    O13   1.297093 A    
C1    C30   1.504784 S    
Cu1   Cu2   2.722551 S    
C19   C30   1.423556 A    
N6    O15   1.302502 A    
C5    H2    1.113641 S    
C11   C12   1.570909 S    
H9    C26   1.082531 S    
C7    C11   1.556328 S    
C20   Cl4   1.770977 S    
C19   C20   1.399386 A    
N1    C42   1.361308 A    
C5    C10   1.545483 S    
C39   Cl7   1.774875 S    
C34   C35   1.397210 A    
C23   C27   1.417474 A    
N3    O10   1.301444 A    
O5    C3    1.317376 A    
C12   Cl1   1.800516 S    
C6    C7    1.553222 S    
C13   N7    1.473434 S    
N7    O18   1.301313 A    
C3    C18   1.491150 S    
C6    H3    1.113719 S    
C10   H8    1.111794 S    
C2    C16   1.419682 S    
C41   H12   1.076502 S    
Cu2   N2    2.039843 S    
C6    C9    1.560891 S    
C22   C24   1.430313 A    
C39   C40   1.397983 A    
H1    C10   1.113642 S    
O3    Cu1   1.922289 S    
C17   C29   1.414937 A    
N5    O14   1.301837 A    
C28   H10   1.075554 S    
C19   Cl2   1.766928 S    
N6    O16   1.302638 A    
C40   N6    1.421726 S    
C31   H11   1.081840 S    
C13   H6    1.112573 S    
O3    C2    1.302708 A    
C20   C21   1.394822 A    
C32   N2    1.377436 A    
C10   C11   1.552499 S    
C26   C27   1.389885 A    
C7    H4    1.113636 S    
C21   Cl3   1.763253 S    
C38   C39   1.391771 A    
O1    C1    1.317807 A    
C4    C8    1.419426 S    
Cu1   O7    1.921198 S    
C24   C25   1.416493 A    
C36   N2    1.412672 A    
C15   C16   1.197194 T    
Cu2   O8    1.922289 S    
C12   Cl10  1.804199 S    
C18   C29   1.413479 A    
C17   C25   1.415855 A    
N4    O12   1.300365 A    
C5    C9    1.553927 S    
O8    C4    1.304460 A    
C17   N4    1.432598 S    
C42   Cl6   1.756111 S    
C18   C28   1.392831 A    
Cu1   N1    2.051761 S    
C8    C14   1.197250 T    
C25   C26   1.397709 A    
C27   Cl5   1.760946 S    
Cu1   O5    1.922108 S    
C32   C33   1.399449 A    
C21   C22   1.418106 A    
O1    Cu1   1.938817 S    
O2    Cu2   1.922108 S    
C31   C42   1.383582 A    
C9    C13   1.568436 S    
N4    O11   1.300756 A    
O6    C3    1.312808 A    
O4    Cu2   1.921197 S    
C34   H13   1.078825 S    
C37   C41   1.425864 A    
C7    H5    1.111487 S    
O2    C1    1.316998 A    
N7    O17   1.301047 A    
N1    C41   1.369597 A    
C35   C36   1.440276 A    
O4    C2    1.305293 A    
O7    C4    1.303433 A    
N3    O9    1.300925 A    
C9    C15   1.462617 S    
C35   C37   1.438034 A    
C23   C30   1.432277 A    
C37   C38   1.408732 A    
C11   C14   1.463203 S    
Cu2   O6    1.938817 S    
C12   C13   1.575058 S    
C6    Cl9   1.797660 S    
C31   C38   1.401088 A    
C33   Cl8   1.761730 S    
C24   C28   1.402772 A    
C5    H7    1.108134 S    
C32   N5    1.429905 S    
