data_mof_unit_62477.cif
_audit_creation_date              2012-10-26T17:21:01-0400
_audit_creation_method            fapswitch 2.2
_symmetry_space_group_name_H-M    P1
_symmetry_Int_Tables_number       1
_space_group_crystal_system       triclinic
_cell_length_a                    18.742351
_cell_length_b                    18.756821
_cell_length_c                    18.911715
_cell_angle_alpha                 109.500754
_cell_angle_beta                  109.292436
_cell_angle_gamma                 109.266643
_cell_volume                      5140.11385

loop_
_atom_site_label
_atom_site_type_symbol
_atom_type_description
_atom_site_fract_x
_atom_site_fract_y
_atom_site_fract_z
_atom_type_partial_charge
C1    C     C_R   0.117148 0.118839 0.498339 0.503475
C2    C     C_R   0.323375 0.314917 0.575529 -0.127686
C3    C     C_R   0.257189 0.252373 0.574487 -0.135166
C4    C     C_R   0.117818 0.998988 0.617828 0.539152
C5    C     C_R   0.182009 0.185845 0.496207 -0.002227
C6    C     C_R   0.736437 0.915078 0.244092 -0.011090
C7    C     C_R   0.675117 0.915776 0.177011 -0.034089
C8    C     C_R   0.685016 0.995981 0.183007 0.029437
C9    C     C_R   0.756919 0.074351 0.253553 -0.133334
C10   C     C_R   0.818434 0.074080 0.318922 -0.146883
C11   C     C_R   0.809331 0.995442 0.314636 0.029464
C12   C     C_R   0.268471 0.074575 0.736572 0.007231
C13   C     C_R   0.802816 0.729677 0.467225 -0.126973
C14   C     C_R   0.740319 0.664053 0.467374 -0.003056
C15   C     C_R   0.685961 0.683421 0.498505 0.029650
C16   C     C_R   0.880964 0.881028 0.499933 0.598031
C17   C     C_R   0.696754 0.768009 0.530425 -0.049196
C18   C     C_R   0.761143 0.832704 0.531432 -0.118159
C19   C     C_R   0.813912 0.813614 0.499600 0.025972
C20   C     C_R   0.501261 0.881315 0.882446 0.596839
C21   C     C_R   0.380870 0.002641 0.883433 0.514027
C22   C     C_R   0.503747 0.118651 0.122763 0.501829
C23   C     C_R   0.186103 0.999535 0.682887 -0.007367
C24   C     C_R   0.618833 0.999070 0.118087 0.576422
C25   C     C_R   0.500052 0.619346 0.618757 0.550723
C26   C     C_R   0.381083 0.380888 0.499694 0.525130
C27   C     C_R   0.498434 0.379527 0.381884 0.552764
C28   C     C_R   0.879595 0.998670 0.381437 0.579784
C29   C     C_R   0.618697 0.617174 0.498685 0.604401
C30   C     C_R   0.579807 0.808619 0.832580 0.005297
C31   C     C_R   0.577372 0.744604 0.765910 -0.141718
C32   C     C_R   0.501079 0.687424 0.685832 0.026837
C33   C     C_R   0.426149 0.694344 0.671449 -0.120199
C34   C     C_R   0.167681 0.926075 0.692810 -0.052016
C35   C     C_R   0.427121 0.757193 0.737285 -0.143907
C36   C     C_R   0.503323 0.814698 0.817474 0.046321
C37   C     C_R   0.518558 0.262363 0.193203 -0.155611
C38   C     C_R   0.515329 0.325474 0.253865 -0.021402
C39   C     C_R   0.498741 0.311298 0.316526 -0.021395
C40   C     C_R   0.291024 0.141730 0.716146 -0.090402
C41   C     C_R   0.485593 0.233105 0.318175 0.008076
C42   C     C_R   0.496753 0.172480 0.260402 0.025714
C43   C     C_R   0.506725 0.185113 0.193668 -0.046771
C44   C     C_R   0.369872 0.218388 0.771403 -0.141608
C45   C     C_R   0.232322 0.927101 0.757263 -0.046803
C46   C     C_R   0.424434 0.232389 0.850760 -0.073539
C47   C     C_R   0.403080 0.167607 0.873854 0.048543
C48   C     C_R   0.329142 0.082705 0.811514 -0.022905
C49   C     C_1   0.082249 0.848592 0.635456 0.225633
C50   C     C_2   0.721484 0.830538 0.240725 0.248530
C51   C     C_1   0.602507 0.834315 0.101771 0.232308
C52   C     C_2   0.735206 0.577493 0.433471 0.247082
C53   C     C_1   0.643801 0.790402 0.564483 0.209400
C54   C     C_2   0.662700 0.864678 0.916276 0.236077
C55   C     C_1   0.528699 0.404201 0.249756 0.267066
C56   C     C_R   0.312912 0.005636 0.818770 -0.042254
C57   C     C_2   0.452711 0.212036 0.374642 0.285526
C58   C     C_2   0.508739 0.103075 0.275928 0.287912
C59   C     C_2   0.451288 0.196210 0.966308 0.259462
C60   C     C_1   0.215499 0.845338 0.756592 0.245387
C61   C     C_2   0.089311 0.118358 0.334296 0.247135
C62   C     C_R   0.170929 0.184031 0.417787 0.006325
C63   C     C_R   0.237556 0.248696 0.420158 -0.079605
C64   C     C_R   0.313551 0.313348 0.498477 0.001181
Cu1   Cu    Cu3+1 0.999980 0.061790 0.561790 0.983298
Cu2   Cu    Cu3+1 0.000020 0.938210 0.438210 1.021641
Cu3   Cu    Cu3+1 0.438200 0.938230 0.000040 1.023617
Cu4   Cu    Cu3+1 0.561800 0.061850 0.000040 1.064677
Cu5   Cu    Cu3+1 0.438190 0.500100 0.438300 1.017348
Cu6   Cu    Cu3+1 0.561810 0.500080 0.561880 1.011527
H1    H     H_    0.265025 0.255435 0.634899 0.117609
H2    H     H_    0.530876 0.274154 0.145430 0.188946
H3    H     H_    0.386719 0.269060 0.754686 0.116902
H4    H     H_    0.481631 0.296039 0.896052 0.166788
H5    H     H_    0.230500 0.249044 0.361040 0.176515
H6    H     H_    0.381353 0.365561 0.636594 0.134059
H7    H     H_    0.688092 0.771414 0.179096 0.120923
H8    H     H_    0.774491 0.566683 0.404328 0.117000
H9    H     H_    0.721367 0.863902 0.919582 0.112929
H10   H     H_    0.468219 0.262873 0.435131 0.124051
H11   H     H_    0.494755 0.043912 0.224410 0.136530
H12   H     H_    0.764840 0.136059 0.258600 0.138402
H13   H     H_    0.420513 0.163497 0.994338 0.093967
H14   H     H_    0.032519 0.075232 0.332353 0.126386
H15   H     H_    0.874311 0.135551 0.372482 0.133403
H16   H     H_    0.844360 0.715589 0.443032 0.142890
H17   H     H_    0.769528 0.897761 0.556288 0.149865
H18   H     H_    0.248350 0.134607 0.656338 0.125693
H19   H     H_    0.635306 0.738958 0.776567 0.121028
H20   H     H_    0.366599 0.650287 0.609940 0.142593
H21   H     H_    0.368564 0.761812 0.725380 0.135392
N1    N     N_1   0.014333 0.786910 0.589914 -0.296667
N2    N     N_1   0.544683 0.769405 0.041697 -0.261660
N3    N     N_1   0.601449 0.808258 0.591778 -0.272898
N4    N     N_1   0.539299 0.467086 0.246342 -0.255681
N5    N     N_1   0.201862 0.780085 0.755677 -0.264584
O1    O     O_R   0.090150 0.142360 0.552170 -0.515460
O2    O     O_R   0.552200 0.590240 0.642450 -0.522249
O3    O     O_R   0.357640 0.409920 0.447920 -0.517535
O4    O     O_R   0.090180 0.037990 0.447810 -0.516530
O5    O     O_R   0.462030 0.409900 0.552280 -0.523270
O6    O     O_R   0.447800 0.409940 0.357730 -0.502355
O7    O     O_R   0.552190 0.409920 0.462090 -0.488444
O8    O     O_R   0.537970 0.590270 0.447900 -0.492681
O9    O     O_R   0.642360 0.590260 0.552260 -0.471066
O10   O     O_R   0.090170 0.052200 0.642360 -0.510256
O11   O     O_R   0.090200 0.947840 0.538010 -0.502897
O12   O     O_R   0.552230 0.962090 0.909900 -0.476719
O13   O     O_R   0.909820 0.962010 0.552190 -0.514914
O14   O     O_R   0.909850 0.857640 0.447830 -0.480278
O15   O     O_R   0.909800 0.052160 0.461990 -0.507877
O16   O     O_R   0.909830 0.947800 0.357640 -0.491907
O17   O     O_R   0.447850 0.857690 0.909890 -0.494138
O18   O     O_2   0.742819 0.825308 0.306365 -0.486388
O19   O     O_2   0.689118 0.517819 0.438125 -0.483400
O20   O     O_2   0.666782 0.910171 0.982597 -0.493266
O21   O     O_2   0.403874 0.136930 0.351870 -0.445797
O22   O     O_2   0.539485 0.113469 0.348807 -0.451465
O23   O     O_R   0.357630 0.947820 0.909860 -0.499006
O24   O     O_2   0.526006 0.256710 0.011862 -0.516471
O25   O     O_2   0.084088 0.112164 0.266182 -0.486584
O26   O     O_R   0.462000 0.052220 0.909860 -0.502022
O27   O     O_R   0.447770 0.037990 0.090190 -0.535700
O28   O     O_R   0.552150 0.142390 0.090190 -0.489652
O29   O     O_R   0.538000 0.947860 0.090220 -0.513959
O30   O     O_R   0.642370 0.052260 0.090230 -0.483652
O31   O     O_R   0.447810 0.590260 0.538090 -0.505337

loop_
_geom_bond_atom_site_label_1
_geom_bond_atom_site_label_2
_ccdc_geom_bond_type
C10   H15   S    
C37   C43   A    
C59   O24   D    
C17   C53   S    
C41   C42   A    
C35   C36   A    
Cu2   O11   S    
C12   C48   A    
Cu4   O28   S    
Cu6   O5    S    
C16   O14   A    
C7    C8    A    
C39   C41   A    
Cu5   O6    S    
C28   O16   A    
C30   C54   S    
C12   C23   A    
C62   C63   A    
C1    C5    S    
C59   H13   S    
Cu5   Cu6   S    
Cu3   O29   S    
C26   O5    A    
C30   C31   A    
Cu5   O8    S    
C58   O22   D    
C61   O25   D    
C18   C19   A    
Cu2   O4    S    
C21   O26   A    
C26   C64   S    
Cu1   O15   S    
C45   C60   S    
C42   C58   S    
C8    C24   S    
C14   C52   S    
C38   C55   S    
C47   C48   A    
C45   C56   A    
C44   C46   A    
C8    C9    A    
C31   H19   S    
C54   O20   D    
C13   H16   S    
C9    C10   A    
C9    H12   S    
C25   C32   S    
C13   C14   A    
C24   O30   A    
C57   H10   S    
C29   O9    A    
C44   H3    S    
C52   H8    S    
C1    O4    A    
C2    C64   A    
C16   O13   A    
C15   C29   S    
C28   O15   A    
C38   C39   A    
C4    O11   A    
C47   C59   S    
C13   C19   A    
C27   C39   S    
Cu3   Cu4   S    
C22   O27   A    
C55   N4    T    
C58   H11   S    
C1    O1    A    
C6    C11   A    
C4    C23   S    
Cu6   O7    S    
Cu5   O31   S    
C4    O10   A    
Cu6   O9    S    
C6    C50   S    
C29   O8    A    
C50   O18   D    
C12   C40   A    
C3    H1    S    
C37   C38   A    
C22   C43   S    
C23   C34   A    
C17   C18   A    
C34   C45   A    
Cu2   O14   S    
C22   O28   A    
Cu1   O13   S    
C51   N2    T    
Cu5   O3    S    
C24   O29   A    
C42   C43   A    
C49   N1    T    
Cu4   O26   S    
C50   H7    S    
Cu4   O30   S    
Cu1   O10   S    
C46   H4    S    
C2    H6    S    
C57   O21   D    
C54   H9    S    
C52   O19   D    
C48   C56   A    
C46   C47   A    
C34   C49   S    
C53   N3    T    
C31   C32   A    
C3    C5    A    
C61   H14   S    
Cu3   O27   S    
C21   C56   S    
C15   C17   A    
C6    C7    A    
Cu4   O12   S    
C26   O3    A    
C27   O6    A    
C18   H17   S    
C30   C36   A    
C32   C33   A    
C40   H18   S    
C2    C3    A    
C25   O31   A    
C7    C51   S    
C21   O23   A    
C33   H20   S    
C20   O17   A    
C63   H5    S    
C11   C28   S    
C16   C19   S    
C27   O7    A    
C33   C35   A    
C5    C62   A    
Cu3   O17   S    
C61   C62   S    
C10   C11   A    
C41   C57   S    
C63   C64   A    
C20   C36   S    
C25   O2    A    
C40   C44   A    
Cu1   O1    S    
Cu1   Cu2   S    
C37   H2    S    
C14   C15   A    
C60   N5    T    
Cu2   O16   S    
Cu3   O23   S    
Cu6   O2    S    
C20   O12   A    
C35   H21   S    
