data_mof_unit_44115.cif
_audit_creation_date              2012-12-10T20:41:55-0500
_audit_creation_method            fapswitch 2.2
_symmetry_space_group_name_H-M    P1
_symmetry_Int_Tables_number       1
_space_group_crystal_system       triclinic
_cell_length_a                    15.057147
_cell_length_b                    15.192747
_cell_length_c                    9.870588
_cell_angle_alpha                 90.450279
_cell_angle_beta                  89.185056
_cell_angle_gamma                 90.022368
_cell_volume                      2257.69182631

loop_
_atom_site_label
_atom_site_type_symbol
_atom_type_description
_atom_site_fract_x
_atom_site_fract_y
_atom_site_fract_z
_atom_type_partial_charge
C1    C     C_R   0.381992 0.877956 0.500080 0.887258
C2    C     C_R   0.927477 0.470959 0.073000 0.216508
C3    C     C_R   0.574873 0.019117 0.070493 -0.090096
C4    C     C_R   0.074873 0.519117 0.070493 -0.090096
C5    C     C_R   0.574979 0.018617 0.926536 0.016313
C6    C     C_R   0.074979 0.518617 0.926536 0.016313
C7    C     C_R   0.427181 0.971508 0.930357 0.207643
C8    C     C_R   0.927181 0.471508 0.930357 0.207643
C9    C     C_3   0.337112 0.012111 0.931200 -0.526074
C10   C     C_3   0.837112 0.512111 0.931200 -0.526073
C11   C     C_3   0.336730 0.008633 0.084335 -0.486980
C12   C     C_R   0.382291 0.122596 0.500517 0.885722
C13   C     C_3   0.836729 0.508633 0.084335 -0.486981
C14   C     C_R   0.622068 0.117949 0.499676 0.878548
C15   C     C_R   0.622666 0.882719 0.498942 0.876307
C16   C     C_R   0.122068 0.617949 0.499676 0.878548
C17   C     C_R   0.122666 0.382719 0.498942 0.876307
C18   C     C_R   0.304511 0.243380 0.618872 0.045055
C19   C     C_R   0.293137 0.770131 0.622219 0.051920
C20   C     C_R   0.804511 0.743380 0.618872 0.045055
C21   C     C_R   0.793137 0.270131 0.622219 0.051920
C22   C     C_R   0.328067 0.199772 0.499031 -0.103094
C23   C     C_R   0.881992 0.377956 0.500080 0.887258
C24   C     C_R   0.326416 0.802252 0.500099 -0.104252
C25   C     C_R   0.828067 0.699772 0.499031 -0.103094
C26   C     C_R   0.826416 0.302252 0.500099 -0.104252
C27   C     C_R   0.301221 0.234640 0.374500 -0.204866
C28   C     C_R   0.307118 0.758497 0.378249 -0.209710
C29   C     C_R   0.801221 0.734640 0.374500 -0.204866
C30   C     C_R   0.807118 0.258497 0.378249 -0.209710
C31   C     C_R   0.736762 0.799481 0.373271 -0.186457
C32   C     C_R   0.742360 0.193801 0.378037 -0.182602
C33   C     C_R   0.236762 0.299481 0.373271 -0.186457
C34   C     C_R   0.882291 0.622596 0.500517 0.885722
C35   C     C_R   0.242360 0.693801 0.378037 -0.182603
C36   C     C_R   0.700068 0.829100 0.496616 -0.179827
C37   C     C_R   0.697826 0.173697 0.499684 -0.178118
C38   C     C_R   0.200068 0.329100 0.496616 -0.179827
C39   C     C_R   0.197826 0.673697 0.499684 -0.178118
C40   C     C_R   0.740931 0.807647 0.617443 0.111025
C41   C     C_R   0.729430 0.206084 0.622182 0.105481
C42   C     C_R   0.240931 0.307647 0.617443 0.111025
C43   C     C_R   0.229430 0.706084 0.622182 0.105481
C44   C     C_3   0.701409 0.780006 0.749819 0.489536
C45   C     C_3   0.271731 0.209027 0.751722 -0.562359
C46   C     C_3   0.679911 0.247642 0.738404 0.477852
C47   C     C_3   0.201408 0.280006 0.749819 0.489536
C48   C     C_3   0.179911 0.747642 0.738404 0.477852
C49   C     C_3   0.250494 0.818477 0.738175 -0.544396
C50   C     C_3   0.771731 0.709027 0.751722 -0.562358
C51   C     C_3   0.750494 0.318477 0.738175 -0.544396
C52   C     C_R   0.427477 0.970959 0.073000 0.216508
F1    F     F_    0.713663 0.843359 0.849396 -0.653471
F2    F     F_    0.682918 0.196412 0.853461 -0.668332
F3    F     F_    0.213663 0.343359 0.849396 -0.653471
F4    F     F_    0.182918 0.696412 0.853461 -0.668331
H1    H     H_    0.324272 0.207630 0.278488 0.172569
H2    H     H_    0.723330 0.164427 0.282384 0.183727
H3    H     H_    0.211140 0.320619 0.276815 0.192212
H4    H     H_    0.223330 0.664426 0.282384 0.183727
H5    H     H_    0.632205 0.754875 0.743277 0.073011
H6    H     H_    0.612268 0.271091 0.712828 0.072525
H7    H     H_    0.132205 0.254875 0.743277 0.073011
H8    H     H_    0.112268 0.771092 0.712828 0.072525
H9    H     H_    0.321171 0.219744 0.832740 0.235933
H10   H     H_    0.292710 0.817798 0.829648 0.235797
H11   H     H_    0.821171 0.719743 0.832740 0.235933
H12   H     H_    0.337062 0.778054 0.282668 0.177390
H13   H     H_    0.792710 0.317798 0.829648 0.235797
H14   H     H_    0.243341 0.141672 0.742960 0.161522
H15   H     H_    0.224654 0.884003 0.708432 0.151926
H16   H     H_    0.743341 0.641672 0.742960 0.161522
H17   H     H_    0.724654 0.384003 0.708433 0.151926
H18   H     H_    0.634935 0.036115 0.123528 0.159746
H19   H     H_    0.134935 0.536115 0.123528 0.159746
H20   H     H_    0.635282 0.034282 0.871145 0.216708
H21   H     H_    0.135282 0.534282 0.871145 0.216708
H22   H     H_    0.340051 0.079888 0.893177 0.219659
H23   H     H_    0.824272 0.707630 0.278488 0.172569
H24   H     H_    0.285620 0.969941 0.885280 0.205312
H25   H     H_    0.840051 0.579888 0.893177 0.219659
H26   H     H_    0.785620 0.469941 0.885280 0.205312
H27   H     H_    0.837061 0.278054 0.282668 0.177390
H28   H     H_    0.335474 0.074755 0.133114 0.216688
H29   H     H_    0.288225 0.960599 0.126611 0.207343
H30   H     H_    0.835474 0.574755 0.133114 0.216688
H31   H     H_    0.788225 0.460599 0.126611 0.207343
H32   H     H_    0.711140 0.820619 0.276815 0.192212
N1    N     N_R   0.499140 0.000000 0.142800 -0.124175
N2    N     N_R   0.999140 0.500000 0.142800 -0.124175
N3    N     N_R   0.499160 0.000000 0.857150 -0.129419
N4    N     N_R   0.999160 0.500000 0.857150 -0.129419
O1    O     O_R   0.408400 0.908380 0.614690 -0.612926
O2    O     O_R   0.591610 0.908390 0.614650 -0.604435
O3    O     O_R   0.091610 0.591610 0.614650 -0.605833
O4    O     O_R   0.091610 0.408390 0.614650 -0.604435
O5    O     O_R   0.591590 0.091600 0.385310 -0.624351
O6    O     O_R   0.591590 0.908400 0.385310 -0.619348
O7    O     O_R   0.091590 0.591600 0.385310 -0.624351
O8    O     O_R   0.091590 0.408400 0.385310 -0.619348
O9    O     O_R   0.408400 0.091620 0.614690 -0.613290
O10   O     O_R   0.908400 0.408380 0.614690 -0.612925
O11   O     O_R   0.908400 0.591620 0.614690 -0.613290
O12   O     O_R   0.408370 0.908370 0.385350 -0.625405
O13   O     O_R   0.408370 0.091630 0.385350 -0.627389
O14   O     O_R   0.908370 0.408370 0.385350 -0.625404
O15   O     O_R   0.908370 0.591630 0.385350 -0.627389
O16   O     O_R   0.591610 0.091610 0.614650 -0.605833
Zn1   Zn    Zn3+2 0.500010 0.000000 0.653130 0.982646
Zn2   Zn    Zn3+2 0.000010 0.500000 0.653130 0.982646
Zn3   Zn    Zn3+2 0.499980 0.000000 0.346870 0.953321
Zn4   Zn    Zn3+2 0.999980 0.500000 0.346870 0.953321

loop_
_geom_bond_atom_site_label_1
_geom_bond_atom_site_label_2
_ccdc_geom_bond_type
C21   C26   A    
O15   Zn4   S    
C32   H2    S    
C15   O2    A    
O14   Zn4   S    
C27   C33   A    
C9    H22   S    
C46   H6    S    
O11   Zn2   S    
C34   O15   A    
C28   H12   S    
C7    C52   A    
C38   C42   A    
C18   C42   A    
C47   H7    S    
C12   O13   A    
C20   C40   A    
C6    N4    A    
C48   H8    S    
C23   O10   A    
C20   C25   A    
O9    Zn1   S    
C12   C22   S    
O16   Zn1   S    
C48   F4    S    
C23   C26   S    
C30   H27   S    
C2    N2    A    
C2    C13   S    
C50   H16   S    
C4    H19   S    
C20   C50   S    
C11   C52   S    
C44   F1    S    
C28   C35   A    
C13   H30   S    
C41   C46   S    
C8    N4    A    
N2    Zn4   S    
C50   H11   S    
C25   C34   S    
C17   C38   S    
C14   O16   A    
O13   Zn3   S    
C33   H3    S    
C13   H31   S    
C52   N1    A    
C19   C43   A    
C4    N2    A    
C45   C47   S    
C25   C29   A    
C49   H10   S    
C24   C28   A    
C36   C40   A    
C4    C6    A    
C27   H1    S    
O6    Zn3   S    
C6    H21   S    
C39   C43   A    
C23   O14   A    
O4    Zn2   S    
C46   C51   S    
C10   C13   S    
C35   H4    S    
C3    H18   S    
C9    H24   S    
C35   C39   A    
C19   C49   S    
C29   H23   S    
C7    N3    A    
C46   F2    S    
C17   O4    A    
C32   C37   A    
C9    C11   S    
C1    O12   A    
C5    N3    A    
C21   C41   A    
C8    C10   S    
C48   C49   S    
O8    Zn4   S    
C22   C27   A    
C45   H9    S    
C44   H5    S    
O10   Zn2   S    
C15   O6    A    
C18   C45   S    
C15   C36   S    
C21   C51   S    
C14   O5    A    
C47   F3    S    
C43   C48   S    
C44   C50   S    
C7    C9    S    
C16   O3    A    
C31   H32   S    
C10   H25   S    
C45   H14   S    
C18   C22   A    
C2    C8    A    
C51   H17   S    
C3    C5    A    
O3    Zn2   S    
O12   Zn3   S    
C16   O7    A    
C26   C30   A    
C11   H28   S    
N1    Zn3   S    
O2    Zn1   S    
C33   C38   A    
C3    N1    A    
N3    Zn1   S    
C5    H20   S    
C19   C24   A    
C12   O9    A    
C29   C31   A    
C14   C37   S    
C30   C32   A    
N4    Zn2   S    
C11   H29   S    
O5    Zn3   S    
O7    Zn4   S    
C34   O11   A    
C10   H26   S    
C42   C47   S    
C37   C41   A    
C17   O8    A    
C16   C39   S    
C40   C44   S    
C1    C24   S    
C1    O1    A    
C49   H15   S    
C31   C36   A    
C51   H13   S    
O1    Zn1   S    
