data_mof_unit_20277.cif
_audit_creation_date              2012-12-10T16:48:45-0500
_audit_creation_method            fapswitch 2.2
_symmetry_space_group_name_H-M    P1
_symmetry_Int_Tables_number       1
_space_group_crystal_system       triclinic
_cell_length_a                    17.305365
_cell_length_b                    8.681364
_cell_length_c                    7.442236
_cell_angle_alpha                 102.871065
_cell_angle_beta                  90.697488
_cell_angle_gamma                 92.976908
_cell_volume                      1088.19052366

loop_
_atom_site_label
_atom_site_type_symbol
_atom_type_description
_atom_site_fract_x
_atom_site_fract_y
_atom_site_fract_z
_atom_type_partial_charge
C1    C     C_R   0.497651 0.199740 0.453656 0.888392
C2    C     C_R   0.502362 0.800261 0.546341 0.888320
C3    C     C_2   0.496526 0.031913 0.427455 -0.349987
C4    C     C_2   0.503503 0.968088 0.572538 -0.350022
C5    C     C_R   0.351290 0.502601 0.525374 0.825091
C6    C     C_R   0.648644 0.497948 0.474728 0.818352
C7    C     C_R   0.267702 0.510999 0.539543 -0.109789
C8    C     C_R   0.732179 0.491507 0.461226 -0.093885
C9    C     C_R   0.221000 0.448095 0.383079 -0.136644
C10   C     C_R   0.778613 0.568683 0.612650 -0.149755
C11   C     C_R   0.142251 0.466536 0.387610 -0.133302
C12   C     C_R   0.857475 0.551707 0.611648 -0.167531
C13   C     C_R   0.108352 0.547298 0.549197 0.032892
C14   C     C_R   0.891825 0.457700 0.458483 0.045470
C15   C     C_R   0.155071 0.612891 0.707875 0.469006
C16   C     C_R   0.844974 0.376476 0.305725 0.404755
C17   C     C_R   0.234745 0.592275 0.701801 -0.259558
C18   C     C_R   0.765249 0.396823 0.307627 -0.254378
C19   C     C_2   0.024561 0.563887 0.547096 -0.132693
C20   C     C_2   0.975958 0.443034 0.463011 -0.131821
Cu1   Cu    Cu3+1 0.508700 0.517250 0.683000 0.972724
Cu2   Cu    Cu3+1 0.491300 0.482750 0.317000 0.973412
H1    H     H_    0.245529 0.386231 0.255681 0.178772
H2    H     H_    0.753661 0.640528 0.733739 0.173851
H3    H     H_    0.728369 0.334061 0.193265 0.193749
H4    H     H_    0.271514 0.643927 0.821035 0.196166
H5    H     H_    0.998771 0.331233 0.395829 0.221155
H6    H     H_    0.002928 0.676731 0.614834 0.210230
H7    H     H_    0.891139 0.609258 0.733951 0.184664
H8    H     H_    0.107988 0.420220 0.262609 0.212715
H9    H     H_    0.489945 0.960526 0.287558 0.181837
H10   H     H_    0.510086 0.039475 0.712435 0.181754
H11   H     H_    0.439231 0.378722 0.957767 0.229514
H12   H     H_    0.560764 0.621289 0.042236 0.229254
N1    N     N_2   0.478180 0.456750 0.041980 -0.214721
N2    N     N_2   0.521820 0.543250 0.958020 -0.214904
O1    O     O_R   0.505650 0.286040 0.618880 -0.583603
O2    O     O_R   0.494350 0.713960 0.381120 -0.583488
O3    O     O_R   0.490960 0.256910 0.309800 -0.585831
O4    O     O_R   0.509040 0.743090 0.690200 -0.585996
O5    O     O_R   0.394600 0.516230 0.672450 -0.592262
O6    O     O_R   0.605400 0.483770 0.327550 -0.592035
O7    O     O_R   0.379910 0.487100 0.363380 -0.579891
O8    O     O_R   0.620090 0.512900 0.636620 -0.579816
S1    S     S_3+6 0.116421 0.723503 0.912991 0.007168
O9    O     O_2   0.174509 0.746700 0.069955 -0.292663
O10   O     O_2   0.096325 0.882258 0.882557 -0.249438
O11   O     O_3   0.035955 0.628535 0.966756 -0.546324
H13   H     H_    0.018805 0.695814 0.083419 0.390577
S2    S     S_3+6 0.883344 0.245791 0.114141 0.011085
O12   O     O_2   0.913697 0.106429 0.175841 -0.236518
O13   O     O_2   0.822085 0.186614 0.966232 -0.299173
O14   O     O_3   0.956509 0.338850 0.027129 -0.490576
H14   H     H_    0.931163 0.394755 0.941973 0.375698

loop_
_geom_bond_atom_site_label_1
_geom_bond_atom_site_label_2
_ccdc_geom_bond_type
S2    O13   D    
C15   C17   A    
Cu2   N1    S    
C20   H5    S    
C14   C20   S    
C12   H7    S    
C4    H10   S    
Cu1   O8    S    
C11   C13   A    
C2    O2    A    
C2    C4    S    
C19   C20   D    
C1    O1    A    
S1    O10   D    
S2    O12   D    
C5    O7    A    
Cu1   N2    S    
C6    O8    A    
O14   H14   S    
C3    H9    S    
C19   H6    S    
C9    C11   A    
Cu2   O6    S    
Cu1   O4    S    
C10   C12   A    
Cu1   O5    S    
C17   H4    S    
C6    C8    S    
C8    C10   A    
O11   H13   S    
H11   N1    S    
C12   C14   A    
H12   N2    S    
C13   C15   A    
C18   H3    S    
C14   C16   A    
S1    O9    D    
S2    O14   S    
C15   S1    S    
C3    C4    D    
Cu2   O2    S    
C2    O4    A    
Cu1   O1    S    
C7    C9    A    
C6    O6    A    
S1    O11   S    
C1    C3    S    
C5    C7    S    
C1    O3    A    
C9    H1    S    
C13   C19   S    
C5    O5    A    
C10   H2    S    
Cu1   Cu2   S    
Cu2   O3    S    
C16   C18   A    
C8    C18   A    
Cu2   O7    S    
C11   H8    S    
C16   S2    S    
C7    C17   A    
N1    N2    D    
