data_mof_unit_25511.cif
_audit_creation_date              2012-12-10T20:11:22-0500
_audit_creation_method            fapswitch 2.2
_symmetry_space_group_name_H-M    P1
_symmetry_Int_Tables_number       1
_space_group_crystal_system       triclinic
_cell_length_a                    15.889416
_cell_length_b                    15.889182
_cell_length_c                    51.704915
_cell_angle_alpha                 90.001894
_cell_angle_beta                  90.004975
_cell_angle_gamma                 89.999487
_cell_volume                      13053.9306658

loop_
_atom_site_label
_atom_site_type_symbol
_atom_type_description
_atom_site_fract_x
_atom_site_fract_y
_atom_site_fract_z
_atom_type_partial_charge
C1    C     C_R   0.076651 0.505305 0.636042 -0.196415
C2    C     C_R   0.064384 0.458374 0.363122 -0.185458
C3    C     C_R   0.493404 0.076535 0.636056 -0.196117
C4    C     C_R   0.541266 0.064701 0.363127 -0.185445
C5    C     C_R   0.923170 0.494625 0.636066 -0.177306
C6    C     C_R   0.935622 0.542186 0.363069 -0.165786
C7    C     C_R   0.506970 0.923295 0.636086 -0.177032
C8    C     C_R   0.458540 0.935237 0.363094 -0.165966
C9    C     C_R   0.576644 0.005003 0.136033 -0.196453
C10   C     C_R   0.564310 0.958347 0.863128 -0.185459
C11   C     C_R   0.993643 0.576553 0.136054 -0.196128
C12   C     C_R   0.041356 0.564684 0.863121 -0.185428
C13   C     C_R   0.423123 0.994879 0.136067 -0.177376
C14   C     C_R   0.435646 0.042310 0.863058 -0.165759
C15   C     C_R   0.006900 0.423279 0.136085 -0.177095
C16   C     C_R   0.958571 0.435259 0.863099 -0.165955
C17   C     C_R   0.499914 0.000310 0.985884 -0.078994
C18   C     C_R   0.499910 0.000238 0.013274 -0.076180
C19   C     C_R   0.000244 0.500058 0.985902 -0.079006
C20   C     C_R   0.000305 0.500051 0.013292 -0.076399
C21   C     C_R   0.000061 0.500277 0.485887 -0.079048
C22   C     C_R   0.000044 0.500216 0.513277 -0.076268
C23   C     C_R   0.500101 0.000030 0.485901 -0.078979
C24   C     C_R   0.500154 0.000027 0.513291 -0.076425
C25   C     C_R   0.469191 0.848937 0.986148 0.333012
C26   C     C_R   0.546901 0.147327 0.013025 0.329197
C27   C     C_R   0.152003 0.471282 0.986178 0.332875
C28   C     C_R   0.852630 0.545162 0.013032 0.326468
C29   C     C_R   0.530875 0.151644 0.986229 0.330599
C30   C     C_R   0.453148 0.853067 0.012945 0.323373
C31   C     C_R   0.848532 0.529153 0.986233 0.329514
C32   C     C_R   0.148093 0.455262 0.012981 0.326211
C33   C     C_R   0.969629 0.348848 0.486158 0.332763
C34   C     C_R   0.046801 0.647375 0.513024 0.329220
C35   C     C_R   0.651878 0.971336 0.486181 0.332871
C36   C     C_R   0.352449 0.045036 0.513027 0.326180
C37   C     C_R   0.030788 0.651659 0.486227 0.330664
C38   C     C_R   0.953562 0.352959 0.512953 0.323366
C39   C     C_R   0.348369 0.029030 0.486228 0.329338
C40   C     C_R   0.647969 0.955328 0.512985 0.326199
C41   C     C_R   0.076953 0.500147 0.608708 0.392190
C42   C     C_R   0.067134 0.462218 0.390433 0.399666
C43   C     C_R   0.498771 0.076941 0.608729 0.392020
C44   C     C_R   0.537456 0.067419 0.390439 0.402003
C45   C     C_R   0.922721 0.499945 0.608732 0.321276
C46   C     C_R   0.932766 0.538585 0.390385 0.329483
C47   C     C_R   0.501625 0.922737 0.608755 0.321568
C48   C     C_R   0.462336 0.932360 0.390407 0.326767
C49   C     C_R   0.576906 0.999885 0.108698 0.392074
C50   C     C_R   0.567025 0.962185 0.890440 0.399669
C51   C     C_R   0.999034 0.576948 0.108727 0.391929
C52   C     C_R   0.037585 0.567406 0.890434 0.401971
C53   C     C_R   0.422672 0.000162 0.108732 0.321326
C54   C     C_R   0.432758 0.038733 0.890374 0.329517
C55   C     C_R   0.001627 0.422736 0.108753 0.321571
C56   C     C_R   0.962395 0.432386 0.890412 0.326807
C57   C     C_R   0.999811 0.500124 0.595079 0.024639
C58   C     C_R   0.999911 0.500415 0.404083 0.016485
C59   C     C_R   0.500163 0.999813 0.595097 0.024372
C60   C     C_R   0.499934 0.999840 0.404097 0.016565
C61   C     C_R   0.499753 0.000102 0.095075 0.024725
C62   C     C_R   0.499835 0.000474 0.904081 0.016483
C63   C     C_R   0.000316 0.499816 0.095096 0.024442
C64   C     C_R   0.000043 0.499849 0.904097 0.016536
C65   C     C_R   0.000002 0.500000 0.820253 0.826338
C66   C     C_R   0.000037 0.499992 0.179546 0.829324
C67   C     C_R   0.500001 0.000026 0.820249 0.826251
C68   C     C_R   0.499988 0.999983 0.179541 0.829317
C69   C     C_R   0.499996 0.999999 0.320253 0.826342
C70   C     C_R   0.500028 0.999992 0.679547 0.829318
C71   C     C_R   0.000002 0.500020 0.320250 0.826257
C72   C     C_R   0.999990 0.499987 0.679542 0.829325
C73   C     C_R   0.839708 0.660286 0.750001 0.858625
C74   C     C_R   0.160279 0.339704 0.250004 0.857072
C75   C     C_R   0.339716 0.839708 0.750001 0.858626
C76   C     C_R   0.660294 0.160279 0.250005 0.856997
C77   C     C_R   0.160290 0.339715 0.750001 0.858776
C78   C     C_R   0.839723 0.660296 0.250004 0.857152
C79   C     C_R   0.660286 0.160291 0.750001 0.858772
C80   C     C_R   0.339703 0.839722 0.250004 0.857330
C81   C     C_R   0.839716 0.339708 0.250001 0.858627
C82   C     C_R   0.160294 0.660279 0.750004 0.856982
C83   C     C_R   0.339708 0.160286 0.250001 0.858624
C84   C     C_R   0.660279 0.839704 0.750004 0.857073
C85   C     C_R   0.160286 0.660291 0.250001 0.858772
C86   C     C_R   0.839703 0.339722 0.750004 0.857322
C87   C     C_R   0.660290 0.839715 0.250001 0.858771
C88   C     C_R   0.339723 0.160296 0.750004 0.857139
C89   C     C_R   0.999941 0.499987 0.650240 -0.210314
C90   C     C_R   0.999994 0.500169 0.349203 -0.203305
C91   C     C_R   0.500110 0.999945 0.650252 -0.210396
C92   C     C_R   0.499948 0.999978 0.349212 -0.203544
C93   C     C_R   0.499924 0.999970 0.150237 -0.210291
C94   C     C_R   0.499980 0.000205 0.849201 -0.203263
C95   C     C_R   0.000164 0.499945 0.150251 -0.210359
C96   C     C_R   0.999988 0.499981 0.849212 -0.203521
C97   C     C_1   0.776597 0.276620 0.750005 -0.127009
C98   C     C_1   0.223387 0.723403 0.250005 -0.127297
C99   C     C_1   0.723382 0.776598 0.750006 -0.127190
C100  C     C_1   0.276596 0.223386 0.250004 -0.127646
C101  C     C_1   0.223401 0.723382 0.750006 -0.127357
C102  C     C_1   0.776615 0.276595 0.250004 -0.127854
C103  C     C_1   0.276620 0.223403 0.750005 -0.127049
C104  C     C_1   0.723403 0.776614 0.250005 -0.127517
C105  C     C_1   0.776620 0.723403 0.250005 -0.127067
C106  C     C_1   0.223403 0.276614 0.750005 -0.127504
C107  C     C_1   0.723401 0.223382 0.250006 -0.127369
C108  C     C_1   0.276615 0.776595 0.750004 -0.127844
C109  C     C_1   0.223382 0.276598 0.250006 -0.127196
C110  C     C_1   0.776596 0.723386 0.750004 -0.127638
C111  C     C_1   0.276597 0.776620 0.250005 -0.127014
C112  C     C_1   0.723387 0.223403 0.750005 -0.127292
C113  C     C_R   0.522149 0.071985 0.944909 0.758914
C114  C     C_R   0.484425 0.926808 0.054249 0.756678
C115  C     C_R   0.928320 0.521415 0.944921 0.756501
C116  C     C_R   0.073895 0.485582 0.054278 0.757025
C117  C     C_R   0.477593 0.928837 0.944879 0.670942
C118  C     C_R   0.515290 0.073510 0.054282 0.673772
C119  C     C_R   0.071985 0.478570 0.944902 0.672880
C120  C     C_R   0.926776 0.514351 0.054288 0.672891
C121  C     C_R   0.022162 0.571970 0.444908 0.758911
C122  C     C_R   0.984664 0.426780 0.554255 0.756553
C123  C     C_R   0.428175 0.021341 0.444918 0.756487
C124  C     C_R   0.573749 0.985628 0.554279 0.756931
C125  C     C_R   0.977854 0.428744 0.444886 0.670824
C126  C     C_R   0.015248 0.573539 0.554282 0.673815
C127  C     C_R   0.571867 0.978586 0.444904 0.672867
C128  C     C_R   0.426609 0.014287 0.554287 0.673044
C129  C     C_R   0.483199 0.924751 0.972174 -0.175112
C130  C     C_R   0.522136 0.074335 0.026987 -0.176787
C131  C     C_R   0.076009 0.484283 0.972198 -0.174743
C132  C     C_R   0.925909 0.521274 0.026997 -0.177107
C133  C     C_R   0.516663 0.075934 0.972211 -0.167399
C134  C     C_R   0.477711 0.926060 0.026949 -0.170255
C135  C     C_R   0.924423 0.515875 0.972222 -0.167474
C136  C     C_R   0.074766 0.478859 0.026977 -0.170220
C137  C     C_R   0.983485 0.424682 0.472181 -0.175236
C138  C     C_R   0.022128 0.574357 0.526988 -0.176737
C139  C     C_R   0.575880 0.984298 0.472199 -0.174728
C140  C     C_R   0.425741 0.021201 0.526995 -0.177041
C141  C     C_R   0.016686 0.575922 0.472211 -0.167396
C142  C     C_R   0.977973 0.426005 0.526955 -0.170386
C143  C     C_R   0.424273 0.015799 0.472220 -0.167555
C144  C     C_R   0.574626 0.978890 0.526978 -0.170233
N1    N     N_R   0.499744 0.000477 0.931988 -0.323292
N2    N     N_R   0.499707 0.000161 0.067171 -0.320440
N3    N     N_R   0.000080 0.499830 0.932006 -0.323323
N4    N     N_R   0.000314 0.499796 0.067190 -0.320478
N5    N     N_R   0.999860 0.500421 0.431991 -0.323305
N6    N     N_R   0.999788 0.500170 0.567175 -0.320436
N7    N     N_R   0.499955 0.999808 0.432005 -0.323305
N8    N     N_R   0.500157 0.999789 0.567191 -0.320487
O1    O     O_3   1.000000 0.500000 0.750000 -0.495609
O2    O     O_3   0.000000 0.500000 0.250000 -0.495682
O3    O     O_3   0.500000 0.000000 0.750000 -0.495696
O4    O     O_3   0.500000 1.000000 0.250000 -0.495596
O5    O     O_R   1.000000 0.430630 0.807650 -0.635401
O6    O     O_R   1.000000 0.569370 0.192350 -0.641811
O7    O     O_R   0.569370 0.000000 0.807650 -0.634147
O8    O     O_R   0.430630 1.000000 0.192350 -0.642856
O9    O     O_R   1.000000 0.569370 0.807650 -0.634412
O10   O     O_R   1.000000 0.430630 0.192350 -0.642664
O11   O     O_R   0.430630 0.000000 0.807650 -0.635363
O12   O     O_R   0.569370 1.000000 0.192350 -0.641879
O13   O     O_R   0.500000 0.930630 0.307650 -0.635410
O14   O     O_R   0.500000 0.069370 0.692350 -0.641785
O15   O     O_R   0.069370 0.500000 0.307650 -0.634162
O16   O     O_R   0.930630 0.500000 0.692350 -0.642826
O17   O     O_R   0.500000 0.069370 0.307650 -0.634425
O18   O     O_R   0.500000 0.930630 0.692350 -0.642648
O19   O     O_R   0.930630 0.500000 0.307650 -0.635386
O20   O     O_R   0.069370 0.500000 0.692350 -0.641865
O21   O     O_R   0.902350 0.666510 0.764820 -0.628447
O22   O     O_R   0.097650 0.333490 0.235180 -0.632418
O23   O     O_R   0.333490 0.902350 0.764820 -0.628673
O24   O     O_R   0.666510 0.097650 0.235180 -0.632361
O25   O     O_R   0.097650 0.333490 0.764820 -0.628592
O26   O     O_R   0.902350 0.666510 0.235180 -0.632310
O27   O     O_R   0.666510 0.097650 0.764820 -0.628407
O28   O     O_R   0.333490 0.902350 0.235180 -0.632251
O29   O     O_R   0.902350 0.333490 0.235180 -0.631556
O30   O     O_R   0.097650 0.666510 0.764820 -0.630548
O31   O     O_R   0.333490 0.097650 0.235180 -0.631777
O32   O     O_R   0.666510 0.902350 0.764820 -0.630403
O33   O     O_R   0.097650 0.666510 0.235180 -0.631569
O34   O     O_R   0.902350 0.333490 0.764820 -0.630430
O35   O     O_R   0.666510 0.902350 0.235180 -0.631530
O36   O     O_R   0.333490 0.097650 0.764820 -0.630484
O37   O     O_R   0.402350 0.166510 0.264820 -0.628444
O38   O     O_R   0.597650 0.833490 0.735180 -0.632414
O39   O     O_R   0.833490 0.402350 0.264820 -0.628675
O40   O     O_R   0.166510 0.597650 0.735180 -0.632372
O41   O     O_R   0.597650 0.833490 0.264820 -0.628588
O42   O     O_R   0.402350 0.166510 0.735180 -0.632317
O43   O     O_R   0.166510 0.597650 0.264820 -0.628400
O44   O     O_R   0.833490 0.402350 0.735180 -0.632252
O45   O     O_R   0.402350 0.833490 0.735180 -0.631547
O46   O     O_R   0.597650 0.166510 0.264820 -0.630549
O47   O     O_R   0.833490 0.597650 0.735180 -0.631758
O48   O     O_R   0.166510 0.402350 0.264820 -0.630406
O49   O     O_R   0.597650 0.166510 0.735180 -0.631548
O50   O     O_R   0.402350 0.833490 0.264820 -0.630430
O51   O     O_R   0.166510 0.402350 0.735180 -0.631507
O52   O     O_R   0.833490 0.597650 0.264820 -0.630486
O53   O     O_2   0.552538 0.137397 0.931222 -0.432313
O54   O     O_2   0.479174 0.854850 0.067929 -0.442013
O55   O     O_2   0.862572 0.551054 0.931229 -0.435540
O56   O     O_2   0.145904 0.481379 0.067968 -0.442672
O57   O     O_2   0.447330 0.863413 0.931167 -0.451277
O58   O     O_2   0.520704 0.145402 0.067990 -0.458726
O59   O     O_2   0.137765 0.449078 0.931197 -0.448118
O60   O     O_2   0.854780 0.518693 0.067979 -0.457923
O61   O     O_2   0.052440 0.637422 0.431217 -0.432272
O62   O     O_2   0.979546 0.354817 0.567937 -0.442023
O63   O     O_2   0.362411 0.050931 0.431223 -0.435594
O64   O     O_2   0.645763 0.981489 0.567968 -0.442707
O65   O     O_2   0.947707 0.363254 0.431180 -0.451230
O66   O     O_2   0.020514 0.645454 0.567985 -0.458763
O67   O     O_2   0.637665 0.949130 0.431200 -0.448155
O68   O     O_2   0.354609 0.018586 0.567976 -0.457942
Zn1   Zn    Zn3+2 0.900880 0.500000 0.727850 1.004076
Zn2   Zn    Zn3+2 0.099120 0.500000 0.272150 1.010781
Zn3   Zn    Zn3+2 0.500000 0.900880 0.727850 1.004024
Zn4   Zn    Zn3+2 0.500000 0.099120 0.272150 1.010395
Zn5   Zn    Zn3+2 0.099120 0.500000 0.727850 1.004357
Zn6   Zn    Zn3+2 0.900880 0.500000 0.272150 1.009888
Zn7   Zn    Zn3+2 0.500000 0.099120 0.727850 1.004490
Zn8   Zn    Zn3+2 0.500000 0.900880 0.272150 1.010229
Zn9   Zn    Zn3+2 0.400880 1.000000 0.227850 1.004058
Zn10  Zn    Zn3+2 0.599120 1.000000 0.772150 1.010784
Zn11  Zn    Zn3+2 1.000000 0.400880 0.227850 1.004010
Zn12  Zn    Zn3+2 1.000000 0.599120 0.772150 1.010395
Zn13  Zn    Zn3+2 0.599120 1.000000 0.227850 1.004346
Zn14  Zn    Zn3+2 0.400880 1.000000 0.772150 1.009896
Zn15  Zn    Zn3+2 1.000000 0.599120 0.227850 1.004477
Zn16  Zn    Zn3+2 1.000000 0.400880 0.772150 1.010233
S1    S     S_3+6 0.489617 0.748457 0.971859 0.151007
O69   O     O_2   0.412838 0.718005 0.957673 -0.153485
O70   O     O_2   0.561654 0.755853 0.953157 -0.193125
O71   O     O_3   0.516184 0.677216 0.994472 -0.489015
H1    H     H_    0.528554 0.624982 0.984727 0.396128
S2    S     S_3+6 0.614178 0.224656 0.027309 0.159702
O72   O     O_2   0.562337 0.289228 0.041374 -0.155747
O73   O     O_2   0.672946 0.182846 0.046124 -0.208683
O74   O     O_3   0.672725 0.273067 0.004675 -0.456853
H2    H     H_    0.707927 0.313764 0.014352 0.406309
S3    S     S_3+6 0.252206 0.492910 0.971874 0.152511
O75   O     O_2   0.283543 0.416474 0.957697 -0.148330
O76   O     O_2   0.243923 0.564825 0.953162 -0.193908
O77   O     O_3   0.323169 0.520369 0.994470 -0.486256
H3    H     H_    0.375630 0.531946 0.984751 0.397498
S4    S     S_3+6 0.774497 0.611475 0.027323 0.161719
O78   O     O_2   0.710513 0.558794 0.041347 -0.153118
O79   O     O_2   0.815535 0.670648 0.046176 -0.201862
O80   O     O_3   0.725478 0.669571 0.004700 -0.469035
H4    H     H_    0.682486 0.702231 0.014277 0.409960
S5    S     S_3+6 0.510756 0.252272 0.971999 0.158508
O81   O     O_2   0.587626 0.282573 0.957835 -0.147657
O82   O     O_2   0.438694 0.245218 0.953290 -0.173794
O83   O     O_3   0.484400 0.323452 0.994654 -0.490696
H5    H     H_    0.472151 0.375773 0.984938 0.395820
S6    S     S_3+6 0.386095 0.775449 0.027173 0.168403
O84   O     O_2   0.438108 0.710946 0.041209 -0.151462
O85   O     O_2   0.327177 0.816967 0.046002 -0.184823
O86   O     O_3   0.327720 0.727005 0.004500 -0.469567
H6    H     H_    0.292101 0.686663 0.014170 0.408699
S7    S     S_3+6 0.748150 0.507979 0.971979 0.157695
O87   O     O_2   0.717070 0.584563 0.957823 -0.156514
O88   O     O_2   0.755987 0.436034 0.953260 -0.169838
O89   O     O_3   0.677202 0.480818 0.994609 -0.488255
H7    H     H_    0.624667 0.469352 0.984912 0.396523
S8    S     S_3+6 0.226660 0.389376 0.027241 0.165492
O90   O     O_2   0.290350 0.442364 0.041284 -0.156313
O91   O     O_2   0.185973 0.329887 0.046069 -0.189220
O92   O     O_3   0.276032 0.331664 0.004599 -0.460050
H8    H     H_    0.316909 0.296714 0.014289 0.406075
S9    S     S_3+6 0.990303 0.248407 0.471879 0.151163
O93   O     O_2   0.913596 0.217746 0.457699 -0.153952
O94   O     O_2   0.062315 0.255960 0.453173 -0.193100
O95   O     O_3   0.017062 0.177269 0.494501 -0.487344
H9    H     H_    0.029307 0.124980 0.484768 0.396807
S10   S     S_3+6 0.113984 0.724783 0.527309 0.159633
O96   O     O_2   0.062064 0.789315 0.541365 -0.155686
O97   O     O_2   0.172771 0.683047 0.546134 -0.208735
O98   O     O_3   0.172509 0.773231 0.504678 -0.457064
H10   H     H_    0.207660 0.813969 0.514356 0.406319
S11   S     S_3+6 0.752078 0.992977 0.471877 0.152510
O99   O     O_2   0.783419 0.916548 0.457697 -0.148326
O100  O     O_2   0.743784 0.064898 0.453168 -0.194002
O101  O     O_3   0.823049 0.020432 0.494471 -0.486380
H11   H     H_    0.875474 0.032131 0.484747 0.397711
S12   S     S_3+6 0.274279 0.111315 0.527314 0.161709
O102  O     O_2   0.210330 0.058646 0.541356 -0.151321
O103  O     O_2   0.315333 0.170539 0.546150 -0.203805
O104  O     O_3   0.225191 0.169331 0.504685 -0.468672
H12   H     H_    0.184075 0.204026 0.514366 0.409309
S13   S     S_3+6 0.010576 0.752259 0.471991 0.158446
O105  O     O_2   0.087421 0.782622 0.457826 -0.147897
O106  O     O_2   0.938522 0.745128 0.453282 -0.173748
O107  O     O_3   0.984152 0.823431 0.494640 -0.490735
H13   H     H_    0.971867 0.875737 0.484922 0.395944
S14   S     S_3+6 0.886642 0.275223 0.527177 0.168345
O108  O     O_2   0.938755 0.210810 0.541217 -0.151113
O109  O     O_2   0.827637 0.316640 0.546001 -0.184989
O110  O     O_3   0.828369 0.226678 0.504500 -0.469774
H14   H     H_    0.792572 0.186514 0.514178 0.408753
S15   S     S_3+6 0.248004 0.007804 0.471970 0.158071
O111  O     O_2   0.216908 0.084354 0.457800 -0.156101
O112  O     O_2   0.255887 0.935835 0.453261 -0.170085
O113  O     O_3   0.177045 0.980658 0.494598 -0.487878
H15   H     H_    0.124602 0.968872 0.484891 0.396677
S16   S     S_3+6 0.726561 0.889483 0.527250 0.165533
O114  O     O_2   0.790221 0.942504 0.541294 -0.156233
O115  O     O_2   0.685892 0.829983 0.546078 -0.189263
O116  O     O_3   0.775968 0.831785 0.504612 -0.460026
H16   H     H_    0.816795 0.796794 0.514308 0.406130
S17   S     S_3+6 0.175354 0.495066 0.591863 0.100347
O117  O     O_2   0.215007 0.580905 0.592614 -0.209072
O118  O     O_2   0.232545 0.433844 0.605377 -0.229990
O119  O     O_3   0.165937 0.464148 0.560896 -0.553000
H17   H     H_    0.220999 0.477035 0.552840 0.413781
S18   S     S_3+6 0.154969 0.417438 0.407141 0.103810
O120  O     O_2   0.145991 0.323297 0.406562 -0.209648
O121  O     O_2   0.234931 0.441275 0.393440 -0.227008
O122  O     O_3   0.162765 0.449632 0.438032 -0.547787
H18   H     H_    0.201306 0.408915 0.446404 0.412803
S19   S     S_3+6 0.502447 0.175427 0.591903 0.100951
O123  O     O_2   0.416006 0.213758 0.592594 -0.206785
O124  O     O_2   0.562670 0.233521 0.605478 -0.229156
O125  O     O_3   0.533762 0.166519 0.560960 -0.553126
H19   H     H_    0.520129 0.221399 0.552901 0.413588
S20   S     S_3+6 0.581397 0.155700 0.407136 0.098307
O126  O     O_2   0.675618 0.147630 0.406559 -0.212151
O127  O     O_2   0.556783 0.235413 0.393424 -0.232980
O128  O     O_3   0.549136 0.163220 0.438025 -0.551179
H20   H     H_    0.589293 0.202411 0.446368 0.411027
S21   S     S_3+6 0.824209 0.504507 0.591915 0.109377
O129  O     O_2   0.785374 0.418324 0.592342 -0.157712
O130  O     O_2   0.765850 0.564141 0.605652 -0.247374
O131  O     O_3   0.832588 0.536033 0.560971 -0.521328
H21   H     H_    0.835209 0.598273 0.561752 0.384194
S22   S     S_3+6 0.845118 0.583991 0.407038 0.106433
O132  O     O_2   0.854959 0.678006 0.406743 -0.160847
O133  O     O_2   0.764940 0.562007 0.393132 -0.252223
O134  O     O_3   0.836140 0.551983 0.437916 -0.521305
H22   H     H_    0.808947 0.495972 0.436954 0.383309
S23   S     S_3+6 0.498581 0.824149 0.591956 0.109101
O135  O     O_2   0.585369 0.786685 0.592359 -0.159341
O136  O     O_2   0.439943 0.764874 0.605726 -0.248316
O137  O     O_3   0.466783 0.832006 0.561025 -0.520627
H23   H     H_    0.404522 0.833863 0.561836 0.383331
S24   S     S_3+6 0.417912 0.844222 0.407065 0.111797
O138  O     O_2   0.323798 0.853055 0.406790 -0.157685
O139  O     O_2   0.440717 0.764301 0.393146 -0.246533
O140  O     O_3   0.450101 0.835553 0.437935 -0.518591
H24   H     H_    0.506413 0.808994 0.436957 0.386038
S25   S     S_3+6 0.675274 0.994577 0.091841 0.100428
O141  O     O_2   0.715149 0.080313 0.092603 -0.209114
O142  O     O_2   0.732325 0.933179 0.105336 -0.229896
O143  O     O_3   0.665746 0.963749 0.060868 -0.552731
H25   H     H_    0.720821 0.976542 0.052807 0.413904
S26   S     S_3+6 0.654772 0.917278 0.907159 0.103813
O144  O     O_2   0.645673 0.823151 0.906575 -0.209482
O145  O     O_2   0.734788 0.941020 0.893471 -0.227179
O146  O     O_3   0.662559 0.949442 0.938053 -0.547808
H26   H     H_    0.701261 0.908836 0.946406 0.413012
S27   S     S_3+6 0.002867 0.675430 0.091899 0.100944
O147  O     O_2   0.916494 0.713912 0.092598 -0.206795
O148  O     O_2   0.063203 0.733421 0.105468 -0.229129
O149  O     O_3   0.034134 0.666475 0.060953 -0.553178
H27   H     H_    0.020580 0.721377 0.052896 0.413648
S28   S     S_3+6 0.081603 0.655662 0.907125 0.098378
O150  O     O_2   0.175818 0.647531 0.906538 -0.212094
O151  O     O_2   0.057026 0.735390 0.893415 -0.232971
O152  O     O_3   0.049382 0.663209 0.938017 -0.551086
H28   H     H_    0.089589 0.702356 0.946358 0.411086
S29   S     S_3+6 0.324162 0.004972 0.091918 0.109383
O153  O     O_2   0.285075 0.918903 0.092369 -0.157719
O154  O     O_2   0.265988 0.064814 0.105644 -0.247412
O155  O     O_3   0.332603 0.036385 0.060965 -0.521401
H29   H     H_    0.335308 0.098624 0.061726 0.384238
S30   S     S_3+6 0.345160 0.084280 0.907016 0.106471
O156  O     O_2   0.355137 0.178281 0.906714 -0.160827
O157  O     O_2   0.264963 0.062399 0.893106 -0.252245
O158  O     O_3   0.336108 0.052317 0.937897 -0.521285
H30   H     H_    0.308815 0.996353 0.936938 0.383314
S31   S     S_3+6 0.998495 0.324154 0.091949 0.109124
O159  O     O_2   0.085236 0.286582 0.092367 -0.159272
O160  O     O_2   0.939754 0.264942 0.105702 -0.248332
O161  O     O_3   0.966778 0.332060 0.061010 -0.520636
H31   H     H_    0.904516 0.333957 0.061807 0.383342
S32   S     S_3+6 0.917944 0.344272 0.907075 0.111794
O162  O     O_2   0.823832 0.353135 0.906801 -0.157698
O163  O     O_2   0.940721 0.264337 0.893160 -0.246545
O164  O     O_3   0.950131 0.335609 0.937946 -0.518612
H32   H     H_    0.006419 0.309001 0.936969 0.386058
C145  C     C_1   0.156303 0.517974 0.649185 0.400221
N9    N     N_1   0.220016 0.528259 0.659586 -0.106582
C146  C     C_1   0.126213 0.408159 0.349409 0.380193
N10   N     N_1   0.175448 0.367966 0.338466 -0.126952
C147  C     C_1   0.478960 0.155889 0.649195 0.400515
N11   N     N_1   0.467255 0.219357 0.659594 -0.106557
C148  C     C_1   0.590971 0.126940 0.349416 0.380920
N12   N     N_1   0.630761 0.176506 0.338474 -0.128130
C149  C     C_1   0.843645 0.481495 0.649233 0.399811
N13   N     N_1   0.780038 0.470833 0.659656 -0.106431
C150  C     C_1   0.874050 0.592524 0.349287 0.379506
N14   N     N_1   0.825030 0.632817 0.338285 -0.128671
C151  C     C_1   0.521810 0.844080 0.649261 0.398881
N15   N     N_1   0.533842 0.780730 0.659693 -0.107173
C152  C     C_1   0.408617 0.873261 0.349340 0.379761
N16   N     N_1   0.368652 0.823915 0.338362 -0.126667
C153  C     C_1   0.656357 0.017304 0.149173 0.400260
N17   N     N_1   0.720120 0.027293 0.159572 -0.106513
C154  C     C_1   0.626107 0.908076 0.849421 0.380141
N18   N     N_1   0.675318 0.867840 0.838482 -0.126974
C155  C     C_1   0.979393 0.655949 0.149190 0.400569
N19   N     N_1   0.967846 0.719453 0.159586 -0.106507
C156  C     C_1   0.091075 0.626897 0.849403 0.380878
N20   N     N_1   0.130875 0.676442 0.838456 -0.128159
C157  C     C_1   0.343551 0.982097 0.149240 0.399891
N21   N     N_1   0.279907 0.971714 0.159667 -0.106376
C158  C     C_1   0.374151 0.092714 0.849267 0.379433
N22   N     N_1   0.325192 0.133059 0.838257 -0.128754
C159  C     C_1   0.021520 0.344025 0.149261 0.398905
N23   N     N_1   0.033375 0.280640 0.159693 -0.107114
C160  C     C_1   0.908612 0.373298 0.849351 0.379748
N24   N     N_1   0.868619 0.323964 0.838377 -0.126676

loop_
_geom_bond_atom_site_label_1
_geom_bond_atom_site_label_2
_ccdc_geom_bond_type
C29   C133  A    
C160  N24   T    
S25   O141  D    
S13   O106  D    
C159  N23   T    
S18   O121  D    
C19   C20   A    
C9    C153  S    
S31   O161  S    
C42   C58   A    
S21   O129  D    
C5    C149  S    
C24   C140  A    
C45   C57   A    
S10   O96   D    
S30   O156  D    
C127  C139  A    
C72   O20   A    
O1    Zn5   S    
S18   O122  S    
C10   C94   A    
S28   O150  D    
C2    C90   A    
S29   O155  S    
C35   C139  A    
C65   C96   S    
C33   C137  A    
S8    O90   D    
C79   O49   A    
C62   N1    S    
C67   C94   S    
S2    O73   D    
S11   O100  D    
O1    Zn12  S    
C8    C92   A    
C21   C137  A    
C69   C92   S    
O10   Zn11  S    
C26   C130  A    
O4    Zn8   S    
C100  C109  T    
C113  C133  A    
C21   C22   A    
C23   C143  A    
C20   C132  A    
C104  C105  T    
S14   O109  D    
C68   O12   A    
C37   S13   S    
C38   S14   S    
S2    O74   S    
C1    C145  S    
O125  H19   S    
O131  H21   S    
S32   O163  D    
C50   S26   S    
C97   C112  T    
S22   O132  D    
C85   O43   A    
C99   C110  T    
C10   C154  S    
O13   Zn8   S    
C29   S5    S    
C30   S6    S    
C60   N7    S    
C121  O61   S    
O42   Zn7   S    
O2    Zn2   S    
S17   O119  S    
C61   N2    S    
C27   S3    S    
O20   Zn5   S    
O140  H24   S    
C25   S1    S    
S24   O138  D    
C83   O31   A    
O95   H9    S    
C54   S30   S    
O35   Zn13  S    
C125  N5    A    
O30   Zn12  S    
O33   Zn15  S    
C74   O48   A    
C120  N4    A    
C76   C107  S    
C83   C100  S    
C34   S10   S    
C17   C133  A    
C35   S11   S    
C18   C130  A    
S31   O159  D    
O51   Zn5   S    
S21   O131  S    
O107  H13   S    
C42   S18   S    
S3    O77   S    
O49   Zn7   S    
C40   S16   S    
S22   O134  S    
O50   Zn8   S    
O152  H28   S    
C33   C38   A    
S28   O152  S    
S12   O103  D    
C35   C40   A    
O48   Zn2   S    
O11   Zn14  S    
O146  H26   S    
C2    C146  S    
S8    O92   S    
C121  N5    A    
S27   O149  S    
O137  H23   S    
C41   C57   A    
O128  H20   S    
C65   O9    A    
C67   O7    A    
S5    O82   D    
C151  N15   T    
C68   O8    A    
C4    C148  S    
C19   C135  A    
C5    C89   A    
C126  O66   S    
C15   C55   A    
O155  H29   S    
C120  O60   S    
C157  N21   T    
O2    Zn11  S    
C148  N12   T    
O3    Zn3   S    
C70   C91   S    
O16   Zn1   S    
O149  H27   S    
C73   C110  S    
O3    Zn7   S    
C117  N1    A    
C77   C106  S    
C24   C144  A    
C74   O22   A    
C55   S31   S    
S7    O89   S    
S26   O144  D    
C146  N10   T    
S24   O140  S    
S16   O114  D    
S5    O81   D    
C86   C97   S    
C81   O39   A    
C51   S27   S    
C86   O44   A    
C53   C61   A    
C128  N8    A    
O14   Zn7   S    
C30   C134  A    
C55   C63   A    
C119  C131  A    
C23   C24   A    
C56   C64   A    
C117  C129  A    
C128  O68   S    
C43   C59   A    
C71   O15   A    
S1    O69   D    
C46   C58   A    
C72   O16   A    
O143  H25   S    
O34   Zn16  S    
C85   O33   A    
C45   S21   S    
O28   Zn9   S    
C16   C96   A    
C31   S7    S    
C84   O32   A    
C9    C49   A    
S20   O126  D    
C87   O41   A    
S19   O124  D    
C87   O35   A    
C14   C158  S    
C6    C90   A    
C47   C59   A    
C34   C138  A    
C77   O25   A    
O18   Zn3   S    
O1    Zn16  S    
C28   C132  A    
C113  O53   S    
C16   C56   A    
O15   Zn2   S    
O24   Zn13  S    
O19   Zn6   S    
C22   C142  A    
C17   C18   A    
C114  C134  A    
C102  C107  T    
C69   O17   A    
C20   C136  A    
C116  O56   S    
S4    O80   S    
O40   Zn5   S    
C71   O19   A    
C15   C159  S    
O89   H7    S    
C36   C39   A    
O83   H5    S    
O45   Zn3   S    
S7    O87   D    
S6    O84   D    
C116  N4    A    
C82   O30   A    
C119  O59   S    
S16   O116  S    
O4    Zn4   S    
S5    O83   S    
C117  O57   S    
C128  C140  A    
C145  N9    T    
S23   O137  S    
C126  N6    A    
C71   C90   S    
C115  C135  A    
C2    C42   A    
O71   H1    S    
S28   O151  D    
C18   C134  A    
C69   O13   A    
S29   O154  D    
C67   O11   A    
O116  H16   S    
C11   C95   A    
S10   O98   S    
S8    O91   D    
S1    O71   S    
C66   C95   S    
C53   S29   S    
O74   H2    S    
C153  N17   T    
C123  O63   S    
C34   C37   A    
O92   H8    S    
C7    C151  S    
S20   O128  S    
C66   O6    A    
S6    O86   S    
O37   Zn4   S    
C127  O67   S    
C59   N8    S    
C37   C141  A    
C79   C112  S    
O2    Zn6   S    
C122  N6    A    
C15   C95   A    
S22   O133  D    
O17   Zn4   S    
C119  N3    A    
C115  N3    A    
C66   O10   A    
C3    C91   A    
O101  H11   S    
C113  N1    A    
S17   O118  D    
C43   S19   S    
C12   C52   A    
C13   C157  S    
C80   O50   A    
C156  N20   T    
S24   O139  D    
O2    Zn15  S    
C1    C89   A    
O31   Zn9   S    
O44   Zn1   S    
C101  C108  T    
C75   O45   A    
S18   O120  D    
C75   C108  S    
S25   O142  D    
C77   O51   A    
S21   O130  D    
C147  N11   T    
O25   Zn16  S    
C13   C53   A    
S3    O76   D    
C123  N7    A    
C49   C61   A    
C75   O23   A    
S15   O111  D    
C121  C141  A    
C76   O24   A    
C51   C63   A    
C65   O5    A    
C52   C64   A    
O104  H12   S    
C32   C136  A    
C4    C44   A    
S30   O158  S    
S31   O160  D    
O77   H3    S    
C5    C45   A    
C122  O62   S    
C13   C93   A    
C46   S22   S    
C7    C47   A    
O46   Zn4   S    
C28   S4    S    
O1    Zn1   S    
O98   H10   S    
C118  C130  A    
O21   Zn12  S    
S11   O99   D    
S14   O110  S    
C41   S17   S    
C7    C91   A    
S2    O72   D    
S11   O101  S    
S27   O148  D    
C31   C135  A    
C86   O34   A    
O39   Zn6   S    
C32   S8    S    
O52   Zn6   S    
C10   C50   A    
S23   O135  D    
O36   Zn14  S    
S4    O79   D    
O158  H30   S    
C25   C30   A    
C44   S20   S    
O113  H15   S    
C82   O40   A    
C27   C32   A    
C78   O26   A    
C84   C99   S    
S10   O97   D    
C83   O37   A    
C28   C31   A    
S20   O127  D    
S32   O162  D    
O43   Zn2   S    
O164  H32   S    
O5    Zn16  S    
O161  H31   S    
C116  C136  A    
C54   C62   A    
C22   C138  A    
O3    Zn10  S    
O3    Zn14  S    
C125  C137  A    
S4    O78   D    
C70   O18   A    
C21   C141  A    
S19   O123  D    
C76   O46   A    
O38   Zn3   S    
S7    O88   D    
S26   O145  D    
C44   C60   A    
C80   C111  S    
S16   O115  D    
O122  H18   S    
O32   Zn10  S    
C87   C104  S    
O110  H14   S    
C152  N16   T    
O8    Zn9   S    
C12   C96   A    
C14   C94   A    
C4    C92   A    
S26   O146  S    
C125  O65   S    
C115  O55   S    
C27   C131  A    
S13   O105  D    
S27   O147  D    
C81   O29   A    
C25   C129  A    
C74   C109  S    
C8    C48   A    
C155  N19   T    
C33   S9    S    
S15   O113  S    
C3    C43   A    
C78   C105  S    
C6    C150  S    
C80   O28   A    
C23   C139  A    
S12   O102  D    
C78   O52   A    
C3    C147  S    
C70   O14   A    
O26   Zn15  S    
S1    O70   D    
C85   C98   S    
C48   S24   S    
O4    Zn9   S    
C150  N14   T    
C84   O38   A    
O47   Zn1   S    
O86   H6    S    
C58   N5    S    
C127  N7    A    
C124  N8    A    
O22   Zn11  S    
C12   C156  S    
C38   C142  A    
C16   C160  S    
C47   S23   S    
S32   O164  S    
C48   C60   A    
C81   C102  S    
C19   C131  A    
C17   C129  A    
O7    Zn10  S    
C88   O42   A    
C118  N2    A    
C114  N2    A    
C158  N22   T    
S6    O85   D    
C114  O54   S    
S15   O112  D    
C39   S15   S    
O6    Zn15  S    
S23   O136  D    
O9    Zn12  S    
C154  N18   T    
O4    Zn13  S    
O23   Zn14  S    
C57   N6    S    
O27   Zn10  S    
C36   C140  A    
S29   O153  D    
C14   C54   A    
C39   C143  A    
S9    O94   D    
C64   N3    S    
C50   C62   A    
S13   O107  S    
S9    O95   S    
C122  C142  A    
O80   H4    S    
C9    C93   A    
C63   N4    S    
C11   C155  S    
C88   C103  S    
C124  O64   S    
C1    C41   A    
C36   S12   S    
C8    C152  S    
S14   O108  D    
C126  C138  A    
S30   O157  D    
C98   C111  T    
C6    C46   A    
O12   Zn13  S    
C120  C132  A    
S12   O104  S    
O41   Zn8   S    
S19   O125  S    
S3    O75   D    
C26   S2    S    
S25   O143  S    
C68   C93   S    
C40   C144  A    
C118  O58   S    
O119  H17   S    
C49   S25   S    
C72   C89   S    
O29   Zn11  S    
C73   O47   A    
C56   S32   S    
C82   C101  S    
C103  C106  T    
C149  N13   T    
C52   S28   S    
C73   O21   A    
S17   O117  D    
C11   C51   A    
C88   O36   A    
C79   O27   A    
C26   C29   A    
C123  C143  A    
C124  C144  A    
O134  H22   S    
S9    O93   D    
