data_mof_unit_52239.cif
_audit_creation_date              2012-10-26T20:17:38-0400
_audit_creation_method            fapswitch 2.2
_symmetry_space_group_name_H-M    P1
_symmetry_Int_Tables_number       1
_space_group_crystal_system       triclinic
_cell_length_a                    27.849854
_cell_length_b                    8.789492
_cell_length_c                    7.683146
_cell_angle_alpha                 104.205576
_cell_angle_beta                  98.654658
_cell_angle_gamma                 103.622731
_cell_volume                      1728.0862484

loop_
_atom_site_label
_atom_site_type_symbol
_atom_type_description
_atom_site_fract_x
_atom_site_fract_y
_atom_site_fract_z
_atom_type_partial_charge
C1    C     C_R   0.498270 0.198749 0.451259 0.523829
C2    C     C_R   0.857175 0.384612 0.363926 0.015125
C3    C     C_R   0.353926 0.496780 0.481637 0.003872
C4    C     C_R   0.646074 0.503228 0.518361 0.003850
C5    C     C_R   0.960034 0.400435 0.346630 0.002025
C6    C     C_R   0.039963 0.599595 0.653265 0.002027
C7    C     C_R   0.988477 0.587094 0.662985 0.019349
C8    C     C_R   0.011520 0.412908 0.336917 0.019352
C9    C     C_R   0.948777 0.489478 0.508296 0.029929
C10   C     C_R   0.051220 0.510537 0.491606 0.029925
C11   C     C_R   0.919159 0.298308 0.200714 -0.144972
C12   C     C_R   0.501730 0.801251 0.548740 0.523826
C13   C     C_R   0.080837 0.701747 0.799178 -0.144985
C14   C     C_R   0.868724 0.288678 0.207209 -0.014440
C15   C     C_R   0.131271 0.711349 0.792701 -0.014486
C16   C     C_R   0.407299 0.498220 0.493871 0.525222
C17   C     C_R   0.592701 0.501780 0.506129 0.525223
C18   C     C_R   0.024947 0.332307 0.176012 -0.145857
C19   C     C_R   0.975052 0.667641 0.823905 -0.145879
C20   C     C_2   0.497753 0.029476 0.426646 -0.144667
C21   C     C_2   0.502247 0.970523 0.573354 -0.144664
C22   C     C_R   0.164040 0.427225 0.321281 0.387304
C23   C     C_R   0.102655 0.518495 0.484249 -0.040864
C24   C     C_R   0.835960 0.572755 0.678665 0.387378
C25   C     C_R   0.192881 0.609849 0.625614 0.379284
C26   C     C_R   0.807117 0.390204 0.374307 0.379286
C27   C     C_R   0.278212 0.549659 0.337031 -0.092292
C28   C     C_R   0.721791 0.450352 0.662934 -0.092178
C29   C     C_R   0.328110 0.543753 0.341364 -0.163709
C30   C     C_R   0.671893 0.456262 0.658622 -0.163697
C31   C     C_R   0.328674 0.451703 0.614150 -0.164670
C32   C     C_R   0.671323 0.548296 0.385841 -0.164691
C33   C     C_R   0.278537 0.453033 0.606579 -0.071575
C34   C     C_R   0.897342 0.481513 0.515666 -0.040884
C35   C     C_R   0.721461 0.546979 0.393403 -0.071577
C36   C     C_R   0.253135 0.504788 0.470209 0.225511
C37   C     C_R   0.746864 0.495225 0.529757 0.225534
C38   C     C_R   0.440983 0.308824 0.939140 0.197310
C39   C     C_R   0.412464 0.219648 0.042032 -0.076066
C40   C     C_R   0.370661 0.080770 0.967038 -0.160263
C41   C     C_R   0.353347 0.017306 0.779802 -0.100292
C42   C     C_R   0.377699 0.094642 0.669150 -0.182930
C43   C     C_R   0.419274 0.234665 0.745706 -0.088436
C44   C     C_R   0.559019 0.691168 0.060858 0.197313
C45   C     C_R   0.113878 0.427828 0.324631 0.017481
C46   C     C_R   0.587540 0.780338 0.957965 -0.076062
C47   C     C_R   0.629351 0.919189 0.032956 -0.160309
C48   C     C_R   0.646672 0.982636 0.220190 -0.100333
C49   C     C_R   0.622314 0.905320 0.330845 -0.182922
C50   C     C_R   0.580730 0.765324 0.254292 -0.088434
C51   C     C_R   0.829578 0.175271 0.045337 0.080823
C52   C     C_R   0.799056 0.027494 0.056837 -0.016225
C53   C     C_R   0.761184 0.923671 0.905150 -0.053007
C54   C     C_R   0.754185 0.965256 0.740630 -0.096148
C55   C     C_R   0.785193 0.110249 0.727059 -0.118555
C56   C     C_R   0.886120 0.572153 0.675298 0.017464
C57   C     C_R   0.822866 0.214916 0.878742 -0.075042
C58   C     C_R   0.170411 0.824639 0.954638 0.080765
C59   C     C_R   0.177167 0.784691 0.121014 -0.074999
C60   C     C_R   0.214822 0.889270 0.272786 -0.118656
C61   C     C_R   0.245772 0.034464 0.259514 -0.096309
C62   C     C_R   0.238737 0.076327 0.095197 -0.053003
C63   C     C_R   0.200880 0.972593 0.943424 -0.016295
C64   C     C_R   0.074877 0.338315 0.171174 -0.123293
C65   C     C_R   0.925122 0.661629 0.828757 -0.123293
C66   C     C_R   0.142821 0.615412 0.635991 0.015157
Cu1   Cu    Cu3+1 0.505380 0.517380 0.684380 0.899167
Cu2   Cu    Cu3+1 0.494620 0.482620 0.315620 0.899168
H1    H     H_    0.740721 0.409164 0.768499 0.153904
H2    H     H_    0.351686 0.021718 0.056468 0.121717
H3    H     H_    0.321138 0.909692 0.720814 0.170432
H4    H     H_    0.363885 0.046618 0.521001 0.100460
H5    H     H_    0.428798 0.270294 0.634974 0.181670
H6    H     H_    0.580675 0.754717 0.815412 0.177449
H7    H     H_    0.648328 0.978233 0.943524 0.121704
H8    H     H_    0.678888 0.090228 0.279175 0.170380
H9    H     H_    0.636131 0.953337 0.478993 0.100460
H10   H     H_    0.571201 0.729709 0.365025 0.181669
H11   H     H_    0.259563 0.415976 0.708903 0.143299
H12   H     H_    0.259283 0.590836 0.231446 0.153841
H13   H     H_    0.740432 0.584039 0.291080 0.143351
H14   H     H_    0.082737 0.271505 0.045222 0.162712
H15   H     H_    0.917262 0.728397 0.954722 0.162738
H16   H     H_    0.653110 0.420058 0.761765 0.140145
H17   H     H_    0.346895 0.579962 0.238223 0.140147
H18   H     H_    0.804045 0.994582 0.183959 0.108071
H19   H     H_    0.737202 0.811176 0.915249 0.125065
H20   H     H_    0.724749 0.885274 0.623715 0.108259
H21   H     H_    0.779844 0.141962 0.599368 0.119114
H22   H     H_    0.846463 0.327454 0.867419 0.122088
H23   H     H_    0.924867 0.220019 0.078678 0.113562
H24   H     H_    0.153615 0.671994 0.132098 0.122233
H25   H     H_    0.220202 0.857338 0.400317 0.119275
H26   H     H_    0.275192 0.114387 0.376505 0.108281
H27   H     H_    0.262675 0.188972 0.085328 0.125290
H28   H     H_    0.195857 0.005733 0.816472 0.108208
H29   H     H_    0.493773 0.953325 0.287565 0.147697
H30   H     H_    0.506227 0.046674 0.712435 0.147701
H31   H     H_    0.075127 0.780062 0.921206 0.113578
H32   H     H_    0.997949 0.263293 0.049287 0.110880
H33   H     H_    0.002050 0.736600 0.950628 0.110897
H34   H     H_    0.347532 0.414645 0.723553 0.135580
H35   H     H_    0.652463 0.585343 0.276442 0.135593
H36   H     H_    0.419325 0.245285 0.184586 0.177445
N1    N     N_R   0.202268 0.515428 0.471173 -0.394564
N2    N     N_R   0.797731 0.484581 0.528772 -0.394537
N3    N     N_2   0.486510 0.456430 0.038510 -0.144126
N4    N     N_2   0.513490 0.543570 0.961490 -0.144126
O1    O     O_R   0.503500 0.286120 0.619780 -0.519184
O2    O     O_2   0.825653 0.663812 0.829637 -0.526767
O3    O     O_2   0.767914 0.303921 0.231110 -0.530532
O4    O     O_2   0.232088 0.696232 0.768773 -0.530522
O5    O     O_R   0.496500 0.713880 0.380220 -0.519188
O6    O     O_R   0.494410 0.256780 0.308360 -0.514977
O7    O     O_R   0.505590 0.743220 0.691640 -0.514979
O8    O     O_R   0.434810 0.514700 0.655690 -0.513479
O9    O     O_R   0.565190 0.485300 0.344310 -0.513474
O10   O     O_R   0.425720 0.485350 0.344280 -0.531524
O11   O     O_R   0.574280 0.514650 0.655720 -0.531525
O12   O     O_2   0.174348 0.336151 0.170318 -0.526928

loop_
_geom_bond_atom_site_label_1
_geom_bond_atom_site_label_2
_ccdc_geom_bond_type
C43   H5    S    
C34   C56   A    
C23   C45   A    
C27   C29   A    
C41   C42   A    
C48   H8    S    
C28   H1    S    
C26   N2    A    
C35   H13   S    
C25   N1    A    
C39   H36   S    
C53   C54   A    
C22   O12   S    
C40   H2    S    
C23   C66   A    
C35   C37   A    
C5    C11   A    
C38   C39   A    
C11   C14   A    
Cu1   N4    S    
C65   H15   S    
C56   C65   A    
C16   O8    A    
C33   C36   A    
C38   N3    S    
C3    C29   A    
Cu1   O7    S    
C25   O4    S    
Cu2   O10   S    
C46   C47   A    
Cu1   O1    S    
C20   H29   S    
C47   C48   A    
C28   C30   A    
N3    N4    D    
C31   C33   A    
C51   C57   A    
Cu2   N3    S    
C29   H17   S    
C17   O9    A    
Cu2   O5    S    
C41   H3    S    
C12   O7    A    
C1    O1    A    
C60   H25   S    
C2    C34   A    
C59   C60   A    
C62   H27   S    
C18   H32   S    
C50   H10   S    
C44   C46   A    
C44   N4    S    
C57   H22   S    
C51   C52   A    
C31   H34   S    
C24   O2    S    
C53   H19   S    
C27   H12   S    
C39   C40   A    
C61   H26   S    
C33   H11   S    
C58   C59   A    
C15   C66   A    
C63   H28   S    
C8    C18   A    
Cu1   Cu2   S    
C60   C61   A    
C13   H31   S    
Cu1   O8    S    
C32   C35   A    
C5    C9    A    
C62   C63   A    
C16   O10   A    
Cu2   O9    S    
C14   C51   S    
C42   H4    S    
C32   H35   S    
C2    C26   A    
C3    C31   A    
C64   H14   S    
C4    C32   A    
C4    C17   S    
C48   C49   A    
C7    C19   A    
C13   C15   A    
C9    C34   A    
C10   C23   A    
C15   C58   S    
C24   N2    A    
C1    O6    A    
C46   H6    S    
C52   C53   A    
C12   O5    A    
C44   C50   A    
C58   C63   A    
C7    C9    A    
C54   C55   A    
C40   C41   A    
C1    C20   S    
C36   N1    S    
C25   C66   A    
C6    C10   A    
C5    C8    A    
C6    C7    A    
C27   C36   A    
C24   C56   A    
C22   N1    A    
C45   C64   A    
C55   C57   A    
C47   H7    S    
C38   C43   A    
C55   H21   S    
C6    C13   A    
C54   H20   S    
C21   H30   S    
C19   H33   S    
C18   C64   A    
C28   C37   A    
C12   C21   S    
C52   H18   S    
C49   H9    S    
C19   C65   A    
C59   H24   S    
C30   H16   S    
C61   C62   A    
C2    C14   A    
C17   O11   A    
C11   H23   S    
C37   N2    S    
C22   C45   A    
C20   C21   D    
C8    C10   A    
C49   C50   A    
C42   C43   A    
Cu1   O11   S    
C26   O3    S    
C4    C30   A    
C3    C16   S    
Cu2   O6    S    
