data_mof_unit_58311.cif
_audit_creation_date              2012-12-10T17:18:58-0500
_audit_creation_method            fapswitch 2.2
_symmetry_space_group_name_H-M    P1
_symmetry_Int_Tables_number       1
_space_group_crystal_system       triclinic
_cell_length_a                    10.180764
_cell_length_b                    10.83492
_cell_length_c                    13.627968
_cell_angle_alpha                 92.042725
_cell_angle_beta                  100.512435
_cell_angle_gamma                 95.959463
_cell_volume                      1467.75874786

loop_
_atom_site_label
_atom_site_type_symbol
_atom_type_description
_atom_site_fract_x
_atom_site_fract_y
_atom_site_fract_z
_atom_type_partial_charge
C1    C     C_R   0.052123 0.732125 0.491059 0.946688
C2    C     C_R   0.945575 0.267427 0.503906 0.949757
C3    C     C_R   0.494577 0.654080 0.106090 -0.261505
C4    C     C_R   0.575135 0.529822 0.869861 -0.267266
C5    C     C_R   0.363034 0.680444 0.075312 -0.194367
C6    C     C_R   0.704920 0.499768 0.900336 -0.216318
C7    C     C_2   0.078111 0.863214 0.477774 -0.377891
C8    C     C_2   0.910813 0.134607 0.498007 -0.386049
C9    C     C_2   0.975547 0.931439 0.472977 -0.148596
C10   C     C_2   0.998484 0.063453 0.470216 -0.150701
C11   C     C_2   0.430919 0.511249 0.508518 -0.137920
C12   C     C_2   0.569097 0.488513 0.491742 -0.138085
C13   C     C_R   0.094999 0.516382 0.685798 0.903545
C14   C     C_R   0.906425 0.488152 0.314053 0.900512
C15   C     C_R   0.153370 0.548765 0.790679 -0.123080
C16   C     C_R   0.860196 0.492527 0.206495 -0.123315
C17   C     C_R   0.155654 0.659848 0.950016 0.556755
C18   C     C_R   0.885414 0.454176 0.033566 0.582049
C19   C     C_R   0.087224 0.613874 0.853800 -0.233081
C20   C     C_R   0.935691 0.453660 0.137451 -0.288704
C21   C     C_R   0.286029 0.527879 0.822653 -0.284957
C22   C     C_R   0.738940 0.539267 0.173967 -0.270435
C23   C     C_R   0.359878 0.579973 0.913072 0.015917
C24   C     C_R   0.688511 0.547456 0.072799 0.022697
C25   C     C_R   0.292242 0.640394 0.979844 0.036909
C26   C     C_R   0.760809 0.501297 0.002047 0.057914
C27   C     C_R   0.498276 0.566534 0.940205 0.114374
C28   C     C_R   0.561625 0.590502 0.040809 0.104254
H1    H     H_    0.316124 0.729539 0.127820 0.195926
H2    H     H_    0.758681 0.470108 0.843615 0.199599
H3    H     H_    0.681682 0.564348 0.229249 0.172989
H4    H     H_    0.330795 0.468942 0.775586 0.175732
H5    H     H_    0.031602 0.421361 0.165725 0.156440
H6    H     H_    0.983019 0.627281 0.828149 0.158805
H7    H     H_    0.542968 0.687911 0.180715 0.151373
H8    H     H_    0.537621 0.525754 0.790242 0.149848
H9    H     H_    0.092760 0.102508 0.450979 0.187959
H10   H     H_    0.874484 0.891049 0.477346 0.188451
H11   H     H_    0.816826 0.095127 0.517284 0.150270
H12   H     H_    0.178943 0.904038 0.473489 0.149326
H13   H     H_    0.578268 0.414912 0.438117 0.165161
H14   H     H_    0.421759 0.584679 0.562306 0.162161
H15   H     H_    0.665128 0.622754 0.589568 0.156818
H16   H     H_    0.334883 0.377296 0.410399 0.158059
N1    N     N_2   0.322180 0.446120 0.460900 -0.191120
N2    N     N_2   0.677820 0.553880 0.539100 -0.194849
O1    O     O_R   0.935190 0.693030 0.507870 -0.613765
O2    O     O_R   0.064810 0.306970 0.492130 -0.611286
O3    O     O_R   0.142080 0.658430 0.482770 -0.607256
O4    O     O_R   0.857920 0.341570 0.517230 -0.606739
O5    O     O_R   0.969700 0.527180 0.651960 -0.609572
O6    O     O_R   0.030300 0.472820 0.348040 -0.610634
O7    O     O_R   0.176600 0.492580 0.626860 -0.614038
O8    O     O_R   0.823400 0.507420 0.373140 -0.617748
Zn1   Zn    Zn3+2 0.861850 0.523100 0.516760 0.930886
Zn2   Zn    Zn3+2 0.138150 0.476900 0.483240 0.934810
O9    O     O_3   0.091328 0.715226 0.019173 -0.617883
C29   C     C_3   0.000641 0.796192 0.974604 -0.340664
H17   H     H_    0.902266 0.743412 0.941276 0.180107
H18   H     H_    0.041588 0.853174 0.918266 0.150179
H19   H     H_    0.982246 0.861492 0.033885 0.198596
O10   O     O_3   0.952072 0.412473 0.959689 -0.627642
C30   C     C_3   0.053546 0.336725 0.994213 -0.330336
H20   H     H_    0.015950 0.259290 0.036914 0.154437
H21   H     H_    0.143461 0.393370 0.038572 0.178321
H22   H     H_    0.085596 0.294368 0.928384 0.198180

loop_
_geom_bond_atom_site_label_1
_geom_bond_atom_site_label_2
_ccdc_geom_bond_type
N2    Zn1   S    
C11   C12   S    
C30   H21   S    
C12   H13   S    
C8    H11   S    
C23   C27   A    
O3    Zn2   S    
C24   C28   A    
C9    C10   S    
C17   C19   A    
C5    H1    S    
O4    Zn1   S    
C18   C26   A    
C13   C15   S    
C3    H7    S    
C16   C20   A    
C17   C25   A    
C29   H19   S    
C4    H8    S    
C30   H22   S    
C6    C26   A    
C23   C25   A    
C15   C19   A    
O9    C29   S    
O10   C30   S    
C11   H14   S    
C10   H9    S    
C5    C25   A    
C20   H5    S    
C8    C10   D    
C3    C28   A    
C14   O8    A    
C24   C26   A    
C13   O7    A    
C21   C23   A    
C14   C16   S    
C21   H4    S    
C22   C24   A    
H15   N2    S    
C4    C6    A    
C11   N1    D    
C22   H3    S    
C29   H18   S    
C30   H20   S    
C9    H10   S    
C7    C9    D    
C15   C21   A    
C4    C27   A    
H16   N1    S    
C18   C20   A    
C12   N2    D    
O7    Zn2   S    
C2    C8    S    
C27   C28   A    
O2    Zn2   S    
O1    Zn1   S    
C18   O10   S    
O8    Zn1   S    
C1    O1    A    
C1    C7    S    
C16   C22   A    
C2    O4    A    
O5    Zn1   S    
C2    O2    A    
C29   H17   S    
C13   O5    A    
C7    H12   S    
C1    O3    A    
C6    H2    S    
C14   O6    A    
O6    Zn2   S    
N1    Zn2   S    
C17   O9    S    
C3    C5    A    
C19   H6    S    
