data_mof_unit_55220.cif
_audit_creation_date              2012-12-10T19:11:32-0500
_audit_creation_method            fapswitch 2.2
_symmetry_space_group_name_H-M    P1
_symmetry_Int_Tables_number       1
_space_group_crystal_system       triclinic
_cell_length_a                    7.784044
_cell_length_b                    9.115324
_cell_length_c                    17.295501
_cell_angle_alpha                 89.96328
_cell_angle_beta                  88.099824
_cell_angle_gamma                 89.915536
_cell_volume                      1226.51005464

loop_
_atom_site_label
_atom_site_type_symbol
_atom_type_description
_atom_site_fract_x
_atom_site_fract_y
_atom_site_fract_z
_atom_type_partial_charge
C1    C     C_R   0.499921 0.780008 0.500014 0.841142
C2    C     C_R   0.500075 0.219993 0.500021 0.843169
C3    C     C_1   0.499890 0.934674 0.500028 -0.186200
C4    C     C_1   0.500101 0.065329 0.500031 -0.186867
C5    C     C_R   0.481372 0.498407 0.650272 0.834040
C6    C     C_R   0.518790 0.502235 0.349690 0.836689
C7    C     C_R   0.482019 0.483905 0.734170 -0.143781
C8    C     C_R   0.520743 0.508907 0.265401 -0.130608
C9    C     C_R   0.625424 0.532763 0.773402 -0.315464
C10   C     C_R   0.374103 0.557334 0.227935 -0.301448
C11   C     C_R   0.635932 0.511765 0.853117 0.424086
C12   C     C_R   0.374723 0.568109 0.147344 0.398170
C13   C     C_R   0.507326 0.428949 0.891999 -0.055588
C14   C     C_R   0.518817 0.518160 0.104387 -0.038002
C15   C     C_R   0.367248 0.371609 0.852388 0.423071
C16   C     C_R   0.661326 0.458227 0.141034 0.409661
C17   C     C_R   0.351517 0.406825 0.773757 -0.300004
C18   C     C_R   0.664954 0.462079 0.222049 -0.332808
C19   C     C_2   0.515158 0.410434 0.975766 -0.078494
C20   C     C_2   0.517705 0.529604 0.020398 -0.060811
Cu1   Cu    Cu3+1 0.330920 0.500000 0.500000 0.986842
Cu2   Cu    Cu3+1 0.669080 0.500000 0.500000 0.988963
H1    H     H_    0.729704 0.587222 0.741934 0.165914
H2    H     H_    0.258227 0.585126 0.261170 0.168449
H3    H     H_    0.777990 0.424141 0.251002 0.166925
H4    H     H_    0.241484 0.369710 0.742652 0.159789
H5    H     H_    0.505975 0.638290 0.995101 0.125482
H6    H     H_    0.511058 0.301065 0.000715 0.137048
N1    N     N_1   0.923170 0.500000 0.500010 -0.056249
N2    N     N_1   0.076830 0.500000 0.499990 -0.056520
O1    O     O_R   0.357240 0.711600 0.500000 -0.579735
O2    O     O_R   0.642760 0.288400 0.500000 -0.578614
O3    O     O_R   0.642760 0.711600 0.500000 -0.579364
O4    O     O_R   0.357240 0.288400 0.500000 -0.579457
O5    O     O_R   0.340660 0.500000 0.613590 -0.588929
O6    O     O_R   0.659340 0.500000 0.386410 -0.586692
O7    O     O_R   0.626230 0.500000 0.613600 -0.588909
O8    O     O_R   0.373770 0.500000 0.386400 -0.591480
O9    O     O_3   0.239505 0.295832 0.893869 -0.599333
C21   C     C_3   0.189587 0.165520 0.855866 0.061243
H7    H     H_    0.199373 0.072848 0.897280 0.146547
H8    H     H_    0.274555 0.134117 0.805317 0.084598
C22   C     C_3   0.003264 0.178240 0.830418 -0.331905
H9    H     H_    0.985279 0.281407 0.797455 0.229352
H10   H     H_    0.974437 0.085196 0.791557 0.155640
C23   C     C_3   0.875860 0.175819 0.899298 -0.767393
H11   H     H_    0.891467 0.073823 0.933551 0.205661
H12   H     H_    0.742744 0.179028 0.878270 0.220126
H13   H     H_    0.895878 0.272874 0.936659 0.315848
O10   O     O_3   0.799945 0.405970 0.096576 -0.580660
C24   C     C_3   0.844802 0.261528 0.118887 0.060873
H14   H     H_    0.832987 0.189167 0.067929 0.159526
H15   H     H_    0.757919 0.211655 0.164328 0.094153
C25   C     C_3   0.029580 0.258704 0.146771 -0.355531
H16   H     H_    0.053286 0.356881 0.182918 0.243073
H17   H     H_    0.048831 0.160611 0.183526 0.164563
C26   C     C_3   0.160378 0.253963 0.079298 -0.688319
H18   H     H_    0.145052 0.152128 0.045069 0.215824
H19   H     H_    0.291912 0.254974 0.102092 0.210648
H20   H     H_    0.143782 0.350387 0.041066 0.324721
O11   O     O_3   0.224489 0.595631 0.109253 -0.607938
C27   C     C_3   0.159685 0.737538 0.124907 0.027353
H21   H     H_    0.216912 0.814943 0.081590 0.141104
H22   H     H_    0.187521 0.779586 0.183634 0.126356
C28   C     C_3   0.964986 0.731427 0.117185 -0.249763
H23   H     H_    0.933993 0.674914 0.062476 0.268380
H24   H     H_    0.909187 0.667743 0.166522 0.231052
C29   C     C_3   0.883506 0.882810 0.117214 -1.028185
H25   H     H_    0.903828 0.937915 0.173309 0.263939
H26   H     H_    0.743088 0.872522 0.109116 0.255637
H27   H     H_    0.940168 0.948700 0.068895 0.251459
O12   O     O_3   0.779255 0.556086 0.893052 -0.570673
C30   C     C_3   0.819590 0.706054 0.880077 0.069301
H28   H     H_    0.813015 0.764028 0.936595 0.153441
H29   H     H_    0.727876 0.765931 0.843130 0.076972
C31   C     C_3   0.001555 0.719309 0.844256 -0.354708
H30   H     H_    0.018539 0.640183 0.795722 0.226064
H31   H     H_    0.020099 0.831478 0.820501 0.161492
C32   C     C_3   0.138481 0.691224 0.903658 -0.749051
H32   H     H_    0.131999 0.777515 0.948868 0.216130
H33   H     H_    0.267897 0.694978 0.874761 0.214904
H34   H     H_    0.119844 0.582014 0.931144 0.314066

loop_
_geom_bond_atom_site_label_1
_geom_bond_atom_site_label_2
_ccdc_geom_bond_type
Cu2   N1    S    
C5    O7    A    
C30   H28   S    
C19   C20   D    
C31   C32   S    
C1    O3    A    
Cu1   O1    S    
C23   H13   S    
C27   H21   S    
Cu2   O2    S    
C17   H4    S    
C2    O2    A    
C31   H31   S    
C26   H19   S    
C1    O1    A    
C7    C9    A    
C27   H22   S    
C25   H16   S    
C21   C22   S    
Cu1   O8    S    
C29   H25   S    
C28   H24   S    
C6    O8    A    
C2    O4    A    
C21   H8    S    
Cu1   Cu2   S    
C30   H29   S    
C18   H3    S    
C23   H12   S    
C25   H17   S    
C13   C19   S    
C24   H14   S    
C14   C20   S    
C31   H30   S    
O9    C21   S    
C5    C7    S    
C11   O12   S    
C9    H1    S    
C26   H20   S    
C6    C8    S    
Cu1   O4    S    
C10   H2    S    
Cu2   O7    S    
C8    C18   A    
C1    C3    S    
C2    C4    S    
C22   H9    S    
N1    N2    T    
C9    C11   A    
C28   C29   S    
O10   C24   S    
C19   H6    S    
C22   H10   S    
C15   O9    S    
C10   C12   A    
C8    C10   A    
C21   H7    S    
C12   C14   A    
C13   C15   A    
C30   C31   S    
C14   C16   A    
C3    C4    T    
C32   H33   S    
C15   C17   A    
Cu2   O3    S    
C23   H11   S    
C27   C28   S    
C16   O10   S    
O12   C30   S    
C7    C17   A    
C32   H34   S    
Cu1   O5    S    
C20   H5    S    
Cu2   O6    S    
Cu1   N2    S    
C24   C25   S    
C12   O11   S    
C11   C13   A    
C26   H18   S    
C29   H27   S    
C5    O5    A    
C6    O6    A    
O11   C27   S    
C22   C23   S    
C32   H32   S    
C16   C18   A    
C28   H23   S    
C29   H26   S    
C24   H15   S    
C25   C26   S    
