data_mof_unit_11639.cif
_audit_creation_date              2012-10-26T19:02:36-0400
_audit_creation_method            fapswitch 2.2
_symmetry_space_group_name_H-M    P1
_symmetry_Int_Tables_number       1
_space_group_crystal_system       triclinic
_cell_length_a                    17.253037
_cell_length_b                    8.718597
_cell_length_c                    7.410988
_cell_angle_alpha                 102.474963
_cell_angle_beta                  90.521646
_cell_angle_gamma                 93.211978
_cell_volume                      1086.49125862

loop_
_atom_site_label
_atom_site_type_symbol
_atom_type_description
_atom_site_fract_x
_atom_site_fract_y
_atom_site_fract_z
_atom_type_partial_charge
C1    C     C_R   0.496451 0.200143 0.455380 0.573765
C2    C     C_R   0.781668 0.597832 0.612043 0.099261
C3    C     C_R   0.138378 0.401418 0.404447 -0.080899
C4    C     C_R   0.861621 0.598584 0.595552 -0.080899
C5    C     C_R   0.104749 0.479181 0.567440 0.026615
C6    C     C_R   0.895251 0.520821 0.432560 0.026615
C7    C     C_R   0.152124 0.549548 0.721672 0.117508
C8    C     C_R   0.847876 0.450454 0.278328 0.117507
C9    C     C_R   0.232565 0.550628 0.706273 -0.100559
C10   C     C_R   0.767435 0.449373 0.293727 -0.100559
C11   C     C_2   0.020318 0.488405 0.573103 -0.100584
C12   C     C_R   0.503548 0.799856 0.544620 0.573765
C13   C     C_2   0.979682 0.511598 0.426898 -0.100584
C14   C     C_2   0.483339 0.034934 0.438272 0.045831
C15   C     C_2   0.516661 0.965066 0.561728 0.045832
C16   C     C_R   0.350879 0.494445 0.524396 0.561457
C17   C     C_R   0.649121 0.505555 0.475604 0.561457
C18   C     C_R   0.266366 0.481595 0.538883 0.001987
C19   C     C_R   0.733634 0.518406 0.461117 0.001987
C20   C     C_R   0.218331 0.402169 0.387957 0.099261
Cu1   Cu    Cu3+1 0.508700 0.517250 0.683000 1.060023
Cu2   Cu    Cu3+1 0.491300 0.482750 0.317000 1.060023
H1    H     H_    0.731367 0.390342 0.175972 0.178175
H2    H     H_    0.268633 0.609658 0.824028 0.178175
H3    H     H_    0.008710 0.521373 0.300245 0.180021
H4    H     H_    0.991290 0.478630 0.699755 0.180021
H5    H     H_    0.897832 0.660327 0.711712 0.165650
H6    H     H_    0.102168 0.339676 0.288288 0.165650
H7    H     H_    0.439506 0.378462 0.957613 0.260670
H8    H     H_    0.560494 0.621538 0.042386 0.260670
I1    I     I_    0.257692 0.273987 0.130058 -0.260153
I2    I     I_    0.742308 0.726014 0.869942 -0.260154
I3    I     I_    0.106739 0.665365 0.977282 -0.315626
I4    I     I_    0.893261 0.334637 0.022718 -0.315626
I5    I     I_    0.396534 0.927005 0.232632 -0.220739
I6    I     I_    0.603466 0.072995 0.767368 -0.220738
N1    N     N_2   0.478180 0.456750 0.041980 -0.236769
N2    N     N_2   0.521820 0.543250 0.958020 -0.236769
O1    O     O_R   0.505650 0.286040 0.618880 -0.502258
O2    O     O_R   0.494350 0.713960 0.381120 -0.502258
O3    O     O_R   0.490960 0.256910 0.309800 -0.470065
O4    O     O_R   0.509040 0.743090 0.690200 -0.470065
O5    O     O_R   0.394600 0.516230 0.672450 -0.516991
O6    O     O_R   0.605400 0.483770 0.327550 -0.516991
O7    O     O_R   0.379910 0.487100 0.363380 -0.466320
O8    O     O_R   0.620090 0.512900 0.636620 -0.466319

loop_
_geom_bond_atom_site_label_1
_geom_bond_atom_site_label_2
_ccdc_geom_bond_type
C16   O7    A    
C12   O2    A    
C2    C4    A    
C9    H2    S    
N1    N2    D    
C10   H1    S    
C7    I3    S    
C15   I6    S    
Cu1   O1    S    
C12   C15   S    
C10   C19   A    
Cu2   O2    S    
Cu2   O7    S    
C17   O6    A    
C3    C20   A    
C8    I4    S    
Cu1   Cu2   S    
C6    C13   S    
C11   C13   D    
C16   O5    A    
C13   H3    S    
C12   O4    A    
C2    I2    S    
C3    H6    S    
C17   C19   S    
C5    C11   S    
C18   C20   A    
Cu2   O3    S    
C1    O1    A    
H7    N1    S    
Cu1   O4    S    
Cu1   O8    S    
C7    C9    A    
C9    C18   A    
C4    H5    S    
C17   O8    A    
H8    N2    S    
C16   C18   S    
C4    C6    A    
C1    O3    A    
C14   I5    S    
C5    C7    A    
C14   C15   D    
C6    C8    A    
C1    C14   S    
C11   H4    S    
C2    C19   A    
Cu1   O5    S    
Cu2   N1    S    
C8    C10   A    
Cu2   O6    S    
Cu1   N2    S    
C3    C5    A    
C20   I1    S    
