data_mof_unit_40628.cif
_audit_creation_date              2012-10-26T18:33:36-0400
_audit_creation_method            fapswitch 2.2
_symmetry_space_group_name_H-M    P1
_symmetry_Int_Tables_number       1
_space_group_crystal_system       triclinic
_cell_length_a                    15.134758
_cell_length_b                    13.942025
_cell_length_c                    10.912291
_cell_angle_alpha                 89.048336
_cell_angle_beta                  85.834485
_cell_angle_gamma                 90.085289
_cell_volume                      2296.18577065

loop_
_atom_site_label
_atom_site_type_symbol
_atom_type_description
_atom_site_fract_x
_atom_site_fract_y
_atom_site_fract_z
_atom_type_partial_charge
C1    C     C_R   0.329536 0.499958 0.504715 0.514191
C2    C     C_R   0.035079 0.420871 0.715060 0.269485
C3    C     C_R   0.089706 0.462647 0.616658 0.028116
C4    C     C_R   0.498384 0.500855 0.260430 0.608556
C5    C     C_R   0.049076 0.501690 0.513436 -0.026697
C6    C     C_R   0.101468 0.541468 0.411740 0.029823
C7    C     C_R   0.060830 0.585279 0.313074 0.100086
C8    C     C_R   0.969354 0.591280 0.317255 0.012277
C9    C     C_R   0.183257 0.469501 0.617861 0.113255
C10   C     C_R   0.233586 0.500222 0.510975 -0.001094
C11   C     C_R   0.193254 0.536265 0.410281 -0.143384
C12   C     C_3   0.591235 0.476552 0.917692 0.450619
C13   C     C_R   0.440453 0.793078 0.578172 0.240041
C14   C     C_R   0.435221 0.205217 0.567662 0.247853
C15   C     C_R   0.555850 0.796273 0.419512 0.209341
C16   C     C_R   0.566174 0.205915 0.435111 0.218090
C17   C     C_R   0.563593 0.897963 0.427073 0.010759
C18   C     C_R   0.565662 0.103648 0.429369 0.014143
C19   C     C_R   0.671744 0.499842 0.499514 0.655876
C20   C     C_R   0.504254 0.948353 0.508392 -0.050443
C21   C     C_R   0.503788 0.051485 0.507563 -0.043609
C22   C     C_R   0.443499 0.895611 0.587455 0.010078
C23   C     C_R   0.823350 0.557002 0.418884 0.199439
C24   C     C_R   0.440896 0.102494 0.583701 -0.021446
C25   C     C_R   0.627765 0.951165 0.352285 0.141515
C26   C     C_R   0.627347 0.051428 0.350654 0.139966
C27   C     C_R   0.386904 0.048412 0.672681 0.133120
C28   C     C_R   0.387808 0.947602 0.674051 0.158952
C29   C     C_R   0.494831 0.499498 0.740001 0.604067
C30   C     C_3   0.454950 0.598240 0.073333 -0.042072
C31   C     C_3   0.438441 0.415795 0.081023 -0.031868
C32   C     C_3   0.462477 0.600095 0.929670 -0.071732
C33   C     C_3   0.425418 0.426149 0.941061 -0.055103
C34   C     C_R   0.770006 0.499273 0.501962 0.033491
C35   C     C_3   0.594137 0.493087 0.060542 0.376752
C36   C     C_3   0.496075 0.502040 0.122325 0.031770
C37   C     C_3   0.495289 0.499600 0.878135 0.017061
C38   C     C_R   0.811947 0.439777 0.586415 0.247345
C39   C     C_R   0.902869 0.452967 0.604048 -0.013037
C40   C     C_R   0.955997 0.501573 0.511189 -0.072573
C41   C     C_R   0.915995 0.550038 0.415098 0.012840
C42   C     C_R   0.942497 0.418162 0.709663 0.298544
Cl1   Cl    Cl    0.078997 0.364117 0.844133 -0.470469
Cl2   Cl    Cl    0.656809 0.598283 0.092482 -0.466911
Cl3   Cl    Cl    0.657342 0.401034 0.130444 -0.450731
Cl4   Cl    Cl    0.674777 0.545138 0.827260 -0.396400
Cl5   Cl    Cl    0.620129 0.355187 0.877122 -0.378735
Cl6   Cl    Cl    0.776307 0.635505 0.314952 -0.542153
Cl7   Cl    Cl    0.757435 0.335385 0.646612 -0.422710
Cl8   Cl    Cl    0.877386 0.386027 0.846120 -0.269894
Cu1   Cu    Cu3+1 0.499990 0.597420 0.500010 0.990547
Cu2   Cu    Cu3+1 0.499990 0.402580 0.500010 1.050213
H1    H     H_    0.491624 0.660525 0.105577 0.166454
H2    H     H_    0.148803 0.572111 0.164850 0.269993
H3    H     H_    0.319648 0.730507 0.571371 0.252536
H4    H     H_    0.381901 0.683482 0.685077 0.274861
H5    H     H_    0.353295 0.262477 0.703062 0.233360
H6    H     H_    0.301484 0.221487 0.578303 0.220591
H7    H     H_    0.542415 0.746749 0.251855 0.234064
H8    H     H_    0.615528 0.685212 0.333448 0.354569
H9    H     H_    0.686454 0.267945 0.439028 0.294762
H10   H     H_    0.618599 0.317760 0.335289 0.325847
H11   H     H_    0.675995 0.877223 0.201269 0.290724
H12   H     H_    0.474905 0.348410 0.099654 0.174567
H13   H     H_    0.729433 0.854404 0.333797 0.296452
H14   H     H_    0.739393 0.130961 0.305542 0.287166
H15   H     H_    0.656249 0.143081 0.204298 0.287861
H16   H     H_    0.279811 0.125166 0.743834 0.246899
H17   H     H_    0.376826 0.137734 0.819641 0.238639
H18   H     H_    0.371397 0.851729 0.818186 0.244044
H19   H     H_    0.278755 0.869166 0.736173 0.265412
H20   H     H_    0.338348 0.674153 0.084222 0.223036
H21   H     H_    0.359750 0.619081 0.214615 0.249059
H22   H     H_    0.312623 0.358663 0.110171 0.245883
H23   H     H_    0.234798 0.561846 0.331786 0.127409
H24   H     H_    0.358155 0.384143 0.238826 0.257276
H25   H     H_    0.573611 0.689881 0.924392 0.307980
H26   H     H_    0.479330 0.744794 0.897038 0.216691
H27   H     H_    0.464081 0.282371 0.921822 0.278457
H28   H     H_    0.358788 0.303984 0.902310 0.215809
H29   H     H_    0.941008 0.626433 0.240256 0.225786
H30   H     H_    0.394962 0.611455 0.897263 0.148288
H31   H     H_    0.358783 0.458423 0.931025 0.184053
H32   H     H_    0.259244 0.518547 0.749122 0.210762
H33   H     H_    0.273800 0.401282 0.716303 0.255742
H34   H     H_    0.152571 0.679321 0.237257 0.233611
N1    N     N_R   0.499930 0.743810 0.499950 -0.225386
N2    N     N_3   0.689306 0.096702 0.261658 -0.538246
N3    N     N_3   0.336461 0.092026 0.773219 -0.582270
N4    N     N_3   0.333780 0.901135 0.771395 -0.563959
N5    N     N_3   0.362079 0.609759 0.119727 -0.614229
N6    N     N_3   0.351127 0.410368 0.149959 -0.598124
N7    N     N_3   0.515680 0.682150 0.879794 -0.568511
N8    N     N_3   0.422501 0.332053 0.882817 -0.612245
N9    N     N_R   0.499930 0.256190 0.499950 -0.195557
N10   N     N_3   0.226613 0.455083 0.729316 -0.552724
N11   N     N_3   0.110640 0.626036 0.207919 -0.602072
N12   N     N_3   0.365125 0.744361 0.636358 -0.656166
N13   N     N_3   0.357199 0.255687 0.608621 -0.570850
N14   N     N_3   0.592848 0.752294 0.311382 -0.585352
N15   N     N_3   0.639616 0.255613 0.375683 -0.610081
N16   N     N_3   0.699181 0.906176 0.280619 -0.532998
O1    O     O_R   0.370250 0.582280 0.500040 -0.547436
O2    O     O_R   0.370250 0.417720 0.500040 -0.480433
O3    O     O_R   0.499970 0.582270 0.317700 -0.535101
O4    O     O_R   0.499970 0.417730 0.317700 -0.525802
O5    O     O_R   0.629730 0.582260 0.499980 -0.462222
O6    O     O_R   0.629730 0.417740 0.499980 -0.482347
O7    O     O_R   0.500000 0.582270 0.682320 -0.479793
O8    O     O_R   0.500000 0.417730 0.682320 -0.413888

loop_
_geom_bond_atom_site_label_1
_geom_bond_atom_site_label_2
_ccdc_geom_bond_type
C4    C36   S    
C18   C21   A    
C35   C36   S    
C18   C26   A    
C24   C27   A    
H4    N12   S    
C15   N14   S    
C33   N8    S    
C7    C8    A    
C38   Cl7   S    
H15   N2    S    
C14   C24   A    
C29   O7    A    
C12   Cl5   S    
H14   N2    S    
C38   C39   A    
H33   N10   S    
C25   N16   S    
H26   N7    S    
Cu1   O1    S    
H5    N13   S    
C12   C37   S    
C17   C20   A    
Cu2   N9    S    
H32   N10   S    
H22   N6    S    
C13   N12   S    
H34   N11   S    
C31   C33   S    
H2    N11   S    
C9    C10   A    
C1    O1    A    
H10   N15   S    
C19   O6    A    
C32   N7    S    
Cu2   O4    S    
Cu1   O7    S    
C22   C28   A    
H7    N14   S    
H18   N4    S    
H13   N16   S    
H11   N16   S    
H17   N3    S    
C39   C42   A    
C30   H1    S    
C1    C10   S    
Cu1   Cu2   S    
C29   O8    A    
C14   N13   S    
C8    C41   A    
H21   N5    S    
H27   N8    S    
C12   Cl4   S    
Cu1   N1    S    
C6    C11   A    
H20   N5    S    
C3    C5    A    
C25   C26   A    
C4    O4    A    
C33   C37   S    
C8    H29   S    
H9    N15   S    
C3    C9    A    
C1    O2    A    
Cu2   O8    S    
C2    Cl1   S    
Cu1   O3    S    
C23   C34   A    
C13   N1    A    
H16   N3    S    
C32   C37   S    
C12   C35   S    
C35   Cl2   S    
C33   H31   S    
C9    N10   S    
H24   N6    S    
C16   C18   A    
C40   C41   A    
C42   Cl8   S    
C21   C24   A    
H28   N8    S    
C35   Cl3   S    
C14   N9    A    
C39   C40   A    
C15   N1    A    
C15   C17   A    
Cu2   O2    S    
C16   N9    A    
C23   Cl6   S    
C7    N11   S    
C34   C38   A    
C31   H12   S    
H6    N13   S    
C20   C22   A    
C30   N5    S    
H8    N14   S    
C19   C34   S    
C6    C7    A    
C32   H30   S    
C4    O3    A    
C23   C41   A    
C30   C36   S    
C17   C25   A    
C2    C3    A    
C11   H23   S    
C30   C32   S    
C5    C6    A    
H19   N4    S    
C2    C42   A    
H3    N12   S    
H25   N7    S    
C13   C22   A    
C27   N3    S    
C10   C11   A    
C26   N2    S    
C16   N15   S    
C20   C21   A    
Cu2   O6    S    
Cu1   O5    S    
C31   N6    S    
C5    C40   A    
C29   C37   S    
C27   C28   A    
C31   C36   S    
C28   N4    S    
C19   O5    A    
