data_mof_unit_21707.cif
_audit_creation_date              2012-12-11T14:25:01-0500
_audit_creation_method            fapswitch 2.2
_symmetry_space_group_name_H-M    P1
_symmetry_Int_Tables_number       1
_space_group_crystal_system       triclinic
_cell_length_a                    19.255778
_cell_length_b                    11.065758
_cell_length_c                    18.782516
_cell_angle_alpha                 90.589022
_cell_angle_beta                  91.619781
_cell_angle_gamma                 89.606479
_cell_volume                      4000.27714338

loop_
_atom_site_label
_atom_site_type_symbol
_atom_type_description
_atom_site_fract_x
_atom_site_fract_y
_atom_site_fract_z
_atom_type_partial_charge
C1    C     C_R   0.728765 0.375024 0.146017 0.532407
C2    C     C_R   0.272055 0.374352 0.854516 0.550607
C3    C     C_R   0.230567 0.877039 0.147100 0.543007
C4    C     C_R   0.769304 0.878070 0.852572 0.565127
C5    C     C_3   0.464597 0.070899 0.029315 -0.106631
C6    C     C_3   0.520359 0.054949 0.972500 -0.095274
C7    C     C_3   0.944914 0.612933 0.033873 -0.128642
C8    C     C_3   0.991121 0.550430 0.978526 -0.094395
C9    C     C_R   0.748819 0.920314 0.923569 -0.000205
C10   C     C_R   0.251153 0.917721 0.076153 -0.005630
C11   C     C_R   0.259943 0.406993 0.929080 -0.001062
C12   C     C_R   0.742708 0.408777 0.072314 -0.003186
C13   C     C_R   0.696141 0.861809 0.961446 -0.026139
C14   C     C_R   0.301368 0.853663 0.036242 -0.029928
C15   C     C_R   0.195705 0.386945 0.959552 -0.034646
C16   C     C_R   0.805450 0.378264 0.040088 -0.032577
C17   C     C_R   0.701270 0.857862 0.036841 -0.000583
C18   C     C_R   0.295616 0.852767 0.960795 0.004162
C19   C     C_R   0.192738 0.370743 0.034088 -0.008090
C20   C     C_R   0.807160 0.367510 0.964806 0.010714
C21   C     C_R   0.797146 0.998281 0.033983 -0.150103
C22   C     C_R   0.206292 0.007696 0.967888 -0.148348
C23   C     C_R   0.313412 0.426303 0.046990 -0.143185
C24   C     C_R   0.689537 0.445739 0.956307 -0.154582
C25   C     C_R   0.796775 0.992132 0.960913 -0.163724
C26   C     C_R   0.205902 0.997566 0.040908 -0.153874
C27   C     C_R   0.318958 0.422371 0.973908 -0.153604
C28   C     C_R   0.684690 0.438471 0.028994 -0.149623
C29   C     C_R   0.640286 0.802355 0.926528 -0.065933
C30   C     C_R   0.355885 0.787237 0.068885 -0.063353
C31   C     C_R   0.136623 0.365447 0.916258 -0.061639
C32   C     C_R   0.863782 0.343635 0.081614 -0.064715
C33   C     C_R   0.087263 0.286629 0.939136 0.201674
C34   C     C_R   0.910611 0.262055 0.054537 0.205678
C35   C     C_R   0.600066 0.721366 0.962806 0.236479
C36   C     C_R   0.393492 0.703574 0.030075 0.253372
C37   C     C_R   0.611677 0.705096 0.035608 -0.067641
C38   C     C_R   0.380170 0.689616 0.957187 -0.055091
C39   C     C_R   0.088729 0.251811 0.010401 -0.111707
C40   C     C_R   0.907714 0.234769 0.981834 -0.117015
C41   C     C_R   0.660164 0.775156 0.072955 -0.127705
C42   C     C_R   0.333420 0.766158 0.922158 -0.125969
C43   C     C_R   0.137027 0.302897 0.059451 -0.123470
C44   C     C_R   0.860298 0.295168 0.935937 -0.117598
C45   C     C_R   0.532532 0.155188 0.144383 0.543353
C46   C     C_R   0.467238 0.155316 0.855812 0.555764
C47   C     C_R   0.032742 0.655779 0.144398 0.546041
C48   C     C_R   0.965862 0.655494 0.856552 0.557817
C49   C     C_R   0.749329 0.933274 0.073275 0.000938
C50   C     C_R   0.250714 0.936094 0.926627 0.007857
C51   C     C_R   0.249684 0.410593 0.078132 -0.003778
C52   C     C_R   0.751151 0.417402 0.922971 0.004181
C53   C     C_R   0.485067 0.165002 0.571346 -0.010215
C54   C     C_R   0.503877 0.144765 0.424963 -0.010339
C55   C     C_R   0.985131 0.664955 0.571365 -0.010914
C56   C     C_R   0.003878 0.644733 0.424966 -0.010567
C57   C     C_R   0.528035 0.072666 0.545197 -0.022757
C58   C     C_R   0.522273 0.044523 0.471740 -0.013820
C59   C     C_R   0.028025 0.572527 0.545186 -0.022925
C60   C     C_R   0.022245 0.544436 0.471717 -0.013986
C61   C     C_R   0.464268 0.239595 0.451701 -0.154283
C62   C     C_R   0.449420 0.242467 0.523747 -0.129753
C63   C     C_R   0.964307 0.739585 0.451731 -0.154109
C64   C     C_R   0.949489 0.742456 0.523783 -0.129963
C65   C     C_R   0.565305 0.994524 0.592160 0.036242
C66   C     C_R   0.532732 0.918475 0.452315 0.032593
C67   C     C_R   0.065254 0.494289 0.592131 0.036364
C68   C     C_R   0.032690 0.418394 0.452250 0.028809
C69   C     C_R   0.070762 0.373621 0.573548 -0.128602
C70   C     C_R   0.054603 0.336012 0.504791 -0.156196
C71   C     C_R   0.570849 0.873844 0.573617 -0.131090
C72   C     C_R   0.554656 0.836147 0.504881 -0.154886
C73   C     C_R   0.748067 0.918333 0.575804 0.010590
C74   C     C_R   0.223600 0.874853 0.437224 0.039156
C75   C     C_R   0.248036 0.418370 0.575828 0.009677
C76   C     C_R   0.723593 0.374830 0.437227 0.038854
C77   C     C_R   0.782751 0.020107 0.548976 0.019099
C78   C     C_R   0.165736 0.895024 0.483401 0.041269
C79   C     C_R   0.282694 0.520179 0.549016 0.019182
C80   C     C_R   0.665726 0.394997 0.483403 0.041707
C81   C     C_R   0.799831 0.012399 0.476924 -0.010062
C82   C     C_R   0.178350 0.879457 0.556904 0.015713
C83   C     C_R   0.299781 0.512504 0.476962 -0.009357
C84   C     C_R   0.678340 0.379453 0.556909 0.016308
C85   C     C_R   0.713694 0.856979 0.456378 -0.107574
C86   C     C_R   0.301783 0.894316 0.537891 -0.114860
C87   C     C_R   0.213660 0.357054 0.456399 -0.107671
C88   C     C_R   0.801776 0.394280 0.537896 -0.115299
C89   C     C_R   0.741255 0.971477 0.147813 0.529645
C90   C     C_R   0.258841 0.972408 0.852249 0.529394
C91   C     C_R   0.241142 0.467625 0.148885 0.533641
C92   C     C_R   0.759063 0.468778 0.851340 0.535380
C93   C     C_R   0.717895 0.832228 0.527375 -0.041769
C94   C     C_R   0.291514 0.879224 0.466247 0.041088
C95   C     C_R   0.217868 0.332276 0.527391 -0.042542
C96   C     C_R   0.791507 0.379196 0.466252 0.040182
C97   C     C_R   0.815851 0.110444 0.593301 0.050405
C98   C     C_R   0.099041 0.944960 0.463854 0.029040
C99   C     C_R   0.315785 0.610495 0.593363 0.051521
C100  C     C_R   0.599029 0.444924 0.463852 0.030627
C101  C     C_R   0.877274 0.162259 0.571045 -0.159907
C102  C     C_R   0.046647 0.949843 0.513737 -0.161811
C103  C     C_R   0.377219 0.662305 0.571127 -0.160719
C104  C     C_R   0.546629 0.449808 0.513731 -0.161619
C105  C     C_R   0.900879 0.137589 0.503678 -0.119209
C106  C     C_R   0.058238 0.913723 0.583257 -0.129526
C107  C     C_R   0.400839 0.637654 0.503763 -0.118938
C108  C     C_R   0.558221 0.413706 0.583253 -0.131690
C109  C     C_R   0.862617 0.065079 0.456434 -0.051945
C110  C     C_R   0.123490 0.875105 0.604641 -0.097924
C111  C     C_R   0.362572 0.565191 0.456493 -0.051622
C112  C     C_R   0.623478 0.375121 0.604646 -0.098628
C113  C     C_R   0.756121 0.942776 0.429993 -0.023720
C114  C     C_R   0.245662 0.896803 0.582946 0.024933
C115  C     C_R   0.256086 0.442863 0.430022 -0.023156
C116  C     C_R   0.745655 0.396789 0.582951 0.025154
C117  C     C_R   0.713518 0.339441 0.362410 0.541898
C118  C     C_R   0.269145 0.377460 0.645882 0.615269
C119  C     C_R   0.213519 0.839443 0.362412 0.542276
C120  C     C_R   0.769150 0.877453 0.645874 0.615626
C121  C     C_R   0.533200 0.154153 0.353396 0.518776
C122  C     C_R   0.459697 0.156576 0.643467 0.523110
C123  C     C_R   0.033198 0.654148 0.353396 0.517923
C124  C     C_R   0.959799 0.656582 0.643510 0.521606
C125  C     C_R   0.743024 0.976332 0.357222 0.534684
C126  C     C_R   0.256578 0.964248 0.647792 0.560062
C127  C     C_R   0.243014 0.476368 0.357236 0.534598
C128  C     C_R   0.756577 0.464246 0.647793 0.560034
C129  C     C_3   0.535408 0.251925 0.970666 -0.115334
C130  C     C_3   0.479765 0.267988 0.028025 -0.120448
C131  C     C_3   0.051340 0.717712 0.967868 -0.133486
C132  C     C_3   0.005296 0.779987 0.023981 -0.103754
C133  C     C_3   0.568078 0.145451 0.012873 -0.115514
C134  C     C_3   0.431983 0.177295 0.987357 -0.127704
C135  C     C_3   0.056719 0.604138 0.014788 -0.111155
C136  C     C_3   0.939445 0.726585 0.986735 -0.117003
C137  C     C_3   0.511713 0.161386 0.068943 0.045404
C138  C     C_3   0.488250 0.161453 0.931311 0.047992
C139  C     C_3   0.010125 0.665559 0.069698 0.049064
C140  C     C_3   0.986194 0.663780 0.932145 0.046028
Cr1   Cr    Cr6+3 0.772820 0.169820 0.252640 1.100891
Cr2   Cr    Cr6+3 0.227180 0.169820 0.747360 1.084553
Cr3   Cr    Cr6+3 0.272820 0.669820 0.252640 1.081868
Cr4   Cr    Cr6+3 0.727180 0.669820 0.747360 1.065576
Cr5   Cr    Cr6+3 0.615040 0.323610 0.249150 1.054003
Cr6   Cr    Cr6+3 0.384960 0.323610 0.750850 1.036043
Cr7   Cr    Cr6+3 0.115040 0.823610 0.249150 1.064364
Cr8   Cr    Cr6+3 0.884960 0.823610 0.750850 1.041758
Cr9   Cr    Cr6+3 0.616720 0.011130 0.250660 1.065224
Cr10  Cr    Cr6+3 0.383280 0.011130 0.749340 1.032120
Cr11  Cr    Cr6+3 0.116720 0.511130 0.250660 1.076093
Cr12  Cr    Cr6+3 0.883280 0.511130 0.749340 1.047836
H1    H     H_    0.624427 0.132163 0.024878 0.126562
H2    H     H_    0.375566 0.188223 0.975185 0.123089
H3    H     H_    0.105711 0.556412 0.028651 0.139438
H4    H     H_    0.890917 0.777241 0.973471 0.135775
H5    H     H_    0.444469 0.310241 0.416993 0.112337
H6    H     H_    0.413149 0.309770 0.543025 0.142325
H7    H     H_    0.944521 0.810264 0.417039 0.113071
H8    H     H_    0.913252 0.809800 0.543078 0.142348
H9    H     H_    0.087995 0.308488 0.612718 0.148517
H10   H     H_    0.060457 0.240826 0.492593 0.149177
H11   H     H_    0.588120 0.808770 0.612804 0.143336
H12   H     H_    0.560495 0.740943 0.492717 0.149622
H13   H     H_    0.683858 0.799373 0.420206 0.222671
H14   H     H_    0.354117 0.913838 0.557665 0.136648
H15   H     H_    0.183837 0.299436 0.420221 0.222622
H16   H     H_    0.854111 0.413793 0.557670 0.136464
H17   H     H_    0.906552 0.223793 0.605457 0.107963
H18   H     H_    0.996343 0.984607 0.498982 0.090816
H19   H     H_    0.406494 0.723814 0.605556 0.103589
H20   H     H_    0.496325 0.484589 0.498973 0.090769
H21   H     H_    0.948560 0.177057 0.486955 0.147257
H22   H     H_    0.017248 0.921144 0.621252 0.150803
H23   H     H_    0.448535 0.677116 0.487063 0.147285
H24   H     H_    0.517230 0.421134 0.621247 0.148908
H25   H     H_    0.885691 0.045350 0.405841 0.166767
H26   H     H_    0.132910 0.854613 0.660403 0.137252
H27   H     H_    0.385652 0.545486 0.405900 0.164854
H28   H     H_    0.632898 0.354664 0.660413 0.136646
H29   H     H_    0.563029 0.325151 0.943933 0.145880
H30   H     H_    0.464478 0.354735 0.052891 0.174638
H31   H     H_    0.094958 0.759569 0.939827 0.130391
H32   H     H_    0.010408 0.874251 0.044198 0.160501
H33   H     H_    0.435513 0.997751 0.054827 0.133908
H34   H     H_    0.536569 0.967958 0.948298 0.153571
H35   H     H_    0.900996 0.574653 0.062729 0.118973
H36   H     H_    0.985156 0.456137 0.959203 0.177383
H37   H     H_    0.835305 0.056040 0.059668 0.199067
H38   H     H_    0.171411 0.073440 0.943814 0.184170
H39   H     H_    0.358937 0.442702 0.080067 0.193460
H40   H     H_    0.644505 0.474604 0.925614 0.199245
H41   H     H_    0.627179 0.817489 0.871000 0.186400
H42   H     H_    0.370653 0.799892 0.124332 0.173316
H43   H     H_    0.133691 0.394088 0.861315 0.198966
H44   H     H_    0.869114 0.367943 0.137403 0.169408
H45   H     H_    0.837287 0.038359 0.933662 0.151908
H46   H     H_    0.167624 0.049099 0.069670 0.152780
H47   H     H_    0.370542 0.427076 0.952802 0.165906
H48   H     H_    0.633812 0.451775 0.050746 0.166963
H49   H     H_    0.055815 0.179772 0.026084 0.193527
H50   H     H_    0.939288 0.161890 0.962028 0.187216
H51   H     H_    0.584657 0.636939 0.063799 0.205034
H52   H     H_    0.405479 0.619609 0.927106 0.199753
H53   H     H_    0.667918 0.758565 0.129271 0.153526
H54   H     H_    0.324843 0.753000 0.865445 0.142681
H55   H     H_    0.136051 0.275514 0.114536 0.174138
H56   H     H_    0.859933 0.272158 0.879828 0.166516
O1    O     O_R   0.788190 0.043000 0.172520 -0.490478
O2    O     O_R   0.211810 0.043000 0.827480 -0.500473
O3    O     O_R   0.288190 0.543000 0.172520 -0.490812
O4    O     O_R   0.711810 0.543000 0.827480 -0.499992
O5    O     O_R   0.556550 0.253260 0.323480 -0.525086
O6    O     O_R   0.443450 0.253260 0.676520 -0.524339
O7    O     O_R   0.056550 0.753260 0.323480 -0.524704
O8    O     O_R   0.943450 0.753260 0.676520 -0.524566
O9    O     O_R   0.545830 0.051610 0.330160 -0.543366
O10   O     O_R   0.454170 0.051610 0.669840 -0.510846
O11   O     O_R   0.045830 0.551610 0.330160 -0.542430
O12   O     O_R   0.954170 0.551610 0.669840 -0.506448
O13   O     O_R   0.681920 0.959720 0.327070 -0.486687
O14   O     O_R   0.318080 0.959720 0.672930 -0.533532
O15   O     O_R   0.181920 0.459720 0.327070 -0.485574
O16   O     O_R   0.818080 0.459720 0.672930 -0.532278
O17   O     O_3   0.668190 0.168190 0.250820 -0.301507
O18   O     O_3   0.331810 0.168190 0.749180 -0.277248
O19   O     O_3   0.168190 0.668190 0.250820 -0.300723
O20   O     O_3   0.831810 0.668190 0.749180 -0.276045
O21   O     O_R   0.766240 0.292300 0.176860 -0.496850
O22   O     O_R   0.233760 0.292300 0.823140 -0.479166
O23   O     O_R   0.266240 0.792300 0.176860 -0.509343
O24   O     O_R   0.733760 0.792300 0.823140 -0.492558
O25   O     O_R   0.670310 0.409160 0.168720 -0.511913
O26   O     O_R   0.329690 0.409160 0.831280 -0.519864
O27   O     O_R   0.170310 0.909160 0.168720 -0.501041
O28   O     O_R   0.829690 0.909160 0.831280 -0.514657
O29   O     O_R   0.556160 0.251900 0.173380 -0.497130
O30   O     O_R   0.443840 0.251900 0.826620 -0.498019
O31   O     O_R   0.056160 0.751900 0.173380 -0.497974
O32   O     O_R   0.943840 0.751900 0.826620 -0.499171
O33   O     O_R   0.545410 0.050140 0.168240 -0.506603
O34   O     O_R   0.454590 0.050140 0.831760 -0.498705
O35   O     O_R   0.045410 0.550140 0.168240 -0.499148
O36   O     O_R   0.954590 0.550140 0.831760 -0.488652
O37   O     O_R   0.681530 0.958350 0.176970 -0.503773
O38   O     O_R   0.318470 0.958350 0.823030 -0.513524
O39   O     O_R   0.181530 0.458350 0.176970 -0.505360
O40   O     O_R   0.818470 0.458350 0.823030 -0.515293
O41   O     O_R   0.788610 0.044480 0.334450 -0.515972
O42   O     O_R   0.211390 0.044480 0.665550 -0.523065
O43   O     O_R   0.288610 0.544480 0.334450 -0.520128
O44   O     O_R   0.711390 0.544480 0.665550 -0.526691
O45   O     O_R   0.766630 0.293670 0.326970 -0.437327
O46   O     O_R   0.233370 0.293670 0.673030 -0.492579
O47   O     O_R   0.266630 0.793670 0.326970 -0.439877
O48   O     O_R   0.733370 0.793670 0.673030 -0.495863
O49   O     O_R   0.670730 0.410640 0.330640 -0.479191
O50   O     O_R   0.329270 0.410640 0.669360 -0.524058
O51   O     O_R   0.170730 0.910640 0.330640 -0.478379
O52   O     O_R   0.829270 0.910640 0.669360 -0.523150
C141  C     C_2   0.594641 0.036609 0.662098 0.310138
H57   H     H_    0.596955 0.132549 0.674223 0.125395
O53   O     O_2   0.615628 0.965160 0.707082 -0.484311
C142  C     C_2   0.509820 0.861474 0.383685 0.317884
H58   H     H_    0.470490 0.903853 0.349894 0.165534
O54   O     O_2   0.535487 0.767758 0.362170 -0.496506
C143  C     C_2   0.094617 0.536265 0.662080 0.312454
H59   H     H_    0.096982 0.632189 0.674240 0.123527
O55   O     O_2   0.115574 0.464740 0.707030 -0.476655
C144  C     C_2   0.009782 0.361446 0.383594 0.322709
H60   H     H_    0.970455 0.403853 0.349809 0.168646
O56   O     O_2   0.035446 0.267746 0.362052 -0.485832
C145  C     C_2   0.790494 0.151006 0.663558 0.240250
H61   H     H_    0.823970 0.203852 0.699226 0.111844
O57   O     O_2   0.731767 0.129423 0.681708 -0.533985
C146  C     C_2   0.086284 0.029125 0.404946 0.305396
H62   H     H_    0.036081 0.030940 0.377126 0.121885
O58   O     O_2   0.130604 0.102065 0.389759 -0.439801
C147  C     C_2   0.290425 0.650997 0.663636 0.239162
H63   H     H_    0.323883 0.703856 0.699309 0.105970
O59   O     O_2   0.231716 0.629333 0.681800 -0.535861
C148  C     C_2   0.586276 0.529094 0.404948 0.304462
H64   H     H_    0.536073 0.530919 0.377128 0.118084
O60   O     O_2   0.630601 0.602025 0.389763 -0.441381
C149  C     C_2   0.704758 0.705259 0.543011 0.259340
H65   H     H_    0.665533 0.678890 0.579350 0.142658
O61   O     O_2   0.737431 0.627960 0.511574 -0.514796
C150  C     C_2   0.352919 0.890811 0.423263 0.224538
H66   H     H_    0.378667 0.977340 0.420062 0.093399
O62   O     O_2   0.376250 0.801976 0.393441 -0.523000
C151  C     C_2   0.204773 0.205282 0.543006 0.258604
H67   H     H_    0.165549 0.178863 0.579336 0.143215
O63   O     O_2   0.237487 0.128020 0.511566 -0.515044
C152  C     C_2   0.852912 0.390791 0.423268 0.224352
H68   H     H_    0.878661 0.477321 0.420069 0.093080
O64   O     O_2   0.876239 0.301963 0.393436 -0.519446
Cl1   Cl    Cl    0.034147 0.216746 0.873641 -0.668081
Cl2   Cl    Cl    0.960367 0.177036 0.116173 -0.662566
Cl3   Cl    Cl    0.540054 0.633624 0.914151 -0.680191
Cl4   Cl    Cl    0.453504 0.611735 0.075477 -0.691487

loop_
_geom_bond_atom_site_label_1
_geom_bond_atom_site_label_2
_ccdc_geom_bond_type
C99   C103  A    
C124  O12   A    
C133  C137  S    
C55   C59   A    
C106  H22   S    
Cr1   O41   S    
Cr11  O19   S    
C151  H67   S    
C73   C93   A    
C136  C140  S    
C128  O16   A    
Cr6   O26   S    
C75   C95   A    
C135  C139  S    
C148  H64   S    
C84   C112  A    
Cr3   O43   S    
C4    O24   A    
C79   C99   A    
Cr12  O36   S    
Cr5   O25   S    
C5    C6    S    
C110  H26   S    
C100  C104  A    
C9    C13   A    
C131  C140  S    
C3    O27   A    
C11   C15   A    
C50   C90   S    
C66   C72   A    
C12   C16   A    
C1    O25   A    
C88   H16   S    
C22   H38   S    
C87   C115  A    
C80   C84   A    
C33   Cl1   S    
C59   C60   A    
C38   H52   S    
C8    C135  S    
C111  H27   S    
C130  C134  S    
Cr8   O52   S    
C70   H10   S    
Cr5   O49   S    
C56   C123  S    
Cr11  O11   S    
C98   C102  A    
Cr5   O17   S    
C121  O5    A    
C78   C82   A    
C11   C27   A    
C16   C20   A    
Cr9   O9    S    
Cr6   O6    S    
C71   H11   S    
C129  C133  S    
C40   H50   S    
C144  O56   D    
C3    O23   A    
Cr1   O1    S    
C90   O2    A    
C29   C35   A    
Cr8   O32   S    
Cr3   O19   S    
C39   C43   A    
C5    C137  S    
C118  O50   A    
C54   C61   A    
C6    H34   S    
C30   C36   A    
C8    C140  S    
C85   H13   S    
C125  O41   A    
C149  O61   D    
C76   C96   A    
C31   H43   S    
C128  O44   A    
C29   H41   S    
C89   O37   A    
C147  O59   D    
C69   C70   A    
C45   O29   A    
Cr11  O35   S    
C73   C77   A    
C103  C107  A    
C67   C69   A    
C75   C79   A    
C102  H18   S    
C79   C83   A    
C6    C138  S    
Cr8   O20   S    
C63   H7    S    
C21   C49   A    
C92   O40   A    
C7    C8    S    
C134  H2    S    
C132  C139  S    
C7    H35   S    
C151  O63   D    
Cr7   O7    S    
C53   C122  S    
C18   C42   A    
C141  H57   S    
C114  C126  S    
Cr2   O22   S    
C90   O38   A    
C117  O49   A    
C59   C67   A    
C85   C93   A    
Cr6   O30   S    
C142  H58   S    
C87   C95   A    
C77   C97   A    
C95   C151  S    
C112  H28   S    
C84   C116  A    
Cr3   O47   S    
C103  H19   S    
C4    O28   A    
C1    C12   S    
C2    C11   S    
Cr8   O8    S    
C105  C109  A    
C20   C44   A    
Cr10  O10   S    
C87   H15   S    
C48   C140  S    
C83   C115  A    
C27   H47   S    
Cr4   O4    S    
C91   O3    A    
C10   C14   A    
C17   C49   A    
Cr7   O19   S    
C89   O1    A    
C150  O62   D    
C109  H25   S    
C21   H37   S    
C34   Cl2   S    
C132  C136  S    
C54   C58   A    
C24   H40   S    
C47   O31   A    
C54   C121  S    
C74   C78   A    
Cr6   O50   S    
C81   C113  A    
C129  C130  S    
Cr10  O38   S    
C21   C25   A    
C107  C111  A    
C65   C141  S    
C76   C80   A    
C143  H59   S    
C15   C31   A    
Cr7   O31   S    
C16   C32   A    
C148  O60   D    
Cr2   O46   S    
C104  H20   S    
C85   C113  A    
C7    C136  S    
C93   C149  S    
C57   C58   A    
C145  O57   D    
Cr11  O15   S    
C37   C41   A    
C61   C62   A    
C26   H46   S    
C92   O4    A    
C2    O22   A    
C63   C64   A    
C40   C44   A    
C56   C60   A    
C146  H62   S    
Cr3   O23   S    
C4    C9    S    
C24   C52   A    
C119  O51   A    
C88   C96   A    
Cr10  O18   S    
C123  O7    A    
C74   C94   A    
C86   H14   S    
C5    H33   S    
C48   O36   A    
C9    C25   A    
C8    H36   S    
C15   C19   A    
Cr4   O48   S    
C12   C28   A    
C13   C29   A    
C6    C133  S    
Cr11  O39   S    
C152  H68   S    
C36   Cl4   S    
Cr1   O21   S    
C123  O11   A    
C51   C91   S    
C131  H31   S    
C2    O26   A    
C147  H63   S    
C62   H6    S    
C101  H17   S    
C22   C50   A    
C73   C120  S    
Cr10  O14   S    
C75   C118  S    
C121  O9    A    
C32   H44   S    
C66   C142  S    
C48   O32   A    
C19   C43   A    
Cr2   O18   S    
C91   O39   A    
C43   H55   S    
C24   C28   A    
C53   C57   A    
C94   C150  S    
Cr6   O18   S    
C122  O6    A    
C149  H65   S    
C61   H5    S    
Cr1   O17   S    
C77   C81   A    
C64   H8    S    
C72   H12   S    
C28   H48   S    
Cr5   O5    S    
C34   C40   A    
C81   C109  A    
C125  O13   A    
C39   H49   S    
C83   C111  A    
C52   C92   S    
C46   O34   A    
C131  C132  S    
C104  C108  A    
C18   C50   A    
C55   C124  S    
Cr9   O37   S    
Cr4   O24   S    
C57   C65   A    
C119  O47   A    
C13   C17   A    
C35   Cl3   S    
C76   C117  S    
C126  O42   A    
Cr1   O45   S    
C36   C38   A    
C120  O52   A    
C132  H32   S    
C47   O35   A    
C143  O55   D    
C30   H42   S    
C107  H23   S    
C108  H24   S    
C42   H54   S    
C96   C152  S    
Cr12  O40   S    
C108  C112  A    
Cr10  O34   S    
C60   C68   A    
C142  O54   D    
C22   C26   A    
C47   C139  S    
C144  H60   S    
C130  C137  S    
C32   C34   A    
Cr7   O27   S    
C152  O64   D    
Cr2   O42   S    
Cr9   O17   S    
C14   C18   A    
C23   H39   S    
C135  H3    S    
C74   C119  S    
C33   C39   A    
C133  H1    S    
C82   C110  A    
C35   C37   A    
C69   H9    S    
C38   C42   A    
C131  C135  S    
C136  H4    S    
C113  C125  S    
C44   H56   S    
C115  C127  S    
C86   C94   A    
C106  C110  A    
Cr12  O20   S    
C58   C66   A    
C129  C138  S    
Cr5   O29   S    
C78   C98   A    
C31   C33   A    
C23   C27   A    
C118  O46   A    
C127  O15   A    
C46   C138  S    
C10   C26   A    
Cr4   O44   S    
C80   C100  A    
Cr7   O51   S    
Cr9   O13   S    
C14   C30   A    
C101  C105  A    
C5    C134  S    
C117  O45   A    
C82   C114  A    
C130  H30   S    
C141  O53   D    
Cr3   O3    S    
C65   C71   A    
Cr8   O28   S    
C88   C116  A    
C120  O48   A    
C68   C144  S    
C1    O21   A    
C67   C143  S    
C53   C62   A    
C23   C51   A    
C55   C64   A    
C45   C137  S    
C145  H61   S    
C37   H51   S    
C56   C63   A    
C98   C146  S    
C68   C70   A    
C146  O58   D    
Cr2   O2    S    
C45   O33   A    
C124  O8    A    
C129  H29   S    
C122  O10   A    
C49   C89   S    
C134  C138  S    
C126  O14   A    
C86   C114  A    
C150  H66   S    
Cr12  O16   S    
C20   C52   A    
C3    C10   S    
C7    C139  S    
Cr12  O12   S    
C102  C106  A    
C127  O43   A    
C46   O30   A    
C41   H53   S    
C17   C41   A    
C25   H45   S    
C99   C147  S    
C19   C51   A    
C71   C72   A    
Cr9   O33   S    
C116  C128  S    
C100  C148  S    
Cr4   O20   S    
C105  H21   S    
C97   C145  S    
C97   C101  A    
