data_mof_unit_27445.cif
_audit_creation_date              2012-12-10T17:02:04-0500
_audit_creation_method            fapswitch 2.2
_symmetry_space_group_name_H-M    P1
_symmetry_Int_Tables_number       1
_space_group_crystal_system       triclinic
_cell_length_a                    10.791467
_cell_length_b                    11.011108
_cell_length_c                    9.860373
_cell_angle_alpha                 110.7626
_cell_angle_beta                  98.696325
_cell_angle_gamma                 91.210206
_cell_volume                      1079.43783629

loop_
_atom_site_label
_atom_site_type_symbol
_atom_type_description
_atom_site_fract_x
_atom_site_fract_y
_atom_site_fract_z
_atom_type_partial_charge
C1    C     C_R   0.496553 0.254348 0.441539 0.889291
C2    C     C_R   0.081849 0.622190 0.592583 0.096180
C3    C     C_R   0.129727 0.508309 0.503541 -0.080431
C4    C     C_R   0.049332 0.400362 0.410578 -0.181233
C5    C     C_R   0.921110 0.401468 0.409318 -0.118068
C6    C     C_R   0.871547 0.511324 0.499265 -0.077008
C7    C     C_2   0.496912 0.114957 0.411715 -0.445703
C8    C     C_2   0.561902 0.065844 0.505580 0.455602
C9    C     C_2   0.531111 0.885068 0.589056 -0.312509
C10   C     C_2   0.535579 0.927843 0.478431 -0.217141
C11   C     C_2   0.514680 0.507218 0.083148 0.015015
C12   C     C_R   0.262765 0.501036 0.500887 0.763000
C13   C     C_2   0.492627 0.488596 0.921230 0.103469
C14   C     C_R   0.511729 0.746005 0.558615 0.819071
C15   C     C_R   0.737558 0.503852 0.499972 0.803496
C16   C     C_R   0.161010 0.734966 0.682250 -0.169340
C17   C     C_R   0.110739 0.846756 0.766499 -0.131058
C18   C     C_R   0.981285 0.849942 0.759072 -0.073119
C19   C     C_R   0.901292 0.741291 0.667509 -0.093807
C20   C     C_R   0.950376 0.624622 0.587708 0.075173
Cu1   Cu    Cu3+1 0.521920 0.521810 0.644910 1.100294
Cu2   Cu    Cu3+1 0.478080 0.478190 0.355090 0.978012
H1    H     H_    0.086481 0.313842 0.340958 0.148553
H2    H     H_    0.434523 0.050536 0.314071 0.137668
H3    H     H_    0.420644 0.414075 0.848707 0.097453
H4    H     H_    0.590728 0.573319 0.159097 0.226841
H5    H     H_    0.372181 0.382217 0.065885 0.199622
H6    H     H_    0.261818 0.738742 0.687550 0.149150
H7    H     H_    0.172353 0.931985 0.835940 0.146892
H8    H     H_    0.943110 0.937446 0.823847 0.153593
H9    H     H_    0.801130 0.749946 0.657273 0.164942
H10   H     H_    0.860344 0.315372 0.339873 0.163777
H11   H     H_    0.514629 0.861073 0.364634 0.199998
H12   H     H_    0.546482 0.952138 0.702646 0.185964
N1    N     N_2   0.445130 0.445430 0.137370 -0.315283
N2    N     N_2   0.554930 0.554500 0.862630 0.020806
O1    O     O_R   0.511700 0.332330 0.577400 -0.534755
O2    O     O_R   0.474680 0.295500 0.332650 -0.576681
O3    O     O_R   0.338160 0.518420 0.622400 -0.613073
O4    O     O_R   0.301140 0.481590 0.377650 -0.567627
O5    O     O_R   0.525320 0.704500 0.667350 -0.535948
O6    O     O_R   0.488300 0.667670 0.422600 -0.580252
O7    O     O_R   0.698860 0.518410 0.622350 -0.494952
O8    O     O_R   0.661840 0.481580 0.377600 -0.587048
S1    S     S_3+6 0.665559 0.679620 0.976377 0.108841
O9    O     O_2   0.605569 0.773900 0.095052 -0.344300
O10   O     O_2   0.772372 0.623776 0.045520 -0.269935
O11   O     O_3   0.723042 0.761078 0.881835 -0.511798
H13   H     H_    0.778688 0.834346 0.956931 0.350932
S2    S     S_3+6 0.683954 0.156823 0.652511 0.035504
O12   O     O_2   0.757848 0.249539 0.608117 -0.256504
O13   O     O_2   0.627443 0.232841 0.784733 -0.317451
O14   O     O_3   0.782430 0.055107 0.696385 -0.530939
H14   H     H_    0.765660 0.055812 0.792669 0.346825

loop_
_geom_bond_atom_site_label_1
_geom_bond_atom_site_label_2
_ccdc_geom_bond_type
C12   O4    A    
S2    O13   D    
C9    C14   S    
C16   H6    S    
C18   H8    S    
C2    C16   A    
C9    C10   D    
C19   C20   A    
Cu1   O3    S    
C1    O1    A    
C14   O6    A    
C5    H10   S    
Cu2   O4    S    
C12   O3    A    
C11   N1    D    
C17   C18   A    
C19   H9    S    
C7    C8    D    
S2    O12   D    
Cu1   N2    S    
Cu2   O6    S    
O14   H14   S    
Cu2   N1    S    
C11   C13   S    
C13   H3    S    
C9    H12   S    
C1    O2    A    
C13   N2    D    
C14   O5    A    
Cu1   O5    S    
Cu1   Cu2   S    
O11   H13   S    
C15   O8    A    
C2    C3    A    
C10   H11   S    
S1    O10   D    
C5    C6    A    
S1    O9    D    
S2    O14   S    
C15   O7    A    
C3    C4    A    
Cu2   O2    S    
C8    S2    S    
C17   H7    S    
N2    S1    S    
C6    C20   A    
Cu1   O1    S    
C8    C10   S    
C18   C19   A    
S1    O11   S    
C4    H1    S    
C16   C17   A    
C1    C7    S    
C3    C12   S    
C11   H4    S    
H5    N1    S    
C6    C15   S    
Cu1   O7    S    
C2    C20   A    
Cu2   O8    S    
C7    H2    S    
C4    C5    A    
