data_mof_unit_14130.cif
_audit_creation_date              2012-12-11T20:19:48-0500
_audit_creation_method            fapswitch 2.2
_symmetry_space_group_name_H-M    P1
_symmetry_Int_Tables_number       1
_space_group_crystal_system       triclinic
_cell_length_a                    8.236212
_cell_length_b                    17.374284
_cell_length_c                    22.859546
_cell_angle_alpha                 99.589903
_cell_angle_beta                  89.482929
_cell_angle_gamma                 98.383915
_cell_volume                      3190.58855556

loop_
_atom_site_label
_atom_site_type_symbol
_atom_type_description
_atom_site_fract_x
_atom_site_fract_y
_atom_site_fract_z
_atom_type_partial_charge
Ba1   Ba    Ba6+2 0.857050 0.537370 0.474190 1.646840
Ba2   Ba    Ba6+2 0.332790 0.462700 0.525820 1.642261
C1    C     C_3   0.687528 0.823196 0.325587 -0.367741
C2    C     C_R   0.114866 0.566061 0.942288 -0.027374
C3    C     C_R   0.067911 0.561584 0.881972 0.596374
C4    C     C_3   0.120585 0.724135 0.323851 0.351055
C5    C     C_R   0.933204 0.428752 0.879658 0.572079
C6    C     C_R   0.977242 0.431665 0.939645 -0.014963
C7    C     C_R   0.068917 0.500574 0.971106 -0.053254
C8    C     C_R   0.206458 0.634701 0.974702 -0.073911
C9    C     C_R   0.249728 0.638326 0.034342 -0.074866
C10   C     C_R   0.204204 0.573168 0.063634 -0.020274
C11   C     C_R   0.114597 0.503887 0.031651 -0.052439
C12   C     C_3   0.652880 0.742657 0.344615 0.358291
C13   C     C_R   0.931743 0.366424 0.968832 -0.073876
C14   C     C_R   0.978324 0.369266 0.027800 -0.076039
C15   C     C_R   0.070722 0.437721 0.059923 -0.024189
C16   C     C_3   0.105944 0.763722 0.269956 -0.364162
C17   C     C_R   0.120954 0.440958 0.119427 0.588355
C18   C     C_R   0.245573 0.575985 0.124118 0.581130
C19   C     C_2   0.782725 0.452222 0.766607 -0.086263
C20   C     C_3   0.756690 0.425051 0.700765 -0.053292
C21   C     C_1   0.006011 0.515374 0.686564 0.030897
C22   C     C_2   0.052750 0.518623 0.743051 -0.103334
C23   C     C_3   0.478990 0.344920 0.342561 0.298177
C24   C     C_2   0.933171 0.488125 0.787688 0.190101
C25   C     C_R   0.413534 0.545767 0.234683 -0.100180
C26   C     C_R   0.457649 0.550400 0.294454 -0.026349
C27   C     C_R   0.188425 0.483990 0.314116 0.032287
C28   C     C_3   0.231245 0.702573 0.603894 0.314664
C29   C     C_R   0.141092 0.481509 0.254611 -0.091828
C30   C     C_R   0.252841 0.512976 0.213875 0.202904
C31   C     C_2   0.864199 0.475723 0.664337 -0.289559
C32   C     C_2   0.448797 0.719267 0.480800 -0.257446
C33   C     C_3   0.372803 0.769946 0.444275 -0.047748
C34   C     C_3   0.469761 0.323235 0.275315 -0.364730
C35   C     C_2   0.422531 0.856657 0.464778 -0.104674
C36   C     C_2   0.553592 0.883444 0.501557 0.007505
C37   C     C_2   0.636080 0.825463 0.527290 -0.127694
C38   C     C_1   0.576193 0.749407 0.516607 0.059731
C39   C     C_R   0.795639 0.136703 0.529598 -0.125633
C40   C     C_3   0.261381 0.791928 0.621018 -0.371451
C41   C     C_R   0.853266 0.217518 0.537889 0.012871
C42   C     C_R   0.618236 0.239563 0.483553 0.039051
C43   C     C_R   0.560736 0.158898 0.474395 -0.115972
C44   C     C_R   0.647351 0.107023 0.498165 0.012986
C45   C     C_3   0.045379 0.291206 0.679754 0.339519
C46   C     C_2   0.616423 0.968938 0.517596 -0.072774
C47   C     C_2   0.588309 0.021763 0.483374 -0.072733
C48   C     C_R   0.760533 0.269017 0.517354 -0.281421
C49   C     C_3   0.963747 0.296088 0.395180 0.310641
C50   C     C_3   0.935825 0.206891 0.376481 -0.380875
C51   C     C_3   0.711461 0.638387 0.655067 0.302221
C52   C     C_3   0.713936 0.657884 0.722451 -0.355171
C53   C     C_3   0.061079 0.266843 0.739973 -0.352003
C54   C     C_3   0.501471 0.254304 0.653034 0.370279
C55   C     C_3   0.458753 0.176450 0.675636 -0.363423
C56   C     C_R   0.344502 0.520709 0.333721 -0.299746
H1    H     H_    0.701354 0.748261 0.390609 0.064636
H2    H     H_    0.617904 0.585734 0.641274 0.073318
H3    H     H_    0.810445 0.708799 0.737762 0.132765
H4    H     H_    0.740167 0.606451 0.741715 0.070197
H5    H     H_    0.592678 0.672787 0.738358 0.135445
H6    H     H_    0.518350 0.724616 0.343189 -0.056667
H7    H     H_    0.617841 0.865130 0.353758 0.067119
H8    H     H_    0.356699 0.357843 0.358588 0.020593
H9    H     H_    0.571694 0.398496 0.354348 0.057021
H10   H     H_    0.376464 0.270303 0.261992 0.136655
H11   H     H_    0.434594 0.372884 0.255746 0.069855
H12   H     H_    0.356015 0.809644 0.656941 0.121306
H13   H     H_    0.649229 0.818710 0.278520 0.128905
H14   H     H_    0.153680 0.728277 0.230391 0.134727
H15   H     H_    0.120203 0.350097 0.680536 0.077546
H16   H     H_    0.914154 0.294733 0.671857 -0.053148
H17   H     H_    0.189540 0.259815 0.749042 0.151613
H18   H     H_    0.025242 0.313069 0.774686 0.135487
H19   H     H_    0.980167 0.210292 0.741624 0.116598
H20   H     H_    0.637119 0.265298 0.648975 -0.074237
H21   H     H_    0.444027 0.248372 0.608400 0.083903
H22   H     H_    0.506654 0.128853 0.644751 0.069845
H23   H     H_    0.304447 0.819328 0.582159 0.074741
H24   H     H_    0.323818 0.160835 0.678493 0.150147
H25   H     H_    0.045939 0.664676 0.316073 0.091056
H26   H     H_    0.515154 0.180973 0.720251 0.121364
H27   H     H_    0.940847 0.317552 0.048303 0.124328
H28   H     H_    0.860004 0.312540 0.946025 0.124492
H29   H     H_    0.320051 0.692415 0.057441 0.121650
H30   H     H_    0.504494 0.567423 0.204566 0.116896
H31   H     H_    0.245024 0.686114 0.954016 0.123285
H32   H     H_    0.178773 0.541257 0.756664 0.134964
H33   H     H_    0.687566 0.432841 0.796283 0.126333
H34   H     H_    0.145701 0.813811 0.636631 0.133192
H35   H     H_    0.017995 0.454729 0.240175 0.131876
H36   H     H_    0.380911 0.523069 0.379422 0.080101
H37   H     H_    0.251320 0.716936 0.327827 -0.065890
H38   H     H_    0.838016 0.466049 0.617035 0.081142
H39   H     H_    0.517719 0.002764 0.442418 0.068166
H40   H     H_    0.743749 0.846447 0.555804 0.083273
H41   H     H_    0.870999 0.097341 0.544345 0.075748
H42   H     H_    0.689685 0.988152 0.558025 0.071980
H43   H     H_    0.353721 0.896243 0.446875 0.071077
H44   H     H_    0.451331 0.136361 0.447326 0.076195
H45   H     H_    0.846831 0.316432 0.409483 0.002492
H46   H     H_    0.411548 0.655956 0.470270 0.076948
H47   H     H_    0.806571 0.331432 0.523081 0.065520
H48   H     H_    0.976171 0.768423 0.260984 0.148639
H49   H     H_    0.178670 0.823667 0.277526 0.109316
H50   H     H_    0.348264 0.681337 0.590857 -0.000289
H51   H     H_    0.143443 0.686775 0.565836 0.085014
H52   H     H_    0.839304 0.189676 0.341192 0.131682
H53   H     H_    0.820321 0.846532 0.330841 0.139236
H54   H     H_    0.591170 0.310598 0.257903 0.131905
H55   H     H_    0.053342 0.311424 0.432670 0.075699
H56   H     H_    0.896487 0.177565 0.414730 0.063395
H57   H     H_    0.051520 0.186367 0.359361 0.127438
H58   H     H_    0.833841 0.625428 0.640022 0.008034
N1    N     N_R   0.978471 0.493175 0.850650 -0.422034
N2    N     N_R   0.205308 0.510064 0.151716 -0.423011
O1    O     O_2   0.889310 0.456460 0.358460 -0.457873
O2    O     O_2   0.188181 0.219136 0.525607 -0.483324
O3    O     O_3   0.102385 0.234953 0.636300 -0.598526
O4    O     O_3   0.129890 0.457280 0.429550 -0.494585
O5    O     O_3   0.576930 0.595420 0.534060 -0.494528
O6    O     O_2   0.340570 0.306450 0.462190 -0.459414
O7    O     O_3   0.523698 0.281533 0.366542 -0.639314
O8    O     O_2   0.435038 0.467178 0.707414 -0.493353
O9    O     O_3   0.442224 0.314995 0.692427 -0.591180
O10   O     O_2   0.104759 0.619192 0.857788 -0.595685
O11   O     O_2   0.855287 0.367929 0.853153 -0.620347
O12   O     O_3   0.673995 0.703552 0.632015 -0.633464
O13   O     O_2   0.091895 0.381487 0.142109 -0.598638
O14   O     O_2   0.316051 0.637641 0.152304 -0.614209
O15   O     O_3   0.674650 0.600620 0.400940 -0.484876
O16   O     O_2   0.793844 0.544361 0.295402 -0.491272
O17   O     O_3   0.022215 0.330232 0.346474 -0.627109
O18   O     O_3   0.728912 0.687799 0.305919 -0.594889
O19   O     O_2   0.849130 0.693580 0.537840 -0.459427
O20   O     O_3   0.093680 0.641380 0.431770 -0.486381
O21   O     O_2   0.057349 0.783699 0.490993 -0.482013
O22   O     O_3   0.064910 0.770377 0.374608 -0.589115
O23   O     O_2   0.300380 0.543560 0.641570 -0.458767
O24   O     O_3   0.059830 0.542790 0.570460 -0.498652
O25   O     O_3   0.515070 0.399440 0.599070 -0.477587
O26   O     O_3   0.168591 0.669940 0.652839 -0.623960
O27   O     O_3   0.612780 0.404640 0.465950 -0.481576
O28   O     O_3   0.096040 0.358680 0.568240 -0.491928
P1    P     P_3+3 0.055640 0.433080 0.366120 0.995255
P2    P     P_3+3 0.671420 0.681950 0.554390 0.982311
P3    P     P_3+3 0.146063 0.742854 0.437204 0.953217
P4    P     P_3+3 0.134070 0.566990 0.633890 0.993243
P5    P     P_3+3 0.060595 0.256738 0.566630 0.947364
P6    P     P_3+3 0.663647 0.594144 0.323616 0.956399
P7    P     P_3+3 0.524833 0.305832 0.444008 0.950714
P8    P     P_3+3 0.537367 0.405178 0.675615 0.951074

loop_
_geom_bond_atom_site_label_1
_geom_bond_atom_site_label_2
_ccdc_geom_bond_type
Ba2   P4    S    
C19   C24   D    
C5    N1    Am   
O19   P2    D    
Ba1   O27   S    
C23   H9    S    
C24   N1    S    
C18   N2    Am   
C28   O26   S    
C5    C6    A    
C43   C44   A    
C42   C43   A    
Ba2   O27   S    
C12   H1    S    
O15   P6    S    
C44   C47   S    
C49   H55   S    
C54   H21   S    
C32   C38   D    
C42   P7    S    
C33   C35   S    
C22   C24   S    
C32   C33   S    
C20   P8    S    
C36   C37   S    
C53   H19   S    
Ba1   O19   S    
C45   O3    S    
C52   H5    S    
O1    P1    D    
C13   C14   A    
C40   H12   S    
C54   H20   S    
C54   C55   S    
Ba1   Ba2   S    
Ba1   O1    S    
C54   O9    S    
C7    C11   A    
Ba1   O4    S    
O26   P4    S    
Ba1   O24   S    
C16   H49   S    
C49   O17   S    
C8    H31   S    
C9    H29   S    
C6    C7    A    
C21   C31   D    
C34   H54   S    
C48   H47   S    
C21   C22   D    
C39   H41   S    
C36   C46   S    
C51   H58   S    
O27   P7    S    
O16   P6    D    
O6    P7    D    
C17   O13   D    
Ba2   O25   S    
C39   C41   A    
C55   H22   S    
C1    H7    S    
C40   H23   S    
C18   O14   D    
Ba1   O15   S    
O9    P8    S    
O18   P6    S    
C51   H2    S    
O7    P7    S    
O23   P4    D    
Ba2   O4    S    
O20   P3    S    
C16   H14   S    
C4    C16   S    
C38   P2    S    
C28   H51   S    
O12   P2    S    
C49   C50   S    
C46   H42   S    
C45   H15   S    
C8    C9    A    
C1    H53   S    
C37   C38   D    
C14   C15   A    
C37   H40   S    
C52   H4    S    
C29   H35   S    
O21   P3    D    
C32   H46   S    
O3    P5    S    
C3    N1    Am   
C1    H13   S    
Ba1   O5    S    
C35   C36   D    
C29   C30   A    
C50   H52   S    
C39   C44   A    
C12   H6    S    
C10   C18   A    
C55   H26   S    
O4    P1    S    
C27   C56   A    
C1    C12   S    
C13   H28   S    
C53   H18   S    
O8    P8    D    
C46   C47   D    
C21   P4    S    
C26   P6    S    
C6    C13   A    
C50   H56   S    
C14   H27   S    
Ba2   O24   S    
Ba1   P1    S    
C2    C8    A    
C31   H38   S    
C41   P5    S    
C34   H11   S    
C45   C53   S    
C19   H33   S    
C50   H57   S    
C42   C48   A    
C20   C31   S    
O2    P5    D    
C4    H25   S    
C28   H50   S    
C25   C30   A    
C23   H8    S    
C45   H16   S    
C30   N2    S    
C2    C3    A    
O25   P8    S    
C22   H32   S    
C27   P1    S    
C9    C10   A    
C34   H10   S    
C41   C48   A    
C51   C52   S    
C52   H3    S    
C26   C56   A    
Ba2   O28   S    
O17   P1    S    
C11   C15   A    
O24   P4    S    
C56   H36   S    
C53   H17   S    
C27   C29   A    
C35   H43   S    
C12   O18   S    
C16   H48   S    
C3    O10   D    
C23   O7    S    
C15   C17   A    
C40   H34   S    
C4    O22   S    
C25   H30   S    
C5    O11   D    
C43   H44   S    
C23   C34   S    
C47   H39   S    
O28   P5    S    
Ba2   O6    S    
O5    P2    S    
C4    H37   S    
C25   C26   A    
C17   N2    Am   
Ba2   O23   S    
C55   H24   S    
C28   C40   S    
Ba1   P2    S    
C51   O12   S    
C33   P3    S    
C10   C11   A    
C2    C7    A    
C19   C20   S    
C49   H45   S    
O22   P3    S    
Ba2   O5    S    
Ba1   O20   S    
