data_mof_unit_35966.cif
_audit_creation_date              2012-12-10T19:44:28-0500
_audit_creation_method            fapswitch 2.2
_symmetry_space_group_name_H-M    P1
_symmetry_Int_Tables_number       1
_space_group_crystal_system       triclinic
_cell_length_a                    10.794924
_cell_length_b                    12.321732
_cell_length_c                    13.195998
_cell_angle_alpha                 116.822202
_cell_angle_beta                  77.027028
_cell_angle_gamma                 101.514799
_cell_volume                      1516.61675771

loop_
_atom_site_label
_atom_site_type_symbol
_atom_type_description
_atom_site_fract_x
_atom_site_fract_y
_atom_site_fract_z
_atom_type_partial_charge
C1    C     C_R   0.514177 0.854818 0.286499 0.775123
C2    C     C_R   0.616644 0.863867 0.806628 -0.122809
C3    C     C_R   0.038092 0.960473 0.570064 -0.230985
C4    C     C_R   0.129593 0.996718 0.494328 -0.154650
C5    C     C_R   0.092654 0.034116 0.419905 -0.123565
C6    C     C_R   0.963248 0.035932 0.424103 0.556210
C7    C     C_R   0.871617 0.000854 0.501130 -0.194222
C8    C     C_R   0.909130 0.963717 0.575446 -0.069309
C9    C     C_R   0.208166 0.189428 0.347968 -0.058553
C10   C     C_R   0.300677 0.222314 0.270652 -0.155417
C11   C     C_R   0.371572 0.134048 0.179510 -0.119028
C12   C     C_R   0.737434 0.000231 0.500394 0.854795
C13   C     C_R   0.349902 0.012679 0.165343 -0.122170
C14   C     C_R   0.257915 0.979477 0.242770 -0.110991
C15   C     C_R   0.186691 0.067839 0.334885 0.191856
C16   C     C_R   0.306549 0.283427 0.012577 -0.187860
C17   C     C_R   0.453608 0.227216 0.834615 -0.146514
C18   C     C_R   0.621904 0.811519 0.089361 -0.181506
C19   C     C_R   0.654292 0.731044 0.975661 -0.197888
C20   C     C_R   0.599807 0.609888 0.935347 -0.115423
C21   C     C_R   0.512544 0.565570 0.009589 0.103204
C22   C     C_R   0.468223 0.651640 0.121685 0.070602
C23   C     C_R   0.481771 0.144948 0.713406 0.849257
C24   C     C_R   0.464342 0.439811 0.975414 -0.034473
C25   C     C_R   0.360059 0.405810 0.046969 0.087751
C26   C     C_R   0.308522 0.494353 0.151255 -0.195249
C27   C     C_R   0.361488 0.615397 0.188150 -0.199376
C28   C     C_R   0.516457 0.345867 0.873279 0.516892
C29   C     C_R   0.351217 0.194892 0.905578 -0.304681
C30   C     C_R   0.530412 0.772764 0.163601 -0.110768
C31   C     C_R   0.702804 0.344514 0.325346 0.497631
C32   C     C_R   0.328030 0.760566 0.647219 0.081393
C33   C     C_R   0.291034 0.664554 0.679781 -0.262859
C34   C     C_R   0.262985 0.998646 0.497703 0.806458
C35   C     C_R   0.355427 0.560521 0.623883 -0.197640
C36   C     C_R   0.458654 0.551385 0.534361 0.018839
C37   C     C_R   0.493405 0.652578 0.504348 0.302373
C38   C     C_R   0.529198 0.446683 0.474306 -0.115530
C39   C     C_R   0.632328 0.445527 0.385709 0.027606
C40   C     C_R   0.664712 0.545313 0.358430 -0.226714
C41   C     C_R   0.597365 0.646393 0.416655 -0.201797
C42   C     C_R   0.502542 0.342337 0.498071 0.013080
C43   C     C_R   0.671640 0.245441 0.353297 0.013216
C44   C     C_R   0.646445 0.986621 0.825812 -0.097653
C45   C     C_R   0.745397 0.020237 0.753098 -0.106751
C46   C     C_R   0.815537 0.930886 0.660917 0.137277
C47   C     C_R   0.787437 0.808182 0.644048 -0.123135
C48   C     C_R   0.687766 0.774877 0.716462 -0.146519
Cu1   Cu    Cu3+1 0.529370 0.098270 0.475420 0.990144
Cu2   Cu    Cu3+1 0.470630 0.901730 0.524580 0.929938
H1    H     H_    0.538444 0.837696 0.861666 0.131999
H2    H     H_    0.443302 0.159715 0.119911 0.141830
H3    H     H_    0.404870 0.944454 0.094712 0.128222
H4    H     H_    0.242911 0.885425 0.231670 0.100618
H5    H     H_    0.302581 0.102636 0.876400 0.174976
H6    H     H_    0.227010 0.469843 0.204999 0.158959
H7    H     H_    0.226576 0.257211 0.066407 0.175995
H8    H     H_    0.670591 0.903783 0.119858 0.173583
H9    H     H_    0.624218 0.554834 0.844708 0.204645
H10   H     H_    0.724346 0.762161 0.918870 0.163432
H11   H     H_    0.591370 0.055400 0.895725 0.131848
H12   H     H_    0.314842 0.680670 0.267921 0.167600
H13   H     H_    0.725231 0.167168 0.307071 0.188829
H14   H     H_    0.743775 0.546109 0.291476 0.211330
H15   H     H_    0.425675 0.335050 0.563416 0.137761
H16   H     H_    0.277619 0.841012 0.691164 0.121421
H17   H     H_    0.322638 0.489094 0.652696 0.140140
H18   H     H_    0.212160 0.670795 0.748620 0.153983
H19   H     H_    0.631291 0.718288 0.390224 0.209261
H20   H     H_    0.765080 0.115095 0.766526 0.142610
H21   H     H_    0.839467 0.738011 0.572511 0.137866
H22   H     H_    0.664510 0.679820 0.701747 0.139077
H23   H     H_    0.067409 0.933438 0.628044 0.161995
H24   H     H_    0.154825 0.258867 0.418996 0.134616
H25   H     H_    0.317876 0.316341 0.281713 0.140813
N1    N     N_R   0.573890 0.246290 0.438210 -0.217848
N2    N     N_R   0.426890 0.754320 0.561170 -0.201965
O1    O     O_R   0.536940 0.972510 0.318130 -0.576452
O2    O     O_R   0.487330 0.806530 0.359650 -0.605109
O3    O     O_R   0.705160 0.082990 0.479250 -0.515173
O4    O     O_R   0.655550 0.917010 0.520760 -0.603697
O5    O     O_R   0.512670 0.193470 0.640350 -0.541179
O6    O     O_R   0.463060 0.027490 0.681870 -0.599131
O7    O     O_R   0.344450 0.082990 0.479240 -0.585279
O8    O     O_R   0.294840 0.917010 0.520750 -0.597519
F1    F     F_    0.631207 0.364733 0.812222 -0.692373
F2    F     F_    0.801403 0.341659 0.239922 -0.673979
F3    F     F_    0.926588 0.066904 0.349322 -0.673317

loop_
_geom_bond_atom_site_label_1
_geom_bond_atom_site_label_2
_ccdc_geom_bond_type
C23   O5    A    
C17   C29   A    
C35   C36   A    
Cu2   O2    S    
C43   H13   S    
C7    C8    A    
C45   C46   A    
C26   C27   A    
C17   C23   S    
C31   C43   A    
Cu1   O7    S    
C32   H16   S    
C36   C37   A    
C38   C42   A    
C5    C6    A    
C33   H18   S    
C16   C25   A    
C6    F3    S    
Cu1   O1    S    
C18   C19   A    
C11   H2    S    
Cu2   O8    S    
C32   N2    A    
C18   H8    S    
C19   C20   A    
C2    C44   A    
C42   H15   S    
C18   C30   A    
C9    C10   A    
C13   C14   A    
C1    O1    A    
C34   O7    A    
C48   H22   S    
Cu2   O6    S    
C13   H3    S    
C7    C12   S    
C4    C34   S    
C31   F2    S    
C24   C25   A    
C3    C8    A    
C10   C11   A    
C39   C40   A    
C29   H5    S    
C2    C48   A    
C25   C26   A    
C37   N2    A    
C34   O8    A    
Cu1   O5    S    
C27   H12   S    
C10   H25   S    
C47   C48   A    
C35   H17   S    
Cu1   N1    S    
C20   H9    S    
C47   H21   S    
C23   O6    A    
C40   C41   A    
C14   H4    S    
C22   C27   A    
C28   F1    S    
C1    O2    A    
C9    H24   S    
C3    C4    A    
Cu2   N2    S    
C44   C45   A    
C41   H19   S    
C43   N1    A    
C46   C47   A    
C22   C30   A    
C45   H20   S    
C17   C28   A    
C24   C28   A    
C4    C5    A    
C26   H6    S    
C6    C7    A    
C44   H11   S    
C42   N1    A    
C40   H14   S    
Cu1   O3    S    
C32   C33   A    
C36   C38   A    
C9    C15   A    
C11   C13   A    
C38   C39   A    
C12   O3    A    
C1    C30   S    
C33   C35   A    
C31   C39   A    
C12   O4    A    
C16   H7    S    
C37   C41   A    
C3    H23   S    
C8    C46   S    
C5    C15   S    
C2    H1    S    
C20   C21   A    
C16   C29   A    
Cu1   Cu2   S    
C21   C24   A    
C14   C15   A    
C19   H10   S    
C21   C22   A    
Cu2   O4    S    
