data_mof_unit_33180.cif
_audit_creation_date              2013-03-05T15:45:10-0500
_audit_creation_method            fapswitch 2.2
_symmetry_space_group_name_H-M    P1
_symmetry_Int_Tables_number       1
_space_group_crystal_system       triclinic
_cell_length_a                    10.751762
_cell_length_b                    11.016822
_cell_length_c                    9.918891
_cell_angle_alpha                 111.080171
_cell_angle_beta                  97.97981
_cell_angle_gamma                 92.212356
_cell_volume                      1080.65909099

loop_
_atom_site_label
_atom_site_type_symbol
_atom_site_description
_atom_site_fract_x
_atom_site_fract_y
_atom_site_fract_z
_atom_type_partial_charge
O1    O     O_R   0.511700 0.332330 0.577400 -0.551084
O2    O     O_R   0.474680 0.295500 0.332650 -0.576929
C1    C     C_R   0.492357 0.254246 0.440524 0.850493
O3    O     O_R   0.338160 0.518420 0.622400 -0.543418
O4    O     O_R   0.301140 0.481590 0.377650 -0.586054
C2    C     C_R   0.263183 0.503649 0.501974 0.780881
Cu1   Cu    Cu3+1 0.521920 0.521810 0.644910 1.089485
Cu2   Cu    Cu3+1 0.478080 0.478190 0.355090 1.029057
O5    O     O_R   0.525320 0.704500 0.667350 -0.564685
O6    O     O_R   0.488300 0.667670 0.422600 -0.545295
O7    O     O_R   0.698860 0.518410 0.622350 -0.565893
O8    O     O_R   0.661840 0.481580 0.377600 -0.527816
C3    C     C_R   0.510859 0.745841 0.559257 0.821955
C4    C     C_R   0.737271 0.504674 0.499997 0.773199
H1    H     H_    0.083865 0.325731 0.325586 0.156163
C5    C     C_R   0.164217 0.732193 0.701276 -0.143685
H2    H     H_    0.265243 0.737394 0.705044 0.152885
C6    C     C_R   0.115105 0.840322 0.794532 -0.113719
H3    H     H_    0.177907 0.923978 0.868661 0.159899
C7    C     C_R   0.985383 0.841946 0.790644 -0.095189
H4    H     H_    0.947500 0.926885 0.861646 0.158879
C8    C     C_R   0.904023 0.735286 0.693779 -0.098084
H5    H     H_    0.803821 0.742827 0.690778 0.162402
C9    C     C_R   0.951807 0.623334 0.600524 0.085159
C10   C     C_R   0.083585 0.621949 0.603804 0.090076
C11   C     C_R   0.130036 0.511938 0.505395 -0.064850
C12   C     C_R   0.047952 0.408797 0.402571 -0.158575
H6    H     H_    0.857373 0.327201 0.322156 0.162503
C13   C     C_R   0.919498 0.409845 0.400082 -0.138071
C14   C     C_R   0.871413 0.514198 0.500231 -0.065107
H7    H     H_    0.485320 0.863479 0.368743 0.222969
H8    H     H_    0.557580 0.135425 0.624565 0.219590
C15   C     C_2   0.488847 0.114320 0.406720 -0.312665
C16   C     C_2   0.522323 0.069280 0.513136 -0.104774
H9    H     H_    0.544673 0.952742 0.705168 0.179631
C17   C     C_2   0.522964 0.885721 0.591691 -0.325040
C18   C     C_2   0.509079 0.930043 0.482305 -0.101761
H10   H     H_    0.456537 0.047656 0.294573 0.176504
N1    N     N_2   0.445130 0.445430 0.137370 -0.333274
C19   C     C_2   0.521856 0.498660 0.077774 0.347575
N2    N     N_2   0.554930 0.554500 0.862630 -0.102373
C20   C     C_2   0.491893 0.485031 0.919181 0.358508
H11   H     H_    0.358009 0.403980 0.076881 0.226590
N3    N     N_R   0.399624 0.381105 0.825315 0.101015
O9    O     O_R   0.283042 0.406634 0.803977 -0.354334
O10   O     O_R   0.421543 0.261551 0.807752 -0.403746
N4    N     N_R   0.644815 0.556762 0.156382 0.160140
O11   O     O_R   0.743835 0.504609 0.107055 -0.346978
O12   O     O_R   0.658828 0.673767 0.256207 -0.314294
N5    N     N_R   0.607604 0.679154 0.955087 0.253229
O13   O     O_R   0.712669 0.725319 0.932857 -0.308939
O14   O     O_R   0.538960 0.759876 0.037305 -0.372156

loop_
_geom_bond_atom_site_label_1
_geom_bond_atom_site_label_2
_geom_bond_distance
_ccdc_geom_bond_type
C19   N4    1.433475 S    
N5    O14   1.302577 A    
C13   C14   1.393807 A    
Cu2   N1    2.033822 S    
O4    Cu2   1.946363 S    
C16   C18   1.449269 S    
N2    C20   1.316829 D    
H1    C12   1.084484 S    
N4    O11   1.300996 A    
Cu2   O8    1.954645 S    
C19   C20   1.512118 S    
O2    C1    1.299072 A    
O8    C4    1.298027 A    
Cu1   Cu2   2.707311 S    
N4    O12   1.300054 A    
C5    C6    1.394644 A    
C9    C10   1.413491 A    
Cu1   O7    1.946363 S    
C11   C12   1.396155 A    
C2    C11   1.442297 S    
C20   N3    1.432112 S    
C4    C14   1.441642 S    
O3    Cu1   1.954645 S    
O3    C2    1.298394 A    
H6    C13   1.084450 S    
C7    C8    1.394356 A    
C15   C16   1.332279 D    
C6    C7    1.390895 A    
Cu1   N2    2.033998 S    
O4    C2    1.295414 A    
O7    C4    1.295449 A    
C8    C9    1.414542 A    
C9    C14   1.415273 A    
C12   C13   1.378461 A    
C1    C15   1.452714 S    
H7    C18   1.087780 S    
N2    N5    1.391933 S    
N1    C19   1.311971 D    
C7    H4    1.082838 S    
C3    C17   1.453092 S    
Cu2   O6    1.942765 S    
C6    H3    1.082866 S    
C5    C10   1.415182 A    
Cu1   O5    1.942035 S    
O5    C3    1.300613 A    
C8    H5    1.080866 S    
C17   C18   1.334046 D    
N1    H11   1.029452 S    
N5    O13   1.299550 A    
C10   C11   1.414982 A    
O1    Cu1   1.942765 S    
O6    C3    1.300268 A    
O2    Cu2   1.942035 S    
N3    O9    1.300557 A    
C15   H10   1.087549 S    
N3    O10   1.300361 A    
C5    H2    1.080228 S    
O1    C1    1.301597 A    
H9    C17   1.087418 S    
H8    C16   1.085947 S    
