data_mof_unit_15883.cif
_audit_creation_date              2012-10-26T20:58:18-0400
_audit_creation_method            fapswitch 2.2
_symmetry_space_group_name_H-M    P1
_symmetry_Int_Tables_number       1
_space_group_crystal_system       triclinic
_cell_length_a                    10.614067
_cell_length_b                    14.714425
_cell_length_c                    14.774794
_cell_angle_alpha                 64.842176
_cell_angle_beta                  103.770455
_cell_angle_gamma                 103.435593
_cell_volume                      2005.89639297

loop_
_atom_site_label
_atom_site_type_symbol
_atom_type_description
_atom_site_fract_x
_atom_site_fract_y
_atom_site_fract_z
_atom_type_partial_charge
C1    C     C_R   0.476080 0.119838 0.312352 0.540912
C2    C     C_R   0.449335 0.533839 0.948676 0.031530
C3    C     C_R   0.398386 0.491423 0.875084 -0.139226
C4    C     C_R   0.492082 0.510583 0.126413 -0.139521
C5    C     C_R   0.370984 0.387216 0.902358 -0.134630
C6    C     C_R   0.517218 0.614978 0.098956 -0.135124
C7    C     C_R   0.727592 0.290052 0.660865 -0.157703
C8    C     C_R   0.272018 0.709751 0.339408 -0.165023
C9    C     C_R   0.689930 0.206527 0.634138 0.057299
C10   C     C_R   0.310327 0.793615 0.365621 0.053774
C11   C     C_R   0.515424 0.283564 0.511372 0.021847
C12   C     C_R   0.520569 0.880238 0.687707 0.541137
C13   C     C_R   0.483703 0.715950 0.489310 0.027103
C14   C     C_R   0.548377 0.371132 0.535280 -0.003621
C15   C     C_R   0.449631 0.627800 0.466310 -0.005438
C16   C     C_R   0.259366 0.999957 0.499578 0.562488
C17   C     C_R   0.740528 0.000491 0.499593 0.563148
C18   C     C_R   0.657265 0.372380 0.611992 0.038948
C19   C     C_R   0.341107 0.626757 0.389288 0.038607
C20   C     C_R   0.478099 0.456581 0.486600 0.017051
C21   C     C_R   0.518784 0.541724 0.515931 0.011987
C22   C     C_R   0.627917 0.538311 0.593079 -0.148315
C23   C     C_R   0.474735 0.292585 0.179520 -0.137586
C24   C     C_R   0.368799 0.459899 0.409611 -0.154898
C25   C     C_R   0.695433 0.455496 0.639705 -0.128285
C26   C     C_R   0.302112 0.543188 0.362269 -0.134179
C27   C     C_3   0.006363 0.923617 0.477283 0.277740
C28   C     C_3   0.993482 0.077151 0.520535 0.285343
C29   C     C_3   0.929891 0.011813 0.405872 -0.163779
C30   C     C_3   0.069622 0.989008 0.591889 -0.151224
C31   C     C_3   0.877273 0.001444 0.499025 0.017694
C32   C     C_3   0.122396 0.999362 0.498968 0.019238
C33   C     C_3   0.952009 0.911938 0.569827 -0.152687
C34   C     C_R   0.493665 0.708104 0.821330 -0.134266
C35   C     C_3   0.047671 0.088788 0.427835 -0.159855
C36   C     C_R   0.451961 0.187739 0.205188 -0.003323
C37   C     C_R   0.523738 0.812870 0.795100 -0.003014
C38   C     C_R   0.374360 0.216344 0.028903 -0.135391
C39   C     C_R   0.548671 0.785446 0.971563 -0.137028
C40   C     C_R   0.401216 0.149720 0.129451 -0.138988
C41   C     C_R   0.550883 0.851489 0.870673 -0.139434
C42   C     C_3   0.901431 0.801236 0.414776 0.007381
C43   C     C_3   0.913769 0.699868 0.414579 -0.253215
C44   C     C_3   0.791591 0.660378 0.355165 -0.482639
C45   C     C_R   0.443784 0.361108 0.079430 0.029994
C46   C     C_3   0.102919 0.216390 0.558124 0.010868
C47   C     C_3   0.141935 0.198038 0.670395 -0.266238
C48   C     C_3   0.280598 0.250829 0.692131 -0.478938
C49   C     C_R   0.484993 0.640296 0.921721 0.031468
C50   C     C_R   0.396135 0.321517 0.003276 0.051837
C51   C     C_R   0.516925 0.680276 0.997728 0.050374
C52   C     C_R   0.462654 0.467800 0.052751 0.031103
Cu1   Cu    Cu3+1 0.465750 0.918270 0.475680 0.942519
Cu2   Cu    Cu3+1 0.534250 0.081730 0.524320 0.941006
H1    H     H_    0.869581 0.021014 0.330832 0.101744
H2    H     H_    0.331860 0.399015 0.383738 0.086591
H3    H     H_    0.909340 0.839527 0.626045 0.108960
H4    H     H_    0.090257 0.161014 0.371322 0.104197
H5    H     H_    0.331583 0.358068 0.843647 0.105283
H6    H     H_    0.539129 0.644678 0.157657 0.110245
H7    H     H_    0.480360 0.680846 0.762156 0.122028
H8    H     H_    0.519771 0.319328 0.238848 0.125045
H9    H     H_    0.574083 0.932471 0.851955 0.126309
H10   H     H_    0.382229 0.068760 0.147823 0.124597
H11   H     H_    0.336504 0.185652 0.971117 0.099484
H12   H     H_    0.130189 0.979835 0.666782 0.106702
H13   H     H_    0.571712 0.816564 0.029196 0.101742
H14   H     H_    0.374284 0.536834 0.795558 0.108978
H15   H     H_    0.492373 0.465425 0.206101 0.104577
H16   H     H_    0.778846 0.456602 0.698379 0.109853
H17   H     H_    0.218904 0.542207 0.303409 0.110885
H18   H     H_    0.875209 0.854728 0.335194 0.132373
H19   H     H_    0.821619 0.787859 0.458363 0.132146
H20   H     H_    0.000459 0.709399 0.379752 0.174425
H21   H     H_    0.928377 0.643203 0.493927 0.171564
H22   H     H_    0.702484 0.655171 0.384911 0.162326
H23   H     H_    0.564814 0.723629 0.546441 0.114101
H24   H     H_    0.799644 0.583691 0.362138 0.157187
H25   H     H_    0.781565 0.711971 0.273780 0.139359
H26   H     H_    0.093633 0.297981 0.514140 0.149609
H27   H     H_    0.183138 0.201908 0.531189 0.126901
H28   H     H_    0.071646 0.226924 0.693025 0.160431
H29   H     H_    0.137648 0.115371 0.716820 0.162516
H30   H     H_    0.352260 0.222224 0.670691 0.164844
H31   H     H_    0.306738 0.234113 0.774322 0.133827
H32   H     H_    0.286881 0.334312 0.649451 0.157863
H33   H     H_    0.434261 0.275820 0.454299 0.113604
H34   H     H_    0.256817 0.857546 0.327298 0.137095
H35   H     H_    0.744054 0.142928 0.671932 0.139057
H36   H     H_    0.811225 0.290217 0.719579 0.087572
H37   H     H_    0.188705 0.709766 0.280414 0.086136
H38   H     H_    0.664476 0.598984 0.619281 0.092146
N1    N     N_R   0.585750 0.204560 0.560800 -0.233336
N2    N     N_R   0.414250 0.795440 0.439200 -0.231084
O1    O     O_R   0.454850 0.022100 0.338110 -0.512233
O2    O     O_3   0.979212 0.158546 0.542296 -0.549250
O3    O     O_R   0.545150 0.977900 0.661890 -0.512286
O4    O     O_R   0.512700 0.160150 0.379180 -0.510621
O5    O     O_R   0.487300 0.839850 0.620820 -0.510525
O6    O     O_R   0.287930 0.931000 0.479440 -0.452480
O7    O     O_R   0.712070 0.069000 0.520560 -0.452576
O8    O     O_R   0.345780 0.069050 0.520520 -0.530265
O9    O     O_R   0.654220 0.930950 0.479480 -0.528524
O10   O     O_3   0.022758 0.841109 0.458284 -0.547951

loop_
_geom_bond_atom_site_label_1
_geom_bond_atom_site_label_2
_ccdc_geom_bond_type
C39   C51   A    
C23   C45   A    
Cu1   O1    S    
C34   C37   A    
C14   C18   A    
Cu2   O7    S    
C3    H14   S    
C39   C41   A    
Cu1   Cu2   S    
Cu1   O5    S    
C15   C19   A    
C10   H34   S    
C4    C52   A    
C35   H4    S    
C24   C26   A    
C11   C14   A    
C27   C29   S    
C10   N2    A    
C27   O10   S    
C47   H28   S    
C12   C37   S    
C44   H22   S    
C19   C26   A    
C17   O7    A    
Cu2   N1    S    
C23   H8    S    
C20   C24   A    
C28   C35   S    
C11   H33   S    
C49   C51   A    
C22   C25   A    
C31   C33   S    
Cu2   O3    S    
C47   H29   S    
C6    C51   A    
C30   C32   S    
C11   N1    A    
C43   H20   S    
C27   C32   S    
C21   C22   A    
C26   H17   S    
C18   C25   A    
C4    H15   S    
C44   H25   S    
Cu1   O6    S    
C43   H21   S    
C13   H23   S    
C8    C19   A    
C5    H5    S    
C32   C35   S    
C6    H6    S    
C36   C40   A    
C4    C6    A    
C9    H35   S    
C16   O6    A    
C29   H1    S    
C45   C52   A    
C7    H36   S    
C34   H7    S    
C27   C33   S    
C48   H30   S    
C43   C44   S    
C2    C49   A    
C14   C20   A    
C46   H27   S    
C47   C48   S    
C38   H11   S    
C1    O1    A    
C7    C18   A    
C42   H18   S    
C8    H37   S    
C12   O3    A    
C30   H12   S    
C2    C52   A    
C16   O8    A    
C13   C15   A    
C17   C31   S    
C48   H32   S    
C5    C50   A    
C24   H2    S    
C42   C43   S    
C41   H9    S    
C9    N1    A    
C7    C9    A    
C46   C47   S    
C34   C49   A    
C33   H3    S    
C30   C33   S    
Cu1   N2    S    
C39   H13   S    
Cu2   O8    S    
C28   C31   S    
C3    C5    A    
C42   O10   S    
C1    O4    A    
C12   O5    A    
C38   C50   A    
C16   C32   S    
C29   C35   S    
C40   H10   S    
C13   N2    A    
C28   O2    S    
C44   H24   S    
C2    C3    A    
C17   O9    A    
C29   C31   S    
C38   C40   A    
C45   C50   A    
Cu1   O9    S    
C28   C30   S    
C42   H19   S    
C37   C41   A    
C15   C21   A    
C46   O2    S    
C20   C21   A    
C8    C10   A    
C23   C36   A    
C22   H38   S    
C48   H31   S    
Cu2   O4    S    
C25   H16   S    
C46   H26   S    
C1    C36   S    
