data_mof_unit_44141.cif
_audit_creation_date              2012-12-10T17:51:31-0500
_audit_creation_method            fapswitch 2.2
_symmetry_space_group_name_H-M    P1
_symmetry_Int_Tables_number       1
_space_group_crystal_system       triclinic
_cell_length_a                    9.884784
_cell_length_b                    10.626165
_cell_length_c                    16.730734
_cell_angle_alpha                 94.801266
_cell_angle_beta                  84.877249
_cell_angle_gamma                 89.824592
_cell_volume                      1744.09232341

loop_
_atom_site_label
_atom_site_type_symbol
_atom_type_description
_atom_site_fract_x
_atom_site_fract_y
_atom_site_fract_z
_atom_type_partial_charge
C1    C     C_R   0.501071 0.735638 0.485662 0.895719
C2    C     C_R   0.531597 0.443184 0.261550 -0.165721
C3    C     C_R   0.251031 0.877142 0.453577 -0.244105
C4    C     C_R   0.480795 0.495008 0.653387 0.884676
C5    C     C_R   0.126348 0.936384 0.477424 -0.208459
C6    C     C_R   0.119637 0.051038 0.524701 0.511731
C7    C     C_R   0.243278 0.112693 0.538976 -0.313120
C8    C     C_R   0.370424 0.058687 0.507019 0.059032
C9    C     C_R   0.373493 0.933186 0.475332 0.105928
C10   C     C_R   0.498890 0.866970 0.470360 -0.146580
C11   C     C_R   0.621372 0.931485 0.471987 -0.210077
C12   C     C_R   0.346423 0.458786 0.785755 -0.007642
C13   C     C_R   0.619571 0.059944 0.487606 -0.222955
C14   C     C_R   0.495547 0.124499 0.505170 -0.116106
C15   C     C_R   0.851497 0.667313 0.624254 0.407243
C16   C     C_R   0.498677 0.259723 0.504799 0.867174
C17   C     C_R   0.930679 0.727129 0.685602 0.363725
C18   C     C_R   0.070384 0.723687 0.673974 -0.341810
C19   C     C_R   0.134425 0.658608 0.608388 -0.171066
C20   C     C_R   0.066415 0.579968 0.555108 0.091116
C21   C     C_R   0.920763 0.581408 0.558651 -0.076407
C22   C     C_R   0.934840 0.422332 0.446013 0.544094
C23   C     C_R   0.426123 0.330690 0.152352 -0.082490
C24   C     C_R   0.080189 0.423627 0.446715 -0.268676
C25   C     C_R   0.519370 0.490200 0.346556 0.866003
C26   C     C_R   0.470625 0.481496 0.740427 -0.147958
C27   C     C_R   0.591951 0.485131 0.778566 -0.320760
C28   C     C_R   0.591507 0.470181 0.860829 0.437783
C29   C     C_R   0.468031 0.443767 0.903713 -0.058838
C30   C     C_R   0.346697 0.441075 0.867113 -0.275265
C31   C     C_1   0.795434 0.370788 0.087791 0.226501
C32   C     C_3   0.987112 0.189767 0.617022 0.079224
C33   C     C_3   0.840704 0.213028 0.651593 -0.815305
C34   C     C_R   0.417992 0.384699 0.230579 -0.263239
C35   C     C_3   0.943861 0.247855 0.348717 0.097276
C36   C     C_3   0.852146 0.162507 0.300258 -0.782551
C37   C     C_3   0.655690 0.787857 0.684301 0.172490
C38   C     C_3   0.510887 0.825283 0.671788 -0.905874
C39   C     C_3   0.920703 0.897230 0.784533 0.062499
C40   C     C_3   0.816316 0.965819 0.845468 -0.884291
C41   C     C_3   0.784726 0.614942 0.234982 0.131824
C42   C     C_3   0.902356 0.669341 0.279057 -0.796859
C43   C     C_1   0.217672 0.447107 0.751477 0.189498
C44   C     C_3   0.417033 0.632090 0.041009 0.120154
C45   C     C_R   0.657814 0.439062 0.214206 0.410140
C46   C     C_3   0.346421 0.709886 0.113328 -0.843454
C47   C     C_3   0.786798 0.582988 0.882350 0.124186
C48   C     C_3   0.881960 0.614346 0.947542 -0.802565
C49   C     C_R   0.665852 0.381443 0.135333 -0.109603
C50   C     C_R   0.546825 0.337335 0.102841 0.066093
C51   C     C_2   0.462211 0.428251 0.989736 0.484024
C52   C     C_2   0.536860 0.336972 0.016304 -0.259138
H1    H     H_    0.687988 0.498560 0.744226 0.172871
H2    H     H_    0.145153 0.363777 0.404118 0.138349
H3    H     H_    0.605515 0.277384 0.974874 0.152345
H4    H     H_    0.252066 0.423042 0.902235 0.179277
H5    H     H_    0.334576 0.294681 0.127862 0.161103
H6    H     H_    0.028378 0.281156 0.598496 0.168868
H7    H     H_    0.044659 0.155087 0.665300 0.137557
H8    H     H_    0.793144 0.122818 0.667496 0.246816
H9    H     H_    0.837802 0.279545 0.706597 0.222641
H10   H     H_    0.781961 0.255097 0.606837 0.268750
H11   H     H_    0.991462 0.189796 0.391279 0.150104
H12   H     H_    0.718515 0.882330 0.465110 0.181829
H13   H     H_    0.022438 0.285428 0.305394 0.141226
H14   H     H_    0.807047 0.215932 0.254770 0.268537
H15   H     H_    0.912158 0.081661 0.268737 0.191046
H16   H     H_    0.769147 0.125560 0.340568 0.250178
H17   H     H_    0.714348 0.876885 0.684643 0.169237
H18   H     H_    0.647202 0.745707 0.743073 0.184146
H19   H     H_    0.460577 0.870326 0.729158 0.200683
H20   H     H_    0.510897 0.896222 0.627205 0.256429
H21   H     H_    0.450752 0.742382 0.653247 0.260900
H22   H     H_    0.939860 0.956000 0.732575 0.154165
H23   H     H_    0.250708 0.787433 0.417824 0.183015
H24   H     H_    0.015431 0.888287 0.814797 0.161016
H25   H     H_    0.795890 0.910196 0.898485 0.255731
H26   H     H_    0.855670 0.059752 0.865901 0.232603
H27   H     H_    0.719858 0.979808 0.817992 0.242528
H28   H     H_    0.690603 0.667844 0.259900 0.105943
H29   H     H_    0.804745 0.629426 0.169856 0.124540
H30   H     H_    0.912557 0.771471 0.270390 0.190484
H31   H     H_    0.883666 0.657911 0.344519 0.254598
H32   H     H_    0.998515 0.619745 0.255245 0.254972
H33   H     H_    0.387500 0.670759 0.985190 0.142599
H34   H     H_    0.033698 0.890196 0.461615 0.153242
H35   H     H_    0.528933 0.641709 0.044066 0.134478
H36   H     H_    0.375418 0.673795 0.169935 0.254040
H37   H     H_    0.377011 0.810224 0.112146 0.201647
H38   H     H_    0.234469 0.703994 0.111899 0.262106
H39   H     H_    0.720788 0.667600 0.879513 0.153174
H40   H     H_    0.850397 0.562725 0.824507 0.195406
H41   H     H_    0.958024 0.537255 0.947289 0.267550
H42   H     H_    0.936709 0.702980 0.935824 0.218049
H43   H     H_    0.823219 0.627350 0.007464 0.234671
H44   H     H_    0.240807 0.200353 0.576427 0.160313
H45   H     H_    0.715935 0.108312 0.486567 0.215626
H46   H     H_    0.321445 0.381613 0.266470 0.172491
H47   H     H_    0.132793 0.768587 0.717820 0.159975
H48   H     H_    0.240598 0.666024 0.605403 0.238673
N1    N     N_R   0.857140 0.501200 0.500750 -0.133253
N2    N     N_R   0.142740 0.501280 0.500770 -0.116561
N3    N     N_1   0.899522 0.361048 0.050168 -0.200646
N4    N     N_1   0.113699 0.436893 0.724999 -0.242059
O1    O     O_R   0.385310 0.683220 0.500000 -0.655293
O2    O     O_3   0.865477 0.347769 0.390648 -0.547353
O3    O     O_3   0.713713 0.697512 0.623183 -0.563048
O4    O     O_3   0.871664 0.775703 0.760730 -0.677001
O5    O     O_3   0.774439 0.484877 0.245895 -0.570423
O6    O     O_3   0.376158 0.505165 0.043352 -0.607264
O7    O     O_3   0.709846 0.475369 0.900319 -0.643573
O8    O     O_R   0.614640 0.683250 0.500010 -0.543316
O9    O     O_R   0.371780 0.500010 0.615800 -0.642524
O10   O     O_R   0.601110 0.500030 0.615800 -0.562248
O11   O     O_R   0.385360 0.316750 0.499990 -0.622213
O12   O     O_R   0.614690 0.316780 0.500000 -0.597457
O13   O     O_R   0.398890 0.499970 0.384200 -0.636873
O14   O     O_R   0.628220 0.499990 0.384200 -0.529772
O15   O     O_3   0.990138 0.100392 0.549480 -0.642526
Zn1   Zn    Zn3+2 0.346870 0.499980 0.499990 0.919774
Zn2   Zn    Zn3+2 0.653130 0.500020 0.500010 1.029884

loop_
_geom_bond_atom_site_label_1
_geom_bond_atom_site_label_2
_ccdc_geom_bond_type
C48   H43   S    
C37   H17   S    
C47   H40   S    
C19   C20   A    
C42   H30   S    
C32   H6    S    
C25   O14   A    
C41   H28   S    
C36   H15   S    
C7    C8    A    
C46   H37   S    
C7    H44   S    
C26   C27   A    
C29   C30   A    
C22   N1    A    
C48   H42   S    
C4    O10   A    
C28   C29   A    
C37   O3    S    
C12   C43   S    
C1    O8    A    
C5    C6    A    
C45   O5    S    
C20   N2    A    
C35   H13   S    
C24   H2    S    
C15   C17   A    
C18   C19   A    
C41   C42   S    
C39   H22   S    
C15   O3    S    
C43   N4    T    
O10   Zn2   S    
C35   C36   S    
C33   H10   S    
C50   C52   S    
O1    Zn1   S    
C14   C16   S    
C44   H35   S    
C3    H23   S    
C9    C10   A    
C24   N2    A    
C52   H3    S    
C21   N1    A    
C2    C34   A    
C2    C45   A    
C41   O5    S    
C37   H18   S    
C31   C49   S    
C16   O12   A    
C44   C46   S    
C46   H36   S    
C28   O7    S    
C39   O4    S    
C38   H20   S    
C48   H41   S    
C1    C10   S    
C51   C52   D    
C4    O9    A    
C42   H32   S    
C11   H12   S    
O12   Zn2   S    
O13   Zn1   S    
C39   C40   S    
C8    C9    A    
C23   C50   A    
C22   O2    S    
C30   H4    S    
N1    Zn2   S    
C12   C26   A    
O14   Zn2   S    
C31   N3    T    
C37   C38   S    
C3    C9    A    
O9    Zn1   S    
C47   C48   S    
C45   C49   A    
C23   C34   A    
C41   H29   S    
C36   H16   S    
C17   C18   A    
C40   H27   S    
C39   H24   S    
C5    H34   S    
C40   H26   S    
C49   C50   A    
C51   O6    S    
C22   C24   A    
C17   O4    S    
C18   H47   S    
C32   O15   S    
C44   H33   S    
C16   O11   A    
C6    O15   S    
N2    Zn1   S    
C29   C51   S    
C23   H5    S    
C38   H19   S    
C8    C14   A    
C12   C30   A    
C47   H39   S    
C42   H31   S    
C3    C5    A    
C25   O13   A    
C4    C26   S    
C19   H48   S    
C27   H1    S    
C6    C7    A    
C46   H38   S    
C33   H8    S    
C32   C33   S    
O8    Zn2   S    
C35   O2    S    
C11   C13   A    
C47   O7    S    
C34   H46   S    
C2    C25   S    
C36   H14   S    
C13   H45   S    
C10   C11   A    
C15   C21   A    
C20   C21   A    
C33   H9    S    
O11   Zn1   S    
C27   C28   A    
C40   H25   S    
C35   H11   S    
C32   H7    S    
C13   C14   A    
C1    O1    A    
C38   H21   S    
C44   O6    S    
