data_mof_unit_44504.cif
_audit_creation_date              2012-12-11T14:13:33-0500
_audit_creation_method            fapswitch 2.2
_symmetry_space_group_name_H-M    P1
_symmetry_Int_Tables_number       1
_space_group_crystal_system       triclinic
_cell_length_a                    17.504093
_cell_length_b                    17.410483
_cell_length_c                    17.545835
_cell_angle_alpha                 90.236884
_cell_angle_beta                  89.288007
_cell_angle_gamma                 90.538432
_cell_volume                      5346.48381908

loop_
_atom_site_label
_atom_site_type_symbol
_atom_type_description
_atom_site_fract_x
_atom_site_fract_y
_atom_site_fract_z
_atom_type_partial_charge
C1    C     C_R   0.603967 0.306566 0.109758 0.567753
C2    C     C_R   0.190857 0.104383 0.614169 0.540454
C3    C     C_3   0.219745 0.582433 0.078456 -0.288659
C4    C     C_3   0.200278 0.502194 0.046772 -0.149921
C5    C     C_3   0.147143 0.454507 0.098713 -0.979335
C6    C     C_3   0.396738 0.236324 0.127595 -0.376946
C7    C     C_3   0.326997 0.216085 0.078834 -0.278445
C8    C     C_3   0.250192 0.235768 0.116010 -0.896419
C9    C     C_3   0.779786 0.418305 0.083352 -0.314696
C10   C     C_3   0.797859 0.483305 0.028411 -0.229136
C11   C     C_3   0.868116 0.529497 0.053745 -0.963622
C12   C     C_3   0.580558 0.219962 0.923257 -0.310655
C13   C     C_R   0.918132 0.165421 0.645341 0.536417
C14   C     C_3   0.497513 0.204371 0.947089 -0.184694
C15   C     C_3   0.488817 0.122571 0.978118 -1.004806
C16   C     C_3   0.237897 0.395838 0.876123 -0.369860
C17   C     C_3   0.220266 0.326116 0.926852 -0.289939
C18   C     C_3   0.237929 0.248974 0.889051 -0.888897
C19   C     C_3   0.418863 0.780704 0.916153 -0.316590
C20   C     C_3   0.481990 0.798680 0.972018 -0.237207
C21   C     C_3   0.526012 0.871684 0.949033 -0.964277
C22   C     C_3   0.765328 0.600984 0.874331 -0.334097
C23   C     C_3   0.786534 0.669834 0.925435 -0.297091
C24   C     C_R   0.808616 0.892775 0.611973 0.521810
C25   C     C_3   0.772815 0.748162 0.889324 -0.902908
C26   C     C_3   0.081552 0.279536 0.584067 -0.323497
C27   C     C_3   0.010067 0.294860 0.538357 -0.210156
C28   C     C_3   0.013848 0.376727 0.506228 -0.940934
C29   C     C_3   0.731892 0.094018 0.611945 -0.306303
C30   C     C_3   0.712752 0.167724 0.568858 -0.330686
C31   C     C_3   0.626920 0.174763 0.556905 -0.917455
C32   C     C_3   0.920217 0.728174 0.553159 -0.361205
C33   C     C_3   0.961123 0.667856 0.601824 -0.182929
C34   C     C_3   0.952871 0.587244 0.567899 -1.018779
C35   C     C_R   0.107921 0.192610 0.390943 0.557823
C36   C     C_3   0.266319 0.902924 0.610108 -0.312975
C37   C     C_3   0.284696 0.827361 0.568966 -0.324998
C38   C     C_3   0.370542 0.818977 0.555584 -0.928322
C39   C     C_3   0.094332 0.730419 0.389121 -0.317146
C40   C     C_3   0.165607 0.708974 0.433988 -0.331233
C41   C     C_3   0.171304 0.622158 0.443692 -0.919317
C42   C     C_3   0.729807 0.918198 0.450329 -0.384273
C43   C     C_3   0.673729 0.968327 0.406611 -0.182153
C44   C     C_3   0.595630 0.968195 0.445765 -1.030708
C45   C     C_3   0.898820 0.262993 0.373500 -0.364535
C46   C     C_R   0.167859 0.918227 0.356314 0.540899
C47   C     C_3   0.825094 0.277020 0.419801 -0.278610
C48   C     C_3   0.796502 0.358968 0.410778 -0.937527
C49   C     C_3   0.271295 0.078902 0.442909 -0.363917
C50   C     C_3   0.327101 0.034786 0.390723 -0.177111
C51   C     C_3   0.409106 0.041982 0.417438 -1.043131
C52   C     C_R   0.892768 0.807539 0.390153 0.526164
C53   C     C_R   0.842095 0.072649 0.351730 0.541281
C54   C     C_R   0.589901 0.680256 0.134447 0.169163
C55   C     C_R   0.301751 0.610599 0.091535 0.192906
C56   C     C_R   0.411527 0.322310 0.136791 0.139559
C57   C     C_R   0.663109 0.578121 0.145968 0.557055
C58   C     C_R   0.696877 0.392275 0.098242 0.148985
C59   C     C_R   0.609721 0.301386 0.907988 0.186719
C60   C     C_R   0.322748 0.411893 0.864020 0.147772
C61   C     C_R   0.393302 0.697273 0.901225 0.151379
C62   C     C_R   0.679667 0.589736 0.864776 0.167176
C63   C     C_R   0.106038 0.197206 0.601661 0.165770
C64   C     C_R   0.816174 0.090579 0.629648 0.095292
C65   C     C_R   0.893491 0.800721 0.593654 0.180151
C66   C     C_R   0.181949 0.908686 0.629645 0.091137
C67   C     C_R   0.092882 0.815455 0.371757 0.087389
C68   C     C_R   0.395019 0.694433 0.106032 0.538097
C69   C     C_R   0.801282 0.892774 0.407925 0.197298
C70   C     C_R   0.913450 0.177628 0.363281 0.096174
C71   C     C_R   0.198856 0.106486 0.405421 0.170401
C72   C     C_R   0.680709 0.318627 0.122426 -0.131968
C73   C     C_R   0.638631 0.642767 0.183393 -0.100490
C74   C     C_R   0.317349 0.686518 0.110338 -0.146162
C75   C     C_R   0.365550 0.363449 0.187405 -0.090528
C76   C     C_R   0.641762 0.637929 0.815579 -0.101901
C77   C     C_R   0.685589 0.316451 0.889571 -0.136996
C78   C     C_R   0.364814 0.367397 0.812780 -0.075863
C79   C     C_R   0.341433 0.427193 0.148927 0.559506
C80   C     C_R   0.320798 0.680951 0.876451 -0.125062
C81   C     C_R   0.144880 0.857034 0.678176 -0.099907
C82   C     C_R   0.178614 0.181648 0.627435 -0.129692
C83   C     C_R   0.849868 0.142625 0.678347 -0.111573
C84   C     C_R   0.818831 0.814179 0.616888 -0.114262
C85   C     C_R   0.186062 0.181758 0.383801 -0.116884
C86   C     C_R   0.146744 0.849218 0.324458 -0.111015
C87   C     C_R   0.814672 0.818093 0.384802 -0.117884
C88   C     C_R   0.866539 0.136548 0.313582 -0.100874
C89   C     C_2   0.712291 0.642312 0.695108 -0.175072
C90   C     C_R   0.577603 0.662701 0.853401 0.557672
C91   C     C_2   0.282972 0.799078 0.816972 -0.174106
C92   C     C_2   0.284944 0.357019 0.701682 -0.143732
C93   C     C_2   0.745689 0.189158 0.861287 -0.151890
C94   C     C_2   0.801304 0.274590 0.174843 -0.168228
C95   C     C_2   0.359698 0.288538 0.304791 -0.161142
C96   C     C_2   0.191238 0.747923 0.140582 -0.156729
C97   C     C_2   0.643330 0.716301 0.301966 -0.173258
C98   C     C_2   0.314416 0.233056 0.349350 -0.158580
C99   C     C_2   0.852211 0.215879 0.201621 -0.153544
C100  C     C_2   0.686782 0.769335 0.350036 -0.148124
C101  C     C_R   0.694192 0.394427 0.894232 0.541363
C102  C     C_2   0.151795 0.793053 0.199052 -0.150452
C103  C     C_2   0.227169 0.848964 0.785322 -0.137183
C104  C     C_2   0.765309 0.685232 0.645929 -0.154447
C105  C     C_2   0.790750 0.148530 0.803272 -0.156627
C106  C     C_2   0.225206 0.305349 0.675806 -0.172172
C107  C     C_2   0.674685 0.678711 0.750836 -0.121798
C108  C     C_2   0.263246 0.738011 0.858720 -0.160068
C109  C     C_2   0.337721 0.326851 0.745607 -0.134849
C110  C     C_2   0.748544 0.265976 0.865663 -0.151756
C111  C     C_2   0.737218 0.258406 0.137069 -0.157487
C112  C     C_R   0.428711 0.344216 0.850178 0.509365
C113  C     C_2   0.325507 0.334126 0.254927 -0.127096
C114  C     C_2   0.267674 0.750079 0.134772 -0.148011
C115  C     C_2   0.679209 0.676067 0.247705 -0.125184
C116  C     C_2   0.241433 0.244787 0.369696 -0.155353
C117  C     C_2   0.822286 0.166422 0.250883 -0.139700
C118  C     C_2   0.759364 0.756041 0.368988 -0.159312
C119  C     C_2   0.187660 0.812912 0.262999 -0.120574
C120  C     C_2   0.176432 0.815730 0.740704 -0.155637
C121  C     C_2   0.755400 0.759657 0.630580 -0.156919
C122  C     C_2   0.811898 0.183997 0.738816 -0.127835
C123  C     C_R   0.307707 0.604152 0.889570 0.565809
C124  C     C_2   0.239594 0.238758 0.640518 -0.161785
C125  C     C_3   0.566959 0.208174 0.186702 -0.354560
C126  C     C_3   0.689925 0.497401 0.244533 -0.287272
C127  C     C_3   0.433528 0.728434 0.224745 -0.311657
C128  C     C_3   0.334339 0.516163 0.245733 -0.284240
C129  C     C_3   0.498090 0.691633 0.754991 -0.291568
C130  C     C_3   0.732585 0.434474 0.776764 -0.311625
C131  C     C_3   0.519071 0.348579 0.754242 -0.262790
C132  C     C_3   0.211563 0.566992 0.811539 -0.349654
C133  C     C_3   0.992853 0.833562 0.744399 -0.283086
C134  C     C_R   0.078104 0.834939 0.644576 0.545168
C135  C     C_3   0.279508 0.068372 0.700141 -0.305344
C136  C     C_3   0.996082 0.179400 0.748346 -0.261720
C137  C     C_3   0.735140 0.932483 0.711028 -0.310204
C138  C     C_3   0.070709 0.270029 0.295305 -0.340929
C139  C     C_3   0.154046 0.001142 0.256795 -0.263323
C140  C     C_3   0.933708 0.731135 0.294042 -0.313235
C141  C     C_3   0.835171 0.984456 0.254427 -0.284928
C142  C     C_3   0.600016 0.766417 0.123811 -0.333866
C143  C     C_3   0.668031 0.788183 0.071522 -0.297896
C144  C     C_3   0.746220 0.775331 0.106907 -0.899763
H1    H     H_    0.716002 0.580217 0.695534 0.126185
H2    H     H_    0.913091 0.228539 0.202118 0.126545
H3    H     H_    0.444481 0.208227 0.099740 0.226932
H4    H     H_    0.390970 0.207515 0.183540 0.184019
H5    H     H_    0.915526 0.490430 0.068480 0.261126
H6    H     H_    0.888826 0.566971 0.006987 0.241604
H7    H     H_    0.853664 0.565757 0.104025 0.286174
H8    H     H_    0.813185 0.456430 0.973335 0.218221
H9    H     H_    0.749436 0.522189 0.021511 0.215875
H10   H     H_    0.805332 0.433294 0.138847 0.226871
H11   H     H_    0.812589 0.368457 0.061091 0.154123
H12   H     H_    0.522282 0.115198 0.030843 0.301151
H13   H     H_    0.660947 0.824350 0.358155 0.155620
H14   H     H_    0.427873 0.109808 0.990907 0.245496
H15   H     H_    0.508920 0.080239 0.934925 0.265234
H16   H     H_    0.479122 0.247176 0.989399 0.210323
H17   H     H_    0.458887 0.206110 0.897934 0.218201
H18   H     H_    0.589595 0.186210 0.870102 0.180749
H19   H     H_    0.616981 0.197025 0.969149 0.190708
H20   H     H_    0.210056 0.244542 0.832697 0.262625
H21   H     H_    0.300400 0.241115 0.882277 0.246190
H22   H     H_    0.215603 0.201794 0.925677 0.237378
H23   H     H_    0.251568 0.332273 0.980968 0.206624
H24   H     H_    0.090850 0.802599 0.193596 0.119260
H25   H     H_    0.158289 0.326416 0.941531 0.187814
H26   H     H_    0.211488 0.443794 0.905019 0.199566
H27   H     H_    0.206905 0.389972 0.821924 0.177701
H28   H     H_    0.485873 0.918302 0.934361 0.263499
H29   H     H_    0.561065 0.892642 0.996972 0.244397
H30   H     H_    0.564004 0.859854 0.899255 0.282915
H31   H     H_    0.453903 0.811229 0.027177 0.219209
H32   H     H_    0.522107 0.750909 0.977490 0.217366
H33   H     H_    0.435407 0.806911 0.861061 0.228910
H34   H     H_    0.368677 0.813680 0.937213 0.156456
H35   H     H_    0.240886 0.909631 0.780060 0.124983
H36   H     H_    0.799219 0.750971 0.831494 0.259575
H37   H     H_    0.710906 0.760267 0.886301 0.254417
H38   H     H_    0.799315 0.793732 0.924969 0.239970
H39   H     H_    0.755391 0.665259 0.980630 0.210976
H40   H     H_    0.848540 0.667103 0.937401 0.191063
H41   H     H_    0.791150 0.550943 0.899417 0.201094
H42   H     H_    0.794470 0.607127 0.818159 0.189453
H43   H     H_    0.027570 0.418500 0.552190 0.255974
H44   H     H_    0.058284 0.381462 0.460778 0.297718
H45   H     H_    0.958067 0.393231 0.482745 0.253789
H46   H     H_    0.817950 0.656865 0.634662 0.161046
H47   H     H_    0.004829 0.251022 0.494183 0.223180
H48   H     H_    0.957666 0.292384 0.573965 0.216686
H49   H     H_    0.071081 0.310344 0.638303 0.195466
H50   H     H_    0.130564 0.307551 0.553807 0.190392
H51   H     H_    0.596345 0.177343 0.612711 0.266972
H52   H     H_    0.615192 0.228218 0.524969 0.249042
H53   H     H_    0.605082 0.125078 0.523544 0.270403
H54   H     H_    0.733068 0.219195 0.600584 0.203437
H55   H     H_    0.741797 0.166349 0.512318 0.193467
H56   H     H_    0.714496 0.046022 0.575040 0.227572
H57   H     H_    0.800020 0.087332 0.809921 0.122547
H58   H     H_    0.698154 0.091218 0.665932 0.195909
H59   H     H_    0.892050 0.568758 0.566732 0.267303
H60   H     H_    0.976590 0.585928 0.508884 0.284037
H61   H     H_    0.984822 0.545946 0.603152 0.258555
H62   H     H_    0.023379 0.680770 0.602421 0.222866
H63   H     H_    0.939770 0.667921 0.661695 0.216586
H64   H     H_    0.871336 0.702071 0.522187 0.198501
H65   H     H_    0.962120 0.746000 0.509570 0.191192
H66   H     H_    0.400758 0.817759 0.610878 0.260660
H67   H     H_    0.381878 0.764421 0.524641 0.249851
H68   H     H_    0.169696 0.317762 0.699434 0.129624
H69   H     H_    0.393110 0.867461 0.520721 0.267572
H70   H     H_    0.263595 0.777504 0.602805 0.211426
H71   H     H_    0.256198 0.826998 0.512800 0.190683
H72   H     H_    0.283975 0.949052 0.570821 0.227482
H73   H     H_    0.301030 0.907814 0.662246 0.186232
H74   H     H_    0.176091 0.593487 0.387167 0.264590
H75   H     H_    0.222886 0.608616 0.477113 0.249348
H76   H     H_    0.120216 0.599471 0.474644 0.266654
H77   H     H_    0.218190 0.730072 0.404396 0.203877
H78   H     H_    0.162043 0.735859 0.491425 0.193694
H79   H     H_    0.671243 0.740848 0.752822 0.147644
H80   H     H_    0.045290 0.712821 0.424545 0.231506
H81   H     H_    0.092908 0.697499 0.334762 0.195238
H82   H     H_    0.564531 0.913626 0.433916 0.272550
H83   H     H_    0.601148 0.975879 0.508370 0.291067
H84   H     H_    0.562973 0.017216 0.423809 0.269149
H85   H     H_    0.694355 0.028879 0.407428 0.220866
H86   H     H_    0.667808 0.949863 0.346332 0.218740
H87   H     H_    0.700475 0.867648 0.476422 0.199827
H88   H     H_    0.748587 0.954949 0.497174 0.198654
H89   H     H_    0.782139 0.369666 0.350359 0.255076
H90   H     H_    0.204087 0.728121 0.875867 0.162552
H91   H     H_    0.744222 0.366991 0.446303 0.250495
H92   H     H_    0.840253 0.401382 0.428970 0.262899
H93   H     H_    0.778968 0.237488 0.400467 0.201985
H94   H     H_    0.835941 0.265838 0.481026 0.186932
H95   H     H_    0.945563 0.292985 0.400777 0.241837
H96   H     H_    0.895088 0.291654 0.317662 0.189612
H97   H     H_    0.428914 0.102726 0.417134 0.269439
H98   H     H_    0.414459 0.018294 0.475826 0.291513
H99   H     H_    0.445512 0.008449 0.377535 0.266320
H100  H     H_    0.312986 0.972495 0.392470 0.219265
H101  H     H_    0.351641 0.266219 0.741243 0.149907
H102  H     H_    0.324005 0.054347 0.330664 0.223833
H103  H     H_    0.300078 0.128132 0.471586 0.201421
H104  H     H_    0.254275 0.038488 0.488055 0.195631
H105  H     H_    0.339509 0.806197 0.792908 0.130799
H106  H     H_    0.798515 0.295277 0.842215 0.175294
H107  H     H_    0.724743 0.199602 0.119921 0.163448
H108  H     H_    0.264481 0.344236 0.257804 0.142029
H109  H     H_    0.297443 0.799933 0.157627 0.177470
H110  H     H_    0.740945 0.670933 0.246519 0.147293
H111  H     H_    0.218860 0.302569 0.367793 0.165464
H112  H     H_    0.760927 0.155581 0.252512 0.148705
H113  H     H_    0.781838 0.698397 0.362967 0.167818
H114  H     H_    0.247716 0.801965 0.272216 0.123962
H115  H     H_    0.163946 0.754496 0.744115 0.145620
H116  H     H_    0.270699 0.417304 0.707924 0.121768
H117  H     H_    0.698985 0.784103 0.638226 0.169263
H118  H     H_    0.801308 0.244326 0.728626 0.130330
H119  H     H_    0.297790 0.224545 0.623833 0.167440
H120  H     H_    0.539009 0.250296 0.225698 0.140320
H121  H     H_    0.624009 0.193351 0.208560 0.162698
H122  H     H_    0.532440 0.154443 0.188414 0.173839
H123  H     H_    0.627294 0.484917 0.245557 0.125790
H124  H     H_    0.705752 0.535641 0.292622 0.164607
H125  H     H_    0.718988 0.442068 0.253912 0.157812
H126  H     H_    0.461079 0.671931 0.233955 0.140213
H127  H     H_    0.706731 0.154296 0.894279 0.122930
H128  H     H_    0.374495 0.727280 0.248823 0.143200
H129  H     H_    0.465762 0.772695 0.256989 0.169532
H130  H     H_    0.396854 0.525368 0.236276 0.122618
H131  H     H_    0.323648 0.479801 0.296584 0.158232
H132  H     H_    0.309200 0.573168 0.258285 0.170017
H133  H     H_    0.483909 0.629045 0.754354 0.126828
H134  H     H_    0.537052 0.706566 0.706906 0.163441
H135  H     H_    0.444140 0.722585 0.744856 0.159323
H136  H     H_    0.675948 0.460737 0.766359 0.136861
H137  H     H_    0.733942 0.375705 0.751883 0.144139
H138  H     H_    0.812020 0.330719 0.198628 0.127884
H139  H     H_    0.776697 0.468975 0.746162 0.172111
H140  H     H_    0.527355 0.410308 0.769439 0.121567
H141  H     H_    0.483032 0.342766 0.702929 0.154940
H142  H     H_    0.576116 0.325354 0.739115 0.166664
H143  H     H_    0.255354 0.541500 0.772676 0.138636
H144  H     H_    0.194645 0.624060 0.790297 0.163217
H145  H     H_    0.159769 0.529937 0.808997 0.171569
H146  H     H_    0.981290 0.895018 0.731697 0.130328
H147  H     H_    0.032804 0.828853 0.792753 0.158294
H148  H     H_    0.937887 0.806850 0.762791 0.166826
H149  H     H_    0.420713 0.278716 0.299432 0.123332
H150  H     H_    0.233259 0.041542 0.735430 0.133215
H151  H     H_    0.293095 0.126590 0.722299 0.157680
H152  H     H_    0.331769 0.033726 0.707027 0.168732
H153  H     H_    0.009360 0.117226 0.741521 0.122748
H154  H     H_    0.953593 0.188159 0.794930 0.164491
H155  H     H_    0.049599 0.208865 0.765803 0.160990
H156  H     H_    0.783968 0.964670 0.736259 0.138535
H157  H     H_    0.730811 0.874405 0.736830 0.147088
H158  H     H_    0.682019 0.963340 0.726603 0.174519
H159  H     H_    0.042487 0.220382 0.266567 0.142510
H160  H     H_    0.155371 0.709012 0.109466 0.121212
H161  H     H_    0.128848 0.279049 0.270742 0.155683
H162  H     H_    0.037265 0.322064 0.282348 0.177615
H163  H     H_    0.094113 0.010020 0.276941 0.125339
H164  H     H_    0.155509 0.959699 0.208565 0.160935
H165  H     H_    0.175662 0.057073 0.234924 0.163185
H166  H     H_    0.967621 0.778867 0.267994 0.138657
H167  H     H_    0.876582 0.727636 0.267247 0.146788
H168  H     H_    0.963429 0.676667 0.280610 0.175865
H169  H     H_    0.896842 0.973233 0.264378 0.127355
H170  H     H_    0.828190 0.022216 0.204265 0.159848
H171  H     H_    0.581781 0.722003 0.300820 0.126718
H172  H     H_    0.807777 0.928529 0.240371 0.167229
H173  H     H_    0.748942 0.802143 0.164373 0.259369
H174  H     H_    0.758880 0.713241 0.110647 0.253952
H175  H     H_    0.791177 0.802233 0.070397 0.239697
H176  H     H_    0.663578 0.756503 0.016825 0.210899
H177  H     H_    0.664672 0.850391 0.058685 0.192224
H178  H     H_    0.549697 0.791678 0.099332 0.201570
H179  H     H_    0.606148 0.796072 0.179463 0.188919
H180  H     H_    0.091984 0.484626 0.107245 0.254054
H181  H     H_    0.135183 0.398151 0.071306 0.235411
H182  H     H_    0.339666 0.177683 0.353176 0.160362
H183  H     H_    0.171806 0.443628 0.155265 0.305702
H184  H     H_    0.165780 0.510887 0.995105 0.203369
H185  H     H_    0.250967 0.469872 0.029618 0.197133
H186  H     H_    0.188320 0.589785 0.133374 0.198092
H187  H     H_    0.196108 0.622764 0.036110 0.137917
H188  H     H_    0.245994 0.211277 0.174285 0.264001
H189  H     H_    0.241967 0.298733 0.118373 0.254531
H190  H     H_    0.203328 0.210857 0.081433 0.236698
H191  H     H_    0.333196 0.244116 0.022576 0.203375
H192  H     H_    0.326767 0.153076 0.068578 0.188453
N1    N     N_R   0.574080 0.369570 0.076720 -0.126119
N2    N     N_R   0.130430 0.074080 0.576720 -0.123196
N3    N     N_R   0.925920 0.130430 0.576720 -0.121445
N4    N     N_R   0.869570 0.925920 0.576720 -0.123260
N5    N     N_R   0.074080 0.130430 0.423280 -0.124658
N6    N     N_R   0.130430 0.925920 0.423280 -0.114873
N7    N     N_R   0.925920 0.869570 0.423280 -0.122991
N8    N     N_R   0.869570 0.074080 0.423280 -0.117146
N9    N     N_R   0.574050 0.630410 0.076720 -0.111407
N10   N     N_R   0.369590 0.574050 0.076720 -0.083711
N11   N     N_R   0.425950 0.369590 0.076720 -0.108070
N12   N     N_R   0.630430 0.574080 0.076720 -0.125038
N13   N     N_R   0.630410 0.425950 0.076720 -0.097909
N14   N     N_R   0.574050 0.369590 0.923280 -0.079803
N15   N     N_R   0.369590 0.425950 0.923280 -0.105269
N16   N     N_R   0.425950 0.630410 0.923280 -0.098893
N17   N     N_R   0.630410 0.574050 0.923280 -0.111383
N18   N     N_R   0.074050 0.130410 0.576720 -0.093687
N19   N     N_R   0.869590 0.074050 0.576720 -0.097818
N20   N     N_R   0.925950 0.869590 0.576720 -0.095171
N21   N     N_R   0.130410 0.925950 0.576720 -0.099605
N22   N     N_R   0.074050 0.869590 0.423280 -0.096235
N23   N     N_R   0.425920 0.630430 0.076720 -0.121288
N24   N     N_R   0.869590 0.925950 0.423280 -0.094277
N25   N     N_R   0.925950 0.130410 0.423280 -0.102719
N26   N     N_R   0.130410 0.074050 0.423280 -0.093881
N27   N     N_R   0.369570 0.425920 0.076720 -0.123286
N28   N     N_R   0.574080 0.630430 0.923280 -0.125468
N29   N     N_R   0.630430 0.425920 0.923280 -0.121038
N30   N     N_R   0.425920 0.369570 0.923280 -0.121998
N31   N     N_R   0.369570 0.574080 0.923280 -0.126057
N32   N     N_R   0.074080 0.869570 0.576720 -0.115623
Ni1   Ni    Ni4+2 0.500000 0.370760 0.000000 0.178629
Ni2   Ni    Ni4+2 0.629240 0.500000 0.000000 0.169858
Ni3   Ni    Ni4+2 0.500000 0.629240 0.000000 0.168842
Ni4   Ni    Ni4+2 0.370760 0.500000 0.000000 0.180661
Ni5   Ni    Ni4+2 0.000000 0.870760 0.500000 0.174028
Ni6   Ni    Ni4+2 0.129240 0.000000 0.500000 0.173982
Ni7   Ni    Ni4+2 0.000000 0.129240 0.500000 0.176687
Ni8   Ni    Ni4+2 0.870760 0.000000 0.500000 0.171599
O1    O     O_3   0.569985 0.235166 0.110656 -0.645407
O2    O     O_3   0.260410 0.069209 0.622093 -0.652827
O3    O     O_3   0.971360 0.212613 0.679675 -0.640693
O4    O     O_3   0.741642 0.929367 0.630752 -0.652552
O5    O     O_3   0.071836 0.260354 0.375227 -0.646337
O6    O     O_3   0.202131 0.977314 0.316149 -0.644071
O7    O     O_3   0.928690 0.739452 0.374060 -0.651249
O8    O     O_3   0.798138 0.015149 0.319753 -0.649088
O9    O     O_3   0.715918 0.528050 0.174088 -0.630847
O10   O     O_3   0.435086 0.748773 0.146861 -0.658485
O11   O     O_3   0.298050 0.485096 0.180800 -0.624099
O12   O     O_3   0.528394 0.716581 0.825534 -0.630977
O13   O     O_3   0.750102 0.434652 0.855173 -0.659803
O14   O     O_3   0.488494 0.305353 0.815695 -0.638680
O15   O     O_3   0.236675 0.570144 0.887863 -0.659729
O16   O     O_3   0.020357 0.793420 0.679628 -0.648587

loop_
_geom_bond_atom_site_label_1
_geom_bond_atom_site_label_2
_ccdc_geom_bond_type
C96   C102  S    
C62   N17   A    
C77   C101  A    
C19   C20   S    
C8    H188  S    
C79   O11   S    
C41   H74   S    
C18   H22   S    
C81   C134  A    
C4    H185  S    
C113  H108  S    
C135  H150  S    
C117  H112  S    
C36   C66   S    
C92   C109  D    
C2    N2    A    
C130  O13   S    
C61   C80   A    
C143  C144  S    
C74   C114  S    
C94   C111  D    
C138  H159  S    
N19   Ni8   S    
C138  H161  S    
C25   H37   S    
C127  H126  S    
C102  H24   S    
N16   Ni3   S    
C86   C119  S    
C97   C115  D    
C93   C110  D    
C94   H138  S    
C42   H87   S    
C29   C64   S    
C90   N28   A    
C25   H38   S    
C96   C114  D    
C82   C124  S    
C45   C47   S    
C141  H169  S    
N18   Ni7   S    
C87   C118  S    
C28   H43   S    
C131  H141  S    
C122  H118  S    
N11   Ni1   S    
N23   Ni3   S    
C43   C44   S    
C37   C38   S    
C47   H94   S    
N1    N13   A    
C11   H6    S    
N4    Ni8   S    
C142  H178  S    
C137  H158  S    
N6    Ni6   S    
N9    N12   A    
C92   C106  S    
C76   C107  S    
C21   H29   S    
C17   H23   S    
C13   O3    S    
C39   H80   S    
C51   H98   S    
C26   H50   S    
C37   H70   S    
C24   O4    S    
C41   H76   S    
C56   N11   A    
C5    H181  S    
C29   H58   S    
C125  H121  S    
C85   C116  S    
C91   C103  S    
C4    C5    S    
N15   N30   A    
C36   H73   S    
C133  O16   S    
C6    C7    S    
C21   H28   S    
C40   H77   S    
C129  O12   S    
C90   O12   S    
C14   H17   S    
C32   C33   S    
C12   H19   S    
C31   H51   S    
C32   H65   S    
C19   C61   S    
C5    H180  S    
C125  H120  S    
C44   H83   S    
C49   H104  S    
C20   H31   S    
C119  H114  S    
C20   C21   S    
C49   C71   S    
C106  C124  D    
C132  H145  S    
C50   H102  S    
C75   C79   A    
C102  C119  D    
C32   C65   S    
C80   C123  A    
C8    H190  S    
C136  O3    S    
C142  H179  S    
C28   H45   S    
C43   H86   S    
C79   N27   A    
C7    C8    S    
C89   H1    S    
C60   C78   A    
C29   C30   S    
C133  H147  S    
C36   C37   S    
C140  H167  S    
C98   H182  S    
C68   C74   A    
C4    H184  S    
C16   C60   S    
C69   N24   A    
N3    Ni7   S    
C135  H151  S    
C3    C55   S    
C100  H13   S    
C52   N7    A    
C65   N20   A    
C34   H60   S    
C75   C113  S    
N10   Ni4   S    
C32   H64   S    
C9    C10   S    
C13   N3    A    
C48   H89   S    
C24   N4    A    
C127  O10   S    
C106  H68   S    
C5    H183  S    
C56   C75   A    
N26   Ni6   S    
N2    N18   A    
C126  H124  S    
C127  H129  S    
C132  O15   S    
C11   H5    S    
C53   N8    A    
C34   H61   S    
C108  H90   S    
C1    C72   A    
C63   C82   A    
N11   N27   A    
C15   H14   S    
C39   C40   S    
C65   C84   A    
C139  H164  S    
C84   C121  S    
C67   N22   A    
C7    H192  S    
C22   H42   S    
C26   C63   S    
C45   H95   S    
C128  H131  S    
C23   H39   S    
C130  H139  S    
C99   C117  D    
C105  H57   S    
C93   H127  S    
C17   C18   S    
C129  H134  S    
C38   H66   S    
N30   Ni1   S    
N31   Ni4   S    
C11   H7    S    
C30   H54   S    
C27   H48   S    
N2    Ni6   S    
C3    C4    S    
C97   C100  S    
C136  H153  S    
C57   O9    S    
C3    H186  S    
C33   H63   S    
C22   C23   S    
C58   N13   A    
C51   H99   S    
C80   C108  S    
C55   C74   A    
C8    H189  S    
C36   H72   S    
C6    H3    S    
C35   C85   A    
C16   H27   S    
C20   H32   S    
C52   O7    S    
C105  C122  D    
C78   C109  S    
C83   C122  S    
C48   H91   S    
C144  H173  S    
C12   H18   S    
C138  H162  S    
C9    H11   S    
C54   N9    A    
C49   C50   S    
C14   C15   S    
C134  O16   S    
C96   H160  S    
C126  O9    S    
C44   H82   S    
C42   H88   S    
N9    Ni3   S    
C53   O8    S    
C103  C120  D    
C110  H106  S    
C26   C27   S    
N28   Ni3   S    
C130  H137  S    
C28   H44   S    
C30   C31   S    
C132  H143  S    
C9    C58   S    
C10   H8    S    
C47   H93   S    
C12   C59   S    
C18   H20   S    
C46   O6    S    
C140  H166  S    
C16   C17   S    
C70   N25   A    
C137  H157  S    
C101  O13   S    
C69   C87   A    
C136  H155  S    
C72   C111  S    
C140  O7    S    
C62   C76   A    
C51   H97   S    
C39   C67   S    
C10   H9    S    
C41   H75   S    
C18   H21   S    
C64   N19   A    
N16   N31   A    
C25   H36   S    
C143  H177  S    
C60   N15   A    
N17   N28   A    
C124  H119  S    
C141  O8    S    
C40   H78   S    
C46   N6    A    
N4    N20   A    
C143  H176  S    
C64   C83   A    
C15   H15   S    
C144  H175  S    
C54   C73   A    
C139  H165  S    
C68   N23   A    
C29   H56   S    
C89   C107  D    
C50   C51   S    
C61   N16   A    
C44   H84   S    
C128  H130  S    
C49   H103  S    
C54   C142  S    
C63   N18   A    
C2    C82   A    
C100  C118  D    
C42   C43   S    
C38   H69   S    
C31   H53   S    
C91   H105  S    
C35   O5    S    
C114  H109  S    
C67   C86   A    
C141  H170  S    
C45   C70   S    
C91   C108  D    
C131  H142  S    
C43   H85   S    
C120  H115  S    
C3    H187  S    
C13   C83   A    
N14   N29   A    
C123  N31   A    
C73   C115  S    
C133  H146  S    
C66   C81   A    
N8    N25   A    
C140  H168  S    
C115  H110  S    
C101  N29   A    
C103  H35   S    
N13   Ni2   S    
C130  H136  S    
N27   Ni4   S    
C39   H81   S    
C16   H26   S    
C21   H30   S    
C142  C143  S    
C78   C112  A    
N20   Ni5   S    
N17   Ni2   S    
C26   H49   S    
C134  N32   A    
C37   H71   S    
C76   C90   A    
C116  H111  S    
C125  H122  S    
C126  H125  S    
C70   C88   A    
C59   C77   A    
C125  O1    S    
C95   C98   S    
C118  H113  S    
N21   N32   A    
C68   O10   S    
C81   C120  S    
N21   Ni6   S    
C95   H149  S    
N7    Ni5   S    
C50   H100  S    
N32   Ni5   S    
C17   H25   S    
C139  H163  S    
C111  H107  S    
C128  O11   S    
C7    H191  S    
N5    Ni7   S    
C128  H132  S    
C121  H117  S    
C71   C85   A    
C112  O14   S    
C129  H133  S    
C38   H67   S    
N8    Ni8   S    
C93   C105  S    
C23   C25   S    
C30   H55   S    
C141  H172  S    
N3    N19   A    
C35   N5    A    
C27   H47   S    
C131  H140  S    
C92   H116  S    
N14   Ni1   S    
C136  H154  S    
C107  H79   S    
C1    O1    S    
C33   H62   S    
C133  H148  S    
C137  O4    S    
C10   C11   S    
C71   N26   A    
C31   H52   S    
C104  C121  D    
C42   C69   S    
C14   H16   S    
C135  H152  S    
C57   N12   A    
C22   C62   S    
C138  O5    S    
C6    H4    S    
C98   C116  D    
C47   C48   S    
C34   H59   S    
C131  O14   S    
C104  H46   S    
C33   C34   S    
C19   H34   S    
C15   H12   S    
C48   H92   S    
N22   Ni5   S    
C144  H174  S    
N29   Ni2   S    
C40   C41   S    
C99   H2    S    
C12   C14   S    
C9    H10   S    
C55   N10   A    
C127  H128  S    
C89   C104  S    
C126  H123  S    
C1    N1    A    
N5    N26   A    
N6    N22   A    
C139  O6    S    
C19   H33   S    
C57   C73   A    
C52   C87   A    
C6    C56   S    
C59   N14   A    
C22   H41   S    
C24   C84   A    
C45   H96   S    
C23   H40   S    
C66   N21   A    
C58   C72   A    
C132  H144  S    
N12   Ni2   S    
C94   C99   S    
C95   C113  D    
C129  H135  S    
C53   C88   A    
C112  N30   A    
C2    O2    S    
C77   C110  S    
N10   N23   A    
N15   Ni4   S    
C135  O2    S    
C109  H101  S    
N7    N24   A    
N1    Ni1   S    
C27   C28   S    
C97   H171  S    
N25   Ni7   S    
C137  H156  S    
N24   Ni8   S    
C88   C117  S    
C123  O15   S    
C46   C86   A    
