data_mof_unit_35705.cif
_audit_creation_date              2012-12-10T17:53:12-0500
_audit_creation_method            fapswitch 2.2
_symmetry_space_group_name_H-M    P1
_symmetry_Int_Tables_number       1
_space_group_crystal_system       triclinic
_cell_length_a                    14.719762
_cell_length_b                    14.687092
_cell_length_c                    27.797535
_cell_angle_alpha                 76.267337
_cell_angle_beta                  102.624527
_cell_angle_gamma                 114.754303
_cell_volume                      5252.76418197

loop_
_atom_site_label
_atom_site_type_symbol
_atom_type_description
_atom_site_fract_x
_atom_site_fract_y
_atom_site_fract_z
_atom_type_partial_charge
C1    C     C_R   0.880215 0.311981 0.508398 0.797556
C2    C     C_R   0.119453 0.687800 0.492363 0.783519
C3    C     C_R   0.007080 0.488570 0.900673 -0.078244
C4    C     C_R   0.997858 0.476404 0.105334 -0.080171
C5    C     C_R   0.915366 0.457673 0.868184 -0.006454
C6    C     C_R   0.088238 0.525598 0.135572 -0.008378
C7    C     C_R   0.823588 0.422835 0.886682 -0.152318
C8    C     C_R   0.179013 0.574787 0.115335 -0.152110
C9    C     C_R   0.100197 0.524090 0.881613 -0.059954
C10   C     C_R   0.905714 0.426558 0.126141 -0.049659
C11   C     C_R   0.002056 0.506489 0.645116 -0.092472
C12   C     C_R   0.996419 0.490380 0.356018 -0.041163
C13   C     C_R   0.909662 0.433453 0.023082 0.006279
C14   C     C_R   0.096289 0.519741 0.984395 0.003712
C15   C     C_R   0.093826 0.523987 0.034661 0.062911
C16   C     C_R   0.911053 0.443526 0.971057 0.063249
C17   C     C_R   0.000365 0.477796 0.054264 0.067871
C18   C     C_R   0.004907 0.483828 0.952173 0.066958
C19   C     C_R   0.820269 0.378210 0.044986 -0.238905
C20   C     C_R   0.187642 0.548358 0.965715 -0.231155
C21   C     C_R   0.816326 0.373104 0.095503 0.163760
C22   C     C_R   0.191448 0.549792 0.915641 0.162723
C23   C     C_R   0.001024 0.502837 0.592280 0.781970
C24   C     C_R   0.999058 0.497523 0.407969 0.796373
C25   C     C_R   0.821281 0.416249 0.936978 -0.215152
C26   C     C_R   0.181889 0.574496 0.065906 -0.215160
C27   C     C_R   0.811753 0.203872 0.513733 -0.048693
C28   C     C_R   0.186619 0.795100 0.492198 -0.052752
C29   C     C_R   0.780412 0.025612 0.523231 -0.207108
C30   C     C_R   0.216735 0.968114 0.496564 -0.194389
C31   C     C_R   0.847028 0.126803 0.518692 -0.207738
C32   C     C_R   0.149682 0.868836 0.492087 -0.203209
C33   C     C_R   0.708288 0.178205 0.512456 -0.250057
C34   C     C_R   0.290630 0.821835 0.496221 -0.239586
C35   C     C_R   0.638846 0.076501 0.516195 0.091900
C36   C     C_R   0.360003 0.919703 0.503718 0.090305
C37   C     C_R   0.676866 0.999938 0.521435 0.167452
C38   C     C_R   0.321392 0.993987 0.502535 0.164657
C39   C     C_R   0.532838 0.048969 0.513361 0.065354
C40   C     C_R   0.466270 0.945771 0.511732 0.064781
C41   C     C_R   0.508052 0.871592 0.519332 -0.216143
C42   C     C_R   0.491070 0.120632 0.512431 -0.215855
C43   C     C_R   0.611315 0.898442 0.524322 -0.235862
C44   C     C_R   0.387445 0.093111 0.507576 -0.228411
C45   C     C_R   0.916899 0.462637 0.817493 0.530259
C46   C     C_R   0.086280 0.525757 0.185601 0.530865
C47   C     C_R   0.731305 0.692917 0.428798 0.032606
C48   C     C_R   0.300984 0.359985 0.596921 0.031286
C49   C     C_R   0.794688 0.641628 0.429616 0.306220
C50   C     C_R   0.207276 0.362020 0.571966 0.347222
C51   C     C_R   0.721410 0.518428 0.497790 -0.066404
C52   C     C_R   0.291121 0.500739 0.511955 -0.053583
C53   C     C_R   0.640857 0.553035 0.490622 -0.061910
C54   C     C_R   0.382761 0.483215 0.528263 -0.053871
C55   C     C_R   0.647618 0.642130 0.455446 0.106693
C56   C     C_R   0.384537 0.407783 0.570405 0.075570
C57   C     C_R   0.554875 0.503855 0.517485 0.102663
C58   C     C_R   0.472387 0.537460 0.504531 0.107830
C59   C     C_R   0.482986 0.625474 0.469148 -0.243222
C60   C     C_R   0.548351 0.422263 0.556823 -0.228917
C61   C     C_R   0.568929 0.677335 0.446058 -0.191999
C62   C     C_R   0.466667 0.377369 0.583386 -0.190877
C63   C     C_R   0.096937 0.531592 0.829379 0.528313
C64   C     C_R   0.908031 0.432786 0.176704 0.527221
C65   C     C_R   0.970745 0.569350 0.710906 -0.090818
C66   C     C_R   0.974108 0.394191 0.291297 -0.134126
C67   C     C_R   0.968831 0.573328 0.659476 0.102475
C68   C     C_R   0.973097 0.396128 0.341389 0.125945
C69   C     C_R   0.038555 0.441697 0.682092 -0.249666
C70   C     C_R   0.019132 0.579513 0.320522 -0.279772
C71   C     C_R   0.040224 0.439717 0.732426 -0.109245
C72   C     C_R   0.019476 0.576251 0.270939 -0.097678
C73   C     C_R   0.005851 0.502883 0.747032 0.314548
C74   C     C_R   0.997249 0.483750 0.256167 0.328874
Cu1   Cu    Cu3+1 0.081740 0.475690 0.513040 0.935251
Cu2   Cu    Cu3+1 0.918260 0.524310 0.486960 0.928660
H1    H     H_    0.064707 0.390966 0.672104 0.152519
H2    H     H_    0.038191 0.652103 0.331223 0.143840
H3    H     H_    0.315518 0.764622 0.492927 0.141436
H4    H     H_    0.683499 0.239537 0.507106 0.149574
H5    H     H_    0.463188 0.791216 0.522910 0.148116
H6    H     H_    0.536261 0.198584 0.516649 0.141873
H7    H     H_    0.285445 0.559029 0.481017 0.143208
H8    H     H_    0.725803 0.456532 0.526716 0.141697
H9    H     H_    0.426944 0.658410 0.459581 0.131543
H10   H     H_    0.606447 0.392173 0.568868 0.132729
H11   H     H_    0.067562 0.388233 0.760249 0.141361
H12   H     H_    0.037137 0.645710 0.243897 0.145438
H13   H     H_    0.752454 0.400819 0.862180 0.183892
H14   H     H_    0.248828 0.614752 0.137638 0.184031
H15   H     H_    0.752279 0.333658 0.023537 0.136277
H16   H     H_    0.258311 0.566693 0.990227 0.138483
N1    N     N_R   0.006547 0.499309 0.799203 -0.458804
N2    N     N_R   0.997245 0.480480 0.204935 -0.458705
N3    N     N_R   0.795430 0.560780 0.467350 -0.194339
N4    N     N_R   0.204570 0.439220 0.532650 -0.206565
O1    O     O_R   0.977900 0.338120 0.517190 -0.585420
O2    O     O_R   0.022100 0.661880 0.482810 -0.575651
O3    O     O_R   0.839850 0.379180 0.495160 -0.586075
O4    O     O_R   0.160150 0.620820 0.504840 -0.581729
O5    O     O_R   0.069030 0.479490 0.580750 -0.567448
O6    O     O_R   0.930970 0.520510 0.419250 -0.580480
O7    O     O_R   0.930970 0.520550 0.558720 -0.594440
O8    O     O_R   0.069030 0.479450 0.441280 -0.583563
O9    O     O_2   0.829270 0.430541 0.786572 -0.552366
O10   O     O_2   0.172919 0.570777 0.214925 -0.550244
O11   O     O_2   0.822545 0.394204 0.197700 -0.558383
O12   O     O_2   0.182306 0.572915 0.808117 -0.555665
H17   H     H_    0.069414 0.849522 0.489395 0.149430
H18   H     H_    0.925329 0.144045 0.517891 0.147419
H19   H     H_    0.809762 0.967368 0.527190 0.136615
H20   H     H_    0.186838 0.024373 0.496184 0.127575
H21   H     H_    0.570348 0.744315 0.419275 0.161359
H22   H     H_    0.466415 0.313273 0.612102 0.139873
C75   C     C_3   0.120114 0.259294 0.575123 -0.366136
C76   C     C_3   0.051362 0.238176 0.613949 -0.798697
H23   H     H_    0.092585 0.234917 0.652313 0.233217
H24   H     H_    0.018616 0.295793 0.607565 0.270657
H25   H     H_    0.988251 0.163108 0.611796 0.233814
H26   H     H_    0.078999 0.248947 0.537433 0.199713
H27   H     H_    0.149038 0.197467 0.584242 0.153340
C77   C     C_3   0.839891 0.662813 0.381801 -0.340655
C78   C     C_3   0.947634 0.743834 0.382012 -0.784426
H28   H     H_    0.963198 0.797857 0.407594 0.241538
H29   H     H_    0.004136 0.709083 0.392980 0.255821
H30   H     H_    0.958313 0.787650 0.343747 0.213541
H31   H     H_    0.830294 0.592612 0.369923 0.220549
H32   H     H_    0.791890 0.689558 0.349809 0.149550
C79   C     C_3   0.752924 0.800677 0.399257 -0.422423
C80   C     C_3   0.783249 0.878111 0.434075 -0.841385
H33   H     H_    0.851474 0.877195 0.460579 0.244850
H34   H     H_    0.800908 0.955542 0.411763 0.245066
H35   H     H_    0.721690 0.861765 0.455642 0.253809
H36   H     H_    0.816132 0.828187 0.377277 0.222096
H37   H     H_    0.687295 0.803440 0.371244 0.197277
C81   C     C_3   0.309459 0.310260 0.651704 -0.421878
C82   C     C_3   0.296755 0.372620 0.684757 -0.789570
H38   H     H_    0.360465 0.448080 0.683458 0.259439
H39   H     H_    0.225245 0.384673 0.672239 0.252361
H40   H     H_    0.296469 0.332471 0.724015 0.236252
H41   H     H_    0.252968 0.231128 0.657355 0.204038
H42   H     H_    0.383602 0.305385 0.666313 0.208577
C83   C     C_3   0.942198 0.296568 0.377340 -0.442002
C84   C     C_3   0.830489 0.256686 0.382691 -0.803399
H43   H     H_    0.815060 0.310762 0.398404 0.253750
H44   H     H_    0.783636 0.245614 0.345714 0.263352
H45   H     H_    0.808718 0.182385 0.408083 0.245051
H46   H     H_    0.955274 0.238476 0.363564 0.199795
H47   H     H_    0.988518 0.305069 0.414526 0.215085
C85   C     C_3   0.933922 0.648411 0.620131 -0.359731
C86   C     C_3   0.920627 0.730512 0.639653 -0.873985
H48   H     H_    0.856940 0.696161 0.662114 0.258992
H49   H     H_    0.991334 0.773693 0.662362 0.256936
H50   H     H_    0.902706 0.784573 0.607507 0.243949
H51   H     H_    0.990481 0.688562 0.593573 0.208960
H52   H     H_    0.860500 0.605594 0.599105 0.226671
H53   H     H_    0.955896 0.322853 0.279234 0.133529
H54   H     H_    0.945467 0.617447 0.723880 0.151309
C87   C     C_3   0.715378 0.306049 0.114241 -0.339868
C88   C     C_3   0.717796 0.206553 0.146147 -0.765224
H55   H     H_    0.778404 0.220322 0.178484 0.269827
H56   H     H_    0.644208 0.160906 0.160388 0.235678
H57   H     H_    0.730835 0.161917 0.123130 0.233156
H58   H     H_    0.690616 0.347038 0.134018 0.242293
H59   H     H_    0.654036 0.285168 0.082486 0.169195
C89   C     C_3   0.295094 0.576002 0.902032 -0.348742
C90   C     C_3   0.347714 0.690176 0.884828 -0.745516
H60   H     H_    0.362189 0.731810 0.916044 0.227256
H61   H     H_    0.300992 0.718553 0.852941 0.281348
H62   H     H_    0.421121 0.706418 0.873073 0.234372
H63   H     H_    0.343832 0.553298 0.935105 0.169954
H64   H     H_    0.291833 0.531243 0.874300 0.235699
H65   H     H_    0.747638 0.392571 0.947738 0.137710
H66   H     H_    0.254180 0.617727 0.052817 0.138714
H67   H     H_    0.639908 0.839108 0.529785 0.151630
H68   H     H_    0.358803 0.150296 0.507355 0.144868

loop_
_geom_bond_atom_site_label_1
_geom_bond_atom_site_label_2
_ccdc_geom_bond_type
C66   C68   A    
C89   H64   S    
C75   H27   S    
C68   C83   S    
C70   H2    S    
C41   C43   A    
C74   N2    S    
C69   H1    S    
C42   H6    S    
C73   N1    S    
C45   N1    A    
C1    O3    A    
C65   C73   A    
C78   H28   S    
C90   H61   S    
C23   O5    A    
C27   C33   A    
Cu2   O3    S    
C12   C68   A    
C47   C79   S    
C35   C37   A    
C62   H22   S    
Cu2   N3    S    
C14   C15   A    
C9    C22   A    
C78   H29   S    
C26   H66   S    
Cu2   O2    S    
C83   C84   S    
C66   C74   A    
C55   C61   A    
Cu1   O1    S    
C8    C26   A    
C76   H23   S    
C30   C38   A    
C3    C18   A    
C60   C62   A    
C50   C75   S    
C86   H50   S    
C77   H31   S    
C69   C71   A    
C14   C18   A    
C15   C26   A    
C81   H42   S    
C79   H37   S    
C43   H67   S    
C23   O7    A    
C11   C67   A    
C65   C67   A    
C86   H48   S    
C80   H34   S    
C39   C42   A    
C24   O6    A    
C1    C27   S    
Cu2   O7    S    
C48   C50   A    
C28   C34   A    
C89   H63   S    
C85   H52   S    
C67   C85   S    
C21   C87   S    
C42   C44   A    
C84   H45   S    
C72   H12   S    
C52   C54   A    
Cu1   N4    S    
C90   H62   S    
C5    C7    A    
C77   C78   S    
C53   C55   A    
C10   C21   A    
Cu2   O6    S    
C83   H46   S    
C82   H40   S    
C54   C56   A    
C59   C61   A    
C70   C72   A    
C32   H17   S    
C13   C19   A    
C27   C31   A    
C88   H57   S    
C14   C20   A    
C28   C32   A    
C72   C74   A    
C1    O1    A    
C39   C40   A    
C71   C73   A    
C53   C57   A    
C84   H43   S    
C57   C60   A    
C6    C8    A    
C58   C59   A    
C5    C45   A    
C87   H59   S    
C30   H20   S    
C51   C53   A    
C88   H56   S    
C37   C43   A    
C52   H7    S    
C35   C39   A    
Cu1   Cu2   S    
C59   H9    S    
C38   C44   A    
C81   H41   S    
C3    C9    A    
C34   H3    S    
C84   H44   S    
C82   H39   S    
C87   C88   S    
C46   N2    A    
C36   C40   A    
C41   H5    S    
C49   N3    A    
C71   H11   S    
C4    C17   A    
C4    C6    A    
C40   C41   A    
C20   C22   A    
C85   H51   S    
C61   H21   S    
Cu1   O8    S    
C56   C62   A    
C20   H16   S    
C80   H35   S    
C8    H14   S    
C4    C10   A    
C90   H60   S    
C64   O11   S    
C47   C55   A    
C79   C80   S    
C54   C58   A    
C16   C25   A    
C48   C56   A    
C12   C70   A    
C60   H10   S    
C6    C46   A    
C19   C21   A    
C9    C63   A    
C48   C81   S    
C10   C64   A    
C44   H68   S    
C65   H54   S    
C3    C5    A    
C78   H30   S    
C11   C69   A    
C33   H4    S    
C15   C17   A    
C47   C49   A    
C82   H38   S    
C12   C24   S    
C7    C25   A    
C76   H25   S    
C13   C17   A    
C88   H55   S    
C36   C38   A    
C80   H33   S    
C63   O12   S    
C64   N2    A    
C29   C31   A    
C30   C32   A    
C50   N4    A    
C57   C58   A    
C89   C90   S    
C49   C77   S    
C46   O10   S    
C11   C23   S    
Cu1   O4    S    
C33   C35   A    
C31   H18   S    
C76   H24   S    
C52   N4    A    
C34   C36   A    
C86   H49   S    
C77   H32   S    
C19   H15   S    
C2    O4    A    
C79   H36   S    
C22   C89   S    
C25   H65   S    
C83   H47   S    
C2    O2    A    
C16   C18   A    
C75   H26   S    
C13   C16   A    
C29   C37   A    
C45   O9    S    
Cu1   O5    S    
C87   H58   S    
C81   C82   S    
C2    C28   S    
C29   H19   S    
C24   O8    A    
C63   N1    A    
C51   H8    S    
C66   H53   S    
C75   C76   S    
C51   N3    A    
C85   C86   S    
C7    H13   S    
