data_mof_unit_11449.cif
_audit_creation_date              2012-12-11T15:55:00-0500
_audit_creation_method            fapswitch 2.2
_symmetry_space_group_name_H-M    P1
_symmetry_Int_Tables_number       1
_space_group_crystal_system       monoclinic
_cell_length_a                    17.547284
_cell_length_b                    24.436689
_cell_length_c                    14.876895
_cell_angle_alpha                 90.0
_cell_angle_beta                  125.237652
_cell_angle_gamma                 90.0
_cell_volume                      5210.29330859

loop_
_atom_site_label
_atom_site_type_symbol
_atom_type_description
_atom_site_fract_x
_atom_site_fract_y
_atom_site_fract_z
_atom_type_partial_charge
C1    C     C_R   0.907431 0.869286 0.093069 0.099671
C2    C     C_R   0.145922 0.847283 0.090187 -0.142716
C3    C     C_R   0.318779 0.644486 0.000713 -0.075222
C4    C     C_R   0.695766 0.001312 0.636534 0.044971
C5    C     C_R   0.195767 0.498688 0.636534 0.044971
C6    C     C_R   0.078260 0.000031 0.373872 -0.039129
C7    C     C_R   0.578260 0.499969 0.373872 -0.039128
C8    C     C_R   0.267958 0.954432 0.249038 -0.129128
C9    C     C_R   0.265437 0.046140 0.242014 -0.110459
C10   C     C_R   0.765437 0.453860 0.242014 -0.110459
C11   C     C_R   0.767958 0.545568 0.249038 -0.129128
C12   C     C_R   0.021104 0.045938 0.752842 -0.136034
C13   C     C_R   0.645922 0.652717 0.090187 -0.142716
C14   C     C_R   0.021080 0.954078 0.752797 -0.135556
C15   C     C_R   0.521080 0.545922 0.752797 -0.135555
C16   C     C_R   0.521104 0.454062 0.752842 -0.136032
C17   C     C_1   0.956175 0.844999 0.200942 -0.058991
C18   C     C_1   0.956333 0.155313 0.200810 -0.056980
C19   C     C_1   0.456333 0.344687 0.200810 -0.056980
C20   C     C_1   0.456175 0.655001 0.200942 -0.058991
C21   C     C_1   0.457452 0.910410 0.311024 0.003268
C22   C     C_1   0.419129 0.094856 0.444344 0.003445
C23   C     C_1   0.919129 0.405144 0.444344 0.003445
C24   C     C_R   0.644120 0.346751 0.089714 -0.152847
C25   C     C_1   0.957452 0.589590 0.311024 0.003268
C26   C     C_1   0.481068 0.990214 0.242138 0.033168
C27   C     C_1   0.451738 0.096848 0.309515 -0.001945
C28   C     C_1   0.951738 0.403151 0.309515 -0.001945
C29   C     C_1   0.981068 0.509786 0.242138 0.033167
C30   C     C_R   0.323634 0.000921 0.275765 0.010523
C31   C     C_R   0.823634 0.499079 0.275765 0.010523
C32   C     C_R   0.051819 0.000013 0.727170 -0.007518
C33   C     C_R   0.551819 0.499987 0.727170 -0.007519
C34   C     C_R   0.113362 0.815945 0.997480 -0.006628
C35   C     C_R   0.111442 0.184618 0.997032 -0.002736
C36   C     C_R   0.611442 0.315382 0.997032 -0.002735
C37   C     C_R   0.907548 0.130970 0.092993 0.098583
C38   C     C_R   0.613362 0.684055 0.997480 -0.006629
C39   C     C_3   0.129275 0.051465 0.546475 -0.404474
C40   C     C_3   0.976361 0.000021 0.432944 -0.382832
C41   C     C_3   0.476360 0.499978 0.432944 -0.382833
C42   C     C_3   0.629276 0.448536 0.546476 -0.404474
C43   C     C_3   0.122167 0.051396 0.644958 -0.400224
C44   C     C_3   0.969068 0.000001 0.529814 -0.400345
C45   C     C_3   0.469068 0.499997 0.529814 -0.400344
C46   C     C_3   0.622169 0.448605 0.644959 -0.400224
C47   C     C_3   0.129310 0.948614 0.546496 -0.407874
C48   C     C_R   0.407548 0.369030 0.092993 0.098583
C49   C     C_3   0.629309 0.551387 0.546495 -0.407874
C50   C     C_3   0.079958 0.000034 0.473926 0.403181
C51   C     C_3   0.579958 0.499966 0.473926 0.403181
C52   C     C_3   0.067492 0.000025 0.639924 0.395510
C53   C     C_3   0.567492 0.499975 0.639924 0.395510
C54   C     C_R   0.812894 0.127219 0.908047 -0.167519
C55   C     C_R   0.812786 0.873000 0.908077 -0.167957
C56   C     C_R   0.312785 0.627000 0.908077 -0.167957
C57   C     C_R   0.312894 0.372781 0.908047 -0.167519
C58   C     C_3   0.122247 0.948687 0.645008 -0.399167
C59   C     C_R   0.407431 0.630713 0.093069 0.099671
C60   C     C_3   0.622246 0.551314 0.645007 -0.399169
C61   C     C_3   0.661029 0.189666 0.883812 -0.399119
C62   C     C_3   0.661449 0.810154 0.883948 -0.404598
C63   C     C_3   0.161449 0.689846 0.883948 -0.404599
C64   C     C_3   0.161029 0.310334 0.883812 -0.399119
C65   C     C_3   0.102038 0.735580 0.885155 -0.410016
C66   C     C_3   0.101030 0.264927 0.884913 -0.406895
C67   C     C_3   0.601030 0.235072 0.884913 -0.406894
C68   C     C_3   0.602038 0.764420 0.885155 -0.410016
C69   C     C_3   0.309211 0.742456 0.015953 -0.401308
C70   C     C_R   0.054109 0.847747 0.907088 -0.149375
C71   C     C_3   0.308238 0.257301 0.015801 -0.399684
C72   C     C_3   0.808238 0.242699 0.015801 -0.399685
C73   C     C_3   0.809211 0.757544 0.015953 -0.401308
C74   C     C_3   0.738719 0.177761 0.085925 -0.394541
C75   C     C_3   0.738947 0.822039 0.085985 -0.395336
C76   C     C_3   0.238947 0.677961 0.085985 -0.395336
C77   C     C_3   0.238719 0.322238 0.085925 -0.394540
C78   C     C_3   0.757892 0.187350 0.997171 0.406447
C79   C     C_3   0.758254 0.812700 0.997287 0.412690
C80   C     C_3   0.258254 0.687300 0.997287 0.412691
C81   C     C_R   0.053336 0.152417 0.906912 -0.147437
C82   C     C_3   0.257892 0.312650 0.997171 0.406447
C83   C     C_3   0.161228 0.767712 0.995434 0.403173
C84   C     C_3   0.159815 0.232719 0.995107 0.395807
C85   C     C_3   0.659814 0.267281 0.995107 0.395807
C86   C     C_3   0.661228 0.732287 0.995434 0.403173
C87   C     C_3   0.250320 0.789644 0.009691 -0.393821
C88   C     C_3   0.248772 0.210426 0.009445 -0.389981
C89   C     C_3   0.748772 0.289574 0.009445 -0.389981
C90   C     C_3   0.750320 0.710356 0.009692 -0.393820
C91   C     C_3   0.187986 0.727808 0.090485 -0.414703
C92   C     C_R   0.553336 0.347583 0.906912 -0.147438
C93   C     C_3   0.187005 0.272709 0.090199 -0.412616
C94   C     C_3   0.687005 0.227291 0.090199 -0.412616
C95   C     C_3   0.687986 0.772192 0.090485 -0.414702
C96   C     C_3   0.487479 0.968202 0.338696 0.125647
C97   C     C_3   0.464852 0.064028 0.401131 0.132400
C98   C     C_3   0.964852 0.435972 0.401131 0.132400
C99   C     C_3   0.987479 0.531798 0.338696 0.125647
C100  C     C_R   0.742955 0.954995 0.696354 -0.157642
C101  C     C_R   0.745785 0.046351 0.697489 -0.155736
C102  C     C_R   0.245785 0.453649 0.697489 -0.155736
C103  C     C_R   0.554109 0.652253 0.907088 -0.149375
C104  C     C_R   0.242955 0.545005 0.696354 -0.157642
C105  C     C_3   0.591231 0.968719 0.442015 -0.490832
C106  C     C_3   0.569707 0.061862 0.494063 -0.488943
C107  C     C_3   0.069707 0.438138 0.494063 -0.488943
C108  C     C_3   0.091231 0.531281 0.442015 -0.490831
C109  C     C_3   0.436613 0.975319 0.467585 -0.433714
C110  C     C_3   0.936613 0.524681 0.467585 -0.433713
C111  C     C_3   0.425863 0.002678 0.365748 0.163888
C112  C     C_3   0.925863 0.497322 0.365748 0.163888
C113  C     C_3   0.600294 0.002453 0.535919 0.326741
C114  C     C_R   0.144120 0.153249 0.089714 -0.152846
C115  C     C_3   0.100294 0.497546 0.535919 0.326741
C116  C     C_3   0.537261 0.978283 0.567602 -0.394539
C117  C     C_3   0.037261 0.521717 0.567602 -0.394542
C118  C     C_R   0.057343 0.045093 0.308603 -0.130005
C119  C     C_R   0.057429 0.954949 0.308662 -0.133147
C120  C     C_R   0.557428 0.545051 0.308662 -0.133146
C121  C     C_R   0.557343 0.454907 0.308603 -0.130006
C122  C     C_R   0.818779 0.855514 0.000713 -0.075222
C123  C     C_R   0.818902 0.144789 0.000641 -0.074430
C124  C     C_R   0.318902 0.355211 0.000641 -0.074430
H1    H     H_    0.086595 0.089721 0.641476 0.147111
H2    H     H_    0.096141 0.910474 0.498750 0.155796
H3    H     H_    0.703809 0.447881 0.576287 0.156293
H4    H     H_    0.096108 0.089599 0.498709 0.156421
H5    H     H_    0.939742 0.036743 0.381046 0.159710
H6    H     H_    0.439742 0.463257 0.381046 0.159710
H7    H     H_    0.596109 0.410401 0.498710 0.156421
H8    H     H_    0.193300 0.948373 0.723498 0.156301
H9    H     H_    0.086765 0.910338 0.641614 0.146118
H10   H     H_    0.586761 0.589662 0.641610 0.146119
H11   H     H_    0.693298 0.551629 0.723497 0.156301
H12   H     H_    0.415281 0.931583 0.451771 0.166691
H13   H     H_    0.596140 0.589526 0.498749 0.155796
H14   H     H_    0.390582 0.995203 0.486937 0.176178
H15   H     H_    0.890582 0.504797 0.486937 0.176178
H16   H     H_    0.915281 0.568417 0.451771 0.166691
H17   H     H_    0.289274 0.912223 0.267159 0.107343
H18   H     H_    0.282042 0.088766 0.246299 0.110694
H19   H     H_    0.782042 0.411234 0.246299 0.110694
H20   H     H_    0.789273 0.587777 0.267159 0.107343
H21   H     H_    0.703834 0.552033 0.576277 0.152991
H22   H     H_    0.669213 0.199264 0.816758 0.151050
H23   H     H_    0.669710 0.800750 0.816888 0.149691
H24   H     H_    0.169710 0.699250 0.816888 0.149691
H25   H     H_    0.169213 0.300736 0.816758 0.151050
H26   H     H_    0.624590 0.149596 0.864671 0.155978
H27   H     H_    0.624559 0.850068 0.864769 0.153875
H28   H     H_    0.124559 0.649932 0.864769 0.153875
H29   H     H_    0.928875 0.036692 0.524285 0.156866
H30   H     H_    0.124590 0.350404 0.864671 0.155978
H31   H     H_    0.538275 0.217100 0.874894 0.157750
H32   H     H_    0.539056 0.782051 0.875079 0.156074
H33   H     H_    0.039056 0.717949 0.875079 0.156074
H34   H     H_    0.038275 0.282900 0.874894 0.157750
H35   H     H_    0.078299 0.762485 0.813347 0.146003
H36   H     H_    0.076904 0.237991 0.813043 0.147394
H37   H     H_    0.576903 0.262008 0.813043 0.147394
H38   H     H_    0.578299 0.737515 0.813347 0.146003
H39   H     H_    0.323589 0.748251 0.952753 0.153327
H40   H     H_    0.428876 0.463306 0.524285 0.156866
H41   H     H_    0.322574 0.251278 0.952616 0.154160
H42   H     H_    0.822574 0.248722 0.952616 0.154160
H43   H     H_    0.823589 0.751749 0.952753 0.153327
H44   H     H_    0.757304 0.133627 0.822618 0.105287
H45   H     H_    0.757235 0.866600 0.822643 0.103985
H46   H     H_    0.257235 0.633400 0.822643 0.103985
H47   H     H_    0.257304 0.366373 0.822618 0.105287
H48   H     H_    0.231272 0.816622 0.939186 0.158299
H49   H     H_    0.229594 0.183319 0.939058 0.159230
H50   H     H_    0.729593 0.316681 0.939057 0.159230
H51   H     H_    0.586598 0.410279 0.641479 0.147110
H52   H     H_    0.731272 0.683378 0.939186 0.158299
H53   H     H_    0.802818 0.171329 0.169339 0.167730
H54   H     H_    0.802871 0.828758 0.169393 0.167606
H55   H     H_    0.302871 0.671241 0.169393 0.167606
H56   H     H_    0.302818 0.328671 0.169339 0.167730
H57   H     H_    0.695618 0.140249 0.065331 0.156403
H58   H     H_    0.695265 0.859307 0.065144 0.155685
H59   H     H_    0.195265 0.640693 0.065144 0.155685
H60   H     H_    0.195618 0.359750 0.065330 0.156403
H61   H     H_    0.623618 0.213399 0.083756 0.158053
H62   H     H_    0.193207 0.051762 0.723467 0.157200
H63   H     H_    0.624471 0.785703 0.084137 0.156546
H64   H     H_    0.124471 0.714297 0.084137 0.156546
H65   H     H_    0.123618 0.286601 0.083756 0.158053
H66   H     H_    0.235080 0.748108 0.171655 0.157204
H67   H     H_    0.233751 0.252327 0.171346 0.158162
H68   H     H_    0.733751 0.247673 0.171346 0.158162
H69   H     H_    0.735080 0.751892 0.171655 0.157204
H70   H     H_    0.377403 0.743904 0.097458 0.174901
H71   H     H_    0.376408 0.255722 0.097337 0.175384
H72   H     H_    0.876408 0.244278 0.097337 0.175384
H73   H     H_    0.928941 0.963278 0.524296 0.156501
H74   H     H_    0.877403 0.756096 0.097458 0.174901
H75   H     H_    0.292729 0.814655 0.085970 0.170039
H76   H     H_    0.290812 0.185482 0.085801 0.170226
H77   H     H_    0.790812 0.314518 0.085801 0.170226
H78   H     H_    0.792729 0.685345 0.085970 0.170039
H79   H     H_    0.638550 0.986372 0.422305 0.155642
H80   H     H_    0.613030 0.077609 0.466822 0.156417
H81   H     H_    0.113030 0.422391 0.466822 0.156417
H82   H     H_    0.138550 0.513628 0.422305 0.155642
H83   H     H_    0.727373 0.913053 0.668183 0.086806
H84   H     H_    0.428940 0.536721 0.524295 0.156500
H85   H     H_    0.737107 0.088498 0.671351 0.090026
H86   H     H_    0.237107 0.411502 0.671351 0.090026
H87   H     H_    0.227373 0.586947 0.668183 0.086806
H88   H     H_    0.617607 0.926484 0.472233 0.157556
H89   H     H_    0.585227 0.089158 0.562737 0.154138
H90   H     H_    0.085227 0.410842 0.562737 0.154138
H91   H     H_    0.117607 0.573516 0.472233 0.157556
H92   H     H_    0.560545 0.936374 0.602478 0.155555
H93   H     H_    0.541461 0.004168 0.631982 0.167400
H94   H     H_    0.041461 0.495832 0.631982 0.167400
H95   H     H_    0.693208 0.448240 0.723468 0.157200
H96   H     H_    0.060545 0.563626 0.602478 0.155556
H97   H     H_    0.080602 0.085968 0.338618 0.116078
H98   H     H_    0.080875 0.914109 0.338784 0.113572
H99   H     H_    0.580875 0.585891 0.338783 0.113572
H100  H     H_    0.580602 0.414032 0.338619 0.116078
H101  H     H_    0.027313 0.088305 0.737807 0.089951
H102  H     H_    0.027231 0.911720 0.737659 0.089336
H103  H     H_    0.527231 0.588280 0.737659 0.089335
H104  H     H_    0.527313 0.411695 0.737807 0.089950
H105  H     H_    0.009956 0.835304 0.821911 0.085690
H106  H     H_    0.203835 0.947967 0.576277 0.152990
H107  H     H_    0.009239 0.164698 0.821631 0.085998
H108  H     H_    0.509239 0.335302 0.821631 0.085998
H109  H     H_    0.509956 0.664695 0.821911 0.085690
H110  H     H_    0.186711 0.166552 0.174500 0.095983
H111  H     H_    0.189691 0.834370 0.175162 0.090601
H112  H     H_    0.689690 0.665630 0.175162 0.090601
H113  H     H_    0.686711 0.333448 0.174500 0.095983
H114  H     H_    0.203809 0.052120 0.576287 0.156293
H115  H     H_    0.939753 0.963305 0.381018 0.159891
H116  H     H_    0.439753 0.536695 0.381018 0.159891
N1    N     N_R   0.950530 0.896220 0.057200 -0.056232
N2    N     N_R   0.818150 0.028600 0.792440 -0.033638
N3    N     N_R   0.318150 0.471400 0.792440 -0.033638
N4    N     N_R   0.318150 0.528600 0.792440 -0.032922
N5    N     N_R   0.025710 0.028600 0.207560 -0.040587
N6    N     N_R   0.025710 0.971400 0.207560 -0.040354
N7    N     N_R   0.525710 0.528600 0.207560 -0.040355
N8    N     N_R   0.525710 0.471400 0.207560 -0.040587
N9    N     N_R   0.181850 0.971400 0.207560 -0.042031
N10   N     N_R   0.181850 0.028600 0.207560 -0.043023
N11   N     N_R   0.681850 0.471400 0.207560 -0.043023
N12   N     N_R   0.950530 0.103780 0.057200 -0.055668
N13   N     N_R   0.681850 0.528600 0.207560 -0.042031
N14   N     N_R   0.974290 0.028600 0.792440 -0.036442
N15   N     N_R   0.974290 0.971400 0.792440 -0.036153
N16   N     N_R   0.474290 0.528600 0.792440 -0.036153
N17   N     N_R   0.474290 0.471400 0.792440 -0.036442
N18   N     N_R   0.049470 0.896220 0.942800 -0.031849
N19   N     N_R   0.049470 0.103780 0.942800 -0.031855
N20   N     N_R   0.549470 0.396220 0.942800 -0.031855
N21   N     N_R   0.549470 0.603780 0.942800 -0.031849
N22   N     N_R   0.106670 0.103780 0.057200 -0.035672
N23   N     N_R   0.450530 0.396220 0.057200 -0.055668
N24   N     N_R   0.106670 0.896220 0.057200 -0.033949
N25   N     N_R   0.606670 0.603780 0.057200 -0.033949
N26   N     N_R   0.606670 0.396220 0.057200 -0.035672
N27   N     N_1   0.994484 0.824487 0.286687 -0.111322
N28   N     N_1   0.994695 0.175860 0.286526 -0.108571
N29   N     N_1   0.494695 0.324140 0.286526 -0.108571
N30   N     N_1   0.494484 0.675513 0.286687 -0.111322
N31   N     N_1   0.435038 0.865035 0.289786 -0.114019
N32   N     N_1   0.383813 0.118811 0.478195 -0.106540
N33   N     N_1   0.883813 0.381188 0.478195 -0.106540
N34   N     N_R   0.450530 0.603780 0.057200 -0.056232
N35   N     N_1   0.935038 0.634965 0.289786 -0.114019
N36   N     N_1   0.476106 0.007120 0.166226 -0.090852
N37   N     N_1   0.441758 0.122756 0.238301 -0.096389
N38   N     N_1   0.941758 0.377244 0.238301 -0.096389
N39   N     N_1   0.976106 0.492880 0.166226 -0.090852
N40   N     N_R   0.893330 0.103780 0.942800 -0.043492
N41   N     N_R   0.893330 0.896220 0.942800 -0.043462
N42   N     N_R   0.393330 0.603780 0.942800 -0.043462
N43   N     N_R   0.393330 0.396220 0.942800 -0.043492
N44   N     N_R   0.818150 0.971400 0.792440 -0.032922
Ni1   Ni    Ni4+2 0.065600 0.934400 0.131190 0.212239
Ni2   Ni    Ni4+2 0.065600 0.065600 0.131190 0.216843
Ni3   Ni    Ni4+2 0.565600 0.434400 0.131190 0.216843
Ni4   Ni    Ni4+2 0.565600 0.565600 0.131190 0.212238
Ni5   Ni    Ni4+2 0.934400 0.065600 0.868810 0.204223
Ni6   Ni    Ni4+2 0.934400 0.934400 0.868810 0.204408
Ni7   Ni    Ni4+2 0.434400 0.565600 0.868810 0.204408
Ni8   Ni    Ni4+2 0.434400 0.434400 0.868810 0.204223

loop_
_geom_bond_atom_site_label_1
_geom_bond_atom_site_label_2
_ccdc_geom_bond_type
C73   H43   S    
C83   C87   S    
C91   H64   S    
C63   C65   S    
C16   N17   A    
C49   H13   S    
C68   C86   S    
C6    C119  A    
C89   H77   S    
N34   N42   A    
C94   H61   S    
C87   H75   S    
C88   H76   S    
C65   H35   S    
N19   N22   A    
C45   H84   S    
C43   H1    S    
C3    C56   A    
C66   H36   S    
C35   C81   A    
C118  N5    A    
C95   H63   S    
C79   C122  S    
C27   N37   T    
C47   H106  S    
C99   C108  S    
C74   H53   S    
N9    N10   A    
C24   C36   A    
C105  H88   S    
C35   C114  A    
C44   H29   S    
C6    C118  A    
C108  C115  S    
C105  C113  S    
C110  H15   S    
C45   H40   S    
C73   C90   S    
C14   H102  S    
C40   H115  S    
C69   H39   S    
C109  C111  S    
C41   H6    S    
C97   C111  S    
C43   C52   S    
C65   C83   S    
C92   H108  S    
C28   C98   S    
N3    N4    A    
C59   N34   A    
C64   H30   S    
C17   N27   T    
C77   H60   S    
N23   N43   A    
C4    C113  S    
C110  C117  S    
C117  H96   S    
C67   H31   S    
C10   N11   A    
C42   C46   S    
C82   C124  S    
C75   H54   S    
C61   C67   S    
C1    C122  A    
C32   C52   S    
C72   C78   S    
C109  C116  S    
C11   N13   A    
C37   C123  A    
C81   H107  S    
C10   C31   A    
C25   C99   S    
C121  N8    A    
C2    N24   A    
C14   N15   A    
C58   H8    S    
C16   H104  S    
C49   C51   S    
C12   N14   A    
C31   C112  S    
C42   H7    S    
C39   H4    S    
C120  N7    A    
C106  H80   S    
N14   Ni5   S    
C61   H26   S    
C34   C70   A    
N17   Ni8   S    
C23   N33   T    
C69   C87   S    
C116  H92   S    
N41   Ni6   S    
C15   N16   A    
C71   C82   S    
C56   H46   S    
C44   C52   S    
C55   C122  A    
N44   Ni6   S    
C44   H73   S    
C95   H69   S    
C22   C97   S    
N9    Ni1   S    
N5    N6    A    
C5    C115  S    
C109  H12   S    
C33   C53   S    
N20   Ni8   S    
N12   Ni2   S    
C23   C98   S    
C64   H25   S    
N11   Ni3   S    
C89   H50   S    
C7    C121  A    
C3    C80   S    
N26   Ni3   S    
C90   H52   S    
N2    N44   A    
C92   N20   A    
C53   C60   S    
C47   C50   S    
C94   H68   S    
C63   C80   S    
C93   H67   S    
C58   H9    S    
C26   C96   S    
C96   C111  S    
C119  N6    A    
C8    N9    A    
C67   C85   S    
C77   H56   S    
N23   Ni3   S    
C62   H27   S    
C29   C99   S    
C106  C113  S    
C75   C95   S    
C84   C88   S    
C62   C79   S    
C98   C112  S    
N42   Ni7   S    
C65   H33   S    
N15   Ni6   S    
C86   C90   S    
C76   H55   S    
C14   C32   A    
C74   H57   S    
C85   C89   S    
C19   C48   S    
C102  H86   S    
N2    Ni5   S    
C39   C43   S    
N25   Ni4   S    
C43   H62   S    
C101  H85   S    
C104  N4    A    
C66   C84   S    
C45   C53   S    
C119  H98   S    
C98   C107  S    
C15   H103  S    
C109  H14   S    
C64   C66   S    
C76   C91   S    
C61   H22   S    
N21   N25   A    
C38   C103  A    
C78   C123  S    
C56   N42   A    
C16   C33   A    
C85   C94   S    
C67   H37   S    
N4    Ni7   S    
C71   H71   S    
C90   H78   S    
C70   N18   A    
C61   C78   S    
C35   C84   S    
C64   C82   S    
C4    C101  A    
C100  N44   A    
C57   C124  A    
N10   Ni2   S    
C49   H21   S    
C117  H94   S    
C73   H74   S    
C36   C92   A    
C41   C45   S    
C6    C50   S    
C20   C59   S    
C101  N2    A    
C49   C60   S    
C60   H11   S    
C107  C115  S    
C13   C38   A    
C8    H17   S    
C52   C58   S    
C42   H3    S    
C13   H112  S    
C5    C104  A    
C97   C106  S    
C9    C30   A    
N16   N17   A    
C108  H82   S    
N22   Ni2   S    
C41   C51   S    
C38   C86   S    
C120  H99   S    
C93   H65   S    
C62   H23   S    
C4    C100  A    
C71   H41   S    
C36   C85   S    
C54   C123  A    
N34   Ni4   S    
C34   C83   S    
N24   Ni1   S    
N20   N26   A    
C47   H2    S    
C76   H59   S    
C60   H10   S    
C63   H24   S    
C66   H34   S    
N1    Ni1   S    
C21   N31   T    
C96   C105  S    
C5    C102  A    
C11   H20   S    
C22   N32   T    
N3    Ni8   S    
C100  H83   S    
C106  H89   S    
C115  C117  S    
C91   H66   S    
C27   C97   S    
C54   N40   A    
C46   H95   S    
C103  N21   A    
C105  H79   S    
C24   N26   A    
N5    Ni2   S    
C72   H42   S    
C7    C120  A    
C18   C37   S    
N18   N24   A    
C76   C80   S    
C54   H44   S    
N7    Ni4   S    
C73   C79   S    
C13   N25   A    
C72   H72   S    
N8    Ni3   S    
C9    H18   S    
C28   N38   T    
C21   C96   S    
C68   H38   S    
N43   Ni8   S    
C29   N39   T    
C37   N12   A    
C83   C91   S    
C42   C51   S    
C48   N23   A    
C1    C17   S    
N40   Ni5   S    
C62   C68   S    
C30   C111  S    
C8    C30   A    
C113  C116  S    
N14   N15   A    
C110  H16   S    
C9    N10   A    
C114  N22   A    
C70   H105  S    
C7    C51   S    
C25   N35   T    
C1    N1    A    
C47   C58   S    
C18   N28   T    
C72   C89   S    
C57   N43   A    
N18   Ni6   S    
C12   H101  S    
C69   C80   S    
C107  H90   S    
C75   C79   S    
C77   C82   S    
C40   C50   S    
C87   H48   S    
N21   Ni7   S    
C46   C53   S    
C77   C93   S    
C69   H70   S    
C26   N36   T    
C121  H100  S    
C55   H45   S    
C84   C93   S    
N16   Ni7   S    
N12   N40   A    
C2    C34   A    
C19   N29   T    
C110  C112  S    
C63   H28   S    
C107  H81   S    
C108  H91   S    
N11   N13   A    
C86   C95   S    
C88   H49   S    
C81   N19   A    
C11   C31   A    
C71   C88   S    
C2    H111  S    
C40   C44   S    
C39   C50   S    
C114  H110  S    
C103  H109  S    
C48   C124  A    
C74   C78   S    
C20   N30   T    
N13   Ni4   S    
C74   C94   S    
C55   N41   A    
N19   Ni5   S    
C46   H51   S    
C99   C112  S    
N6    Ni1   S    
N1    N41   A    
C102  N3    A    
C104  H87   S    
C57   H47   S    
C116  H93   S    
C75   H58   S    
C68   H32   S    
C15   C33   A    
C39   H114  S    
C12   C32   A    
C24   H113  S    
N7    N8    A    
C40   H5    S    
C10   H19   S    
C118  H97   S    
C41   H116  S    
C3    C59   A    
