data_mof_unit_12941.cif
_audit_creation_date              2012-12-10T18:18:16-0500
_audit_creation_method            fapswitch 2.2
_symmetry_space_group_name_H-M    P1
_symmetry_Int_Tables_number       1
_space_group_crystal_system       triclinic
_cell_length_a                    14.195478
_cell_length_b                    14.881176
_cell_length_c                    15.550322
_cell_angle_alpha                 87.644267
_cell_angle_beta                  67.104356
_cell_angle_gamma                 89.985757
_cell_volume                      3023.13079748

loop_
_atom_site_label
_atom_site_type_symbol
_atom_type_description
_atom_site_fract_x
_atom_site_fract_y
_atom_site_fract_z
_atom_type_partial_charge
C1    C     C_R   0.500748 0.672720 0.498240 0.865717
C2    C     C_R   0.500318 0.768367 0.497037 -0.100806
C3    C     C_R   0.499536 0.191188 0.426647 -0.234824
C4    C     C_R   0.468386 0.807560 0.582458 -0.218509
C5    C     C_R   0.492365 0.098868 0.426002 0.010743
C6    C     C_R   0.460980 0.900068 0.587012 0.011474
C7    C     C_R   0.478154 0.046665 0.508271 -0.026908
C8    C     C_R   0.480023 0.952896 0.504238 -0.030811
C9    C     C_R   0.465283 0.088328 0.593372 -0.020209
C10   C     C_R   0.504303 0.911826 0.416922 -0.017314
C11   C     C_R   0.498937 0.058569 0.343813 0.472972
C12   C     C_R   0.499248 0.327350 0.501562 0.886614
C13   C     C_R   0.433954 0.939786 0.673500 0.470118
C14   C     C_R   0.507626 0.965428 0.337988 -0.142566
C15   C     C_R   0.439290 0.033342 0.676950 -0.145136
C16   C     C_R   0.435304 0.500327 0.676320 0.945724
C17   C     C_R   0.564886 0.500940 0.323628 0.925733
C18   C     C_R   0.179094 0.437248 0.555085 -0.036045
C19   C     C_R   0.816902 0.569707 0.456081 -0.040150
C20   C     C_R   0.224290 0.561386 0.444307 0.622977
C21   C     C_R   0.781144 0.429406 0.541575 0.606621
C22   C     C_R   0.120479 0.569624 0.454401 -0.199047
C23   C     C_R   0.381547 0.512200 0.106697 -0.272616
C24   C     C_R   0.877165 0.432660 0.551342 -0.230203
C25   C     C_R   0.048173 0.502540 0.505889 -0.092991
C26   C     C_R   0.947543 0.502892 0.504910 -0.084118
C27   C     C_R   0.077736 0.433697 0.555481 -0.147311
C28   C     C_R   0.918156 0.572132 0.455413 -0.144894
C29   C     C_R   0.087710 0.642699 0.412518 0.469380
C30   C     C_R   0.905098 0.366084 0.604528 0.413361
C31   C     C_R   0.990470 0.642031 0.408344 0.417422
C32   C     C_R   0.005141 0.363981 0.602940 0.430036
C33   C     C_R   0.393787 0.500112 0.779002 -0.230090
C34   C     C_R   0.619890 0.515926 0.892100 -0.291636
C35   C     C_R   0.607123 0.507809 0.220848 -0.232842
C36   C     C_R   0.257687 0.510218 0.932671 0.431875
C37   C     C_R   0.743820 0.508410 0.066484 0.440848
C38   C     C_R   0.290840 0.517167 0.834151 0.418116
C39   C     C_R   0.710528 0.494492 0.164427 0.442115
C40   C     C_R   0.462499 0.484870 0.821512 -0.311990
C41   C     C_R   0.539300 0.529401 0.179154 -0.334548
C42   C     C_R   0.437068 0.501633 0.915291 0.025611
C43   C     C_R   0.564679 0.519777 0.084145 0.028365
C44   C     C_R   0.331734 0.508449 0.974090 -0.071525
C45   C     C_R   0.305391 0.513366 0.071319 0.000641
C46   C     C_R   0.669987 0.514212 0.024891 -0.067027
C47   C     C_R   0.514829 0.510036 0.951102 0.118722
C48   C     C_R   0.486814 0.515194 0.048042 0.109189
C49   C     C_1   0.201497 0.518772 0.139182 0.257037
C50   C     C_1   0.800779 0.511361 0.859543 0.209725
C51   C     C_1   0.211338 0.372821 0.609481 0.347647
C52   C     C_1   0.784255 0.638890 0.406906 0.353197
C53   C     C_3   0.341695 0.675187 0.364845 -0.139016
C54   C     C_3   0.759916 0.288590 0.501318 -0.166832
C55   C     C_3   0.120401 0.782220 0.448784 -0.328394
C56   C     C_R   0.696458 0.514383 0.927276 0.006633
C57   C     C_3   0.781971 0.324111 0.745419 -0.144339
C58   C     C_3   0.008202 0.710738 0.268901 -0.230038
C59   C     C_3   0.059272 0.219823 0.590993 -0.271530
C60   C     C_3   0.842712 0.521553 0.210716 -0.228680
C61   C     C_3   0.149768 0.495852 0.797876 -0.178186
C62   C     C_3   0.118774 0.420404 0.009444 -0.318183
C63   C     C_3   0.879419 0.603572 0.997781 -0.319746
C64   C     C_1   0.480342 0.232383 0.667984 0.198255
C65   C     C_1   0.576563 0.775293 0.325824 0.130181
C66   C     C_3   0.404267 0.127897 0.272709 -0.316687
C67   C     C_R   0.479148 0.182942 0.589767 -0.051391
C68   C     C_3   0.304326 0.867610 0.792647 -0.299267
C69   C     C_1   0.511932 0.927621 0.252126 0.249309
C70   C     C_1   0.413478 0.068846 0.768595 0.260122
C71   C     C_R   0.523596 0.818796 0.413281 -0.048097
C72   C     C_R   0.495639 0.231663 0.506053 -0.117146
H1    H     H_    0.464998 0.551571 0.223133 0.229809
H2    H     H_    0.708188 0.228704 0.521584 0.184161
H3    H     H_    0.836690 0.265517 0.494959 0.146895
H4    H     H_    0.764593 0.314960 0.431655 0.149690
H5    H     H_    0.125603 0.753956 0.514222 0.138366
H6    H     H_    0.042183 0.807660 0.463785 0.214062
H7    H     H_    0.174255 0.840559 0.423702 0.180461
H8    H     H_    0.740044 0.387328 0.745780 0.135058
H9    H     H_    0.833052 0.331250 0.783840 0.176397
H10   H     H_    0.724155 0.270984 0.783109 0.188144
H11   H     H_    0.978982 0.650476 0.246613 0.137166
H12   H     H_    0.537692 0.461865 0.779224 0.201316
H13   H     H_    0.093137 0.710644 0.241561 0.206945
H14   H     H_    0.985911 0.770628 0.236789 0.187291
H15   H     H_    0.125113 0.238215 0.524582 0.133499
H16   H     H_    0.994364 0.193512 0.575716 0.188454
H17   H     H_    0.084182 0.164627 0.627051 0.191982
H18   H     H_    0.863800 0.500778 0.270083 0.170518
H19   H     H_    0.809186 0.589710 0.224039 0.135310
H20   H     H_    0.914406 0.524041 0.147240 0.207227
H21   H     H_    0.172735 0.424268 0.793098 0.136454
H22   H     H_    0.126772 0.512793 0.738789 0.173998
H23   H     H_    0.354930 0.508025 0.181784 0.182538
H24   H     H_    0.081472 0.505406 0.862575 0.217000
H25   H     H_    0.135265 0.380652 0.946479 0.149256
H26   H     H_    0.034655 0.419950 0.048026 0.228769
H27   H     H_    0.152721 0.385674 0.054928 0.165491
H28   H     H_    0.963944 0.607196 0.963048 0.218143
H29   H     H_    0.857368 0.639489 0.063921 0.144466
H30   H     H_    0.847738 0.640097 0.951534 0.173436
H31   H     H_    0.408714 0.169825 0.210558 0.207353
H32   H     H_    0.360321 0.165948 0.335684 0.153037
H33   H     H_    0.362634 0.064410 0.273125 0.162093
H34   H     H_    0.645114 0.522788 0.817074 0.146565
H35   H     H_    0.285587 0.824292 0.857110 0.210446
H36   H     H_    0.280678 0.830195 0.743587 0.161648
H37   H     H_    0.259366 0.930157 0.812346 0.160720
H38   H     H_    0.510698 0.232853 0.364368 0.189266
H39   H     H_    0.451770 0.764948 0.645133 0.187401
H40   H     H_    0.306650 0.706640 0.433739 0.148028
H41   H     H_    0.335575 0.722141 0.310080 0.199139
H42   H     H_    0.424393 0.667138 0.345476 0.168648
N1    N     N_R   0.249980 0.499930 0.499960 -0.171168
N2    N     N_1   0.392336 0.096049 0.842374 -0.187413
N3    N     N_R   0.750020 0.500070 0.500040 -0.177518
N4    N     N_1   0.118691 0.522200 0.194288 -0.252132
N5    N     N_1   0.884032 0.509175 0.804896 -0.228236
N6    N     N_1   0.236746 0.320408 0.652941 -0.215733
N7    N     N_1   0.760000 0.695440 0.366789 -0.194417
N8    N     N_1   0.481923 0.272809 0.729457 -0.185202
N9    N     N_1   0.619195 0.740236 0.256423 -0.218229
N10   N     N_1   0.514896 0.898095 0.183413 -0.183663
O1    O     O_R   0.419720 0.632140 0.499980 -0.640771
O2    O     O_3   0.719860 0.353066 0.570452 -0.559655
O3    O     O_3   0.148589 0.718756 0.378339 -0.602406
O4    O     O_3   0.837297 0.297504 0.653740 -0.584806
O5    O     O_3   0.963730 0.716550 0.366947 -0.611216
O6    O     O_3   0.029630 0.293028 0.650281 -0.597996
O7    O     O_3   0.774645 0.456269 0.203452 -0.587264
O8    O     O_3   0.229345 0.555391 0.792073 -0.604554
O9    O     O_3   0.154031 0.510766 0.986712 -0.613054
O10   O     O_3   0.847674 0.512008 0.013101 -0.599715
O11   O     O_3   0.504656 0.110906 0.266000 -0.595989
O12   O     O_R   0.580280 0.367860 0.500020 -0.577730
O13   O     O_3   0.410442 0.886569 0.754735 -0.600373
O14   O     O_R   0.580270 0.632160 0.499970 -0.615169
O15   O     O_R   0.419730 0.367840 0.500030 -0.627925
O16   O     O_R   0.373870 0.499980 0.632250 -0.586463
O17   O     O_R   0.626130 0.500020 0.367750 -0.591537
O18   O     O_R   0.534420 0.500000 0.632240 -0.606117
O19   O     O_R   0.465580 0.500000 0.367760 -0.593474
O20   O     O_3   0.299384 0.590977 0.359802 -0.627828
Zn1   Zn    Zn3+2 0.392800 0.499980 0.500010 0.968887
Zn2   Zn    Zn3+2 0.607200 0.500020 0.499990 0.987382

loop_
_geom_bond_atom_site_label_1
_geom_bond_atom_site_label_2
_ccdc_geom_bond_type
C59   O6    S    
C34   C56   A    
C23   C45   A    
C22   C29   A    
O18   Zn2   S    
C35   C39   A    
C16   O18   A    
C63   H29   S    
C36   O9    S    
C57   O4    S    
C32   O6    S    
C61   H24   S    
C7    C8    A    
C44   C45   A    
C54   O2    S    
C62   O9    S    
C17   C35   S    
C1    O1    A    
C67   C72   A    
C55   H5    S    
C11   C14   A    
C61   H21   S    
C3    H38   S    
C17   O17   A    
C1    C2    S    
C59   H17   S    
C40   H12   S    
C59   H16   S    
C21   N3    A    
C61   O8    S    
C54   H2    S    
C19   C52   S    
C49   N4    T    
C22   C25   A    
C68   H35   S    
C43   C48   A    
C68   H37   S    
C10   C71   A    
C40   C42   A    
C12   C72   S    
C62   H26   S    
C41   C43   A    
C57   H8    S    
C68   O13   S    
C16   O16   A    
C42   C44   A    
C63   H30   S    
C58   H14   S    
C60   O7    S    
C53   H41   S    
C18   C51   S    
C59   H15   S    
C60   H20   S    
C37   C39   A    
C30   O4    S    
C33   C40   A    
C64   C67   S    
C50   N5    T    
C34   H34   S    
C63   O10   S    
C66   H32   S    
C4    C6    A    
C10   C14   A    
C5    C7    A    
C55   H6    S    
C61   H22   S    
C6    C8    A    
C69   N10   T    
C70   N2    T    
C25   C26   A    
C65   C71   S    
C50   C56   S    
C66   O11   S    
N3    Zn2   S    
C38   O8    S    
C18   N1    A    
C2    C4    A    
C9    C67   A    
C63   H28   S    
C11   O11   S    
C16   C33   S    
C62   H25   S    
C55   H7    S    
C52   N7    T    
C47   C48   A    
C45   C49   S    
C29   C31   A    
C51   N6    T    
C12   O15   A    
C19   C28   A    
O17   Zn2   S    
C21   O2    S    
C54   H4    S    
C53   H40   S    
C4    H39   S    
C55   O3    S    
C13   C15   A    
C14   C69   S    
C57   H9    S    
C36   C44   A    
C20   C22   A    
C66   H33   S    
C2    C71   A    
C58   H13   S    
C53   H42   S    
C60   H19   S    
O19   Zn1   S    
C15   C70   S    
O15   Zn1   S    
C23   C48   A    
C27   C32   A    
C57   H10   S    
C66   H31   S    
C28   C31   A    
C18   C27   A    
C24   C26   A    
C3    C5    A    
O16   Zn1   S    
C20   N1    A    
C20   O20   S    
C5    C11   A    
C60   H18   S    
C25   C27   A    
C68   H36   S    
N1    Zn1   S    
C26   C28   A    
C33   C38   A    
C17   O19   A    
C53   O20   S    
C29   O3    S    
C3    C72   A    
C9    C15   A    
C31   O5    S    
O1    Zn1   S    
C58   H11   S    
C6    C13   A    
C30   C32   A    
C39   O7    S    
O14   Zn2   S    
C64   N8    T    
C36   C38   A    
C23   H23   S    
C42   C47   A    
C65   N9    T    
C35   C41   A    
C43   C46   A    
C24   C30   A    
C41   H1    S    
C62   H27   S    
C7    C9    A    
C19   N3    A    
C8    C10   A    
C12   O12   A    
C21   C24   A    
C46   C56   A    
C37   O10   S    
C34   C47   A    
C58   O5    S    
C37   C46   A    
O12   Zn2   S    
C1    O14   A    
C13   O13   S    
C54   H3    S    
