data_mof_unit_63677.cif
_audit_creation_date              2012-12-10T17:04:57-0500
_audit_creation_method            fapswitch 2.2
_symmetry_space_group_name_H-M    P1
_symmetry_Int_Tables_number       1
_space_group_crystal_system       triclinic
_cell_length_a                    15.097468
_cell_length_b                    15.117742
_cell_length_c                    19.400296
_cell_angle_alpha                 89.211307
_cell_angle_beta                  90.44521
_cell_angle_gamma                 90.555917
_cell_volume                      4427.15926461

loop_
_atom_site_label
_atom_site_type_symbol
_atom_type_description
_atom_site_fract_x
_atom_site_fract_y
_atom_site_fract_z
_atom_type_partial_charge
C1    C     C_R   0.484198 0.259699 0.509433 0.547378
C2    C     C_2   0.523663 0.461858 0.019298 0.200384
C3    C     C_2   0.483027 0.524995 0.981876 -0.145062
C4    C     C_R   0.515242 0.739300 0.489491 0.543187
C5    C     C_R   0.482123 0.519113 0.762436 -0.004511
C6    C     C_R   0.472896 0.163097 0.510567 0.029046
C7    C     C_R   0.520034 0.835035 0.487337 0.061640
C8    C     C_R   0.608100 0.967728 0.470619 -0.107170
C9    C     C_R   0.600587 0.876109 0.470660 -0.145818
C10   C     C_R   0.446120 0.885104 0.505299 0.231667
C11   C     C_R   0.454194 0.977787 0.507225 0.021157
C12   C     C_R   0.523733 0.468026 0.094656 -0.056117
C13   C     C_R   0.535590 0.018981 0.489032 -0.001474
C14   C     C_R   0.543877 0.110922 0.490111 -0.134086
C15   C     C_R   0.392234 0.121819 0.530248 0.228973
C16   C     C_R   0.260051 0.512541 0.488949 0.554689
C17   C     C_R   0.383437 0.030271 0.527815 -0.046923
C18   C     C_R   0.163801 0.519914 0.488295 0.048935
C19   C     C_R   0.834886 0.475375 0.517235 0.048239
C20   C     C_R   0.962839 0.380334 0.517484 -0.034673
C21   C     C_R   0.871873 0.390521 0.523081 0.230152
C22   C     C_R   0.889457 0.549750 0.508712 -0.136875
C23   C     C_R   0.603326 0.477185 0.132799 0.029390
C24   C     C_R   0.980855 0.539708 0.502221 0.003929
C25   C     C_R   0.018226 0.454046 0.505671 0.018932
C26   C     C_R   0.109927 0.444213 0.497217 0.239175
C27   C     C_R   0.125968 0.604052 0.483812 -0.132210
C28   C     C_R   0.739451 0.485398 0.512122 0.547919
C29   C     C_R   0.035011 0.613926 0.490565 -0.107019
C30   C     C_R   0.488723 0.512065 0.687375 0.488588
C31   C     C_R   0.509980 0.489264 0.312783 0.579775
C32   C     C_R   0.515103 0.483784 0.237820 0.036546
C33   C     C_R   0.436981 0.473984 0.198805 0.200893
C34   C     C_R   0.598492 0.485854 0.205133 0.212099
C35   C     C_R   0.441843 0.466413 0.127845 -0.091115
C36   C     C_2   0.314486 0.526185 0.909505 0.302739
C37   C     C_2   0.315921 0.509626 0.756323 0.337409
C38   C     C_2   0.689574 0.481423 0.096025 0.354470
C39   C     C_R   0.560190 0.528312 0.871044 -0.059608
C40   C     C_R   0.561199 0.526792 0.799883 -0.103843
C41   C     C_R   0.399513 0.516912 0.796975 0.013787
C42   C     C_R   0.398557 0.521712 0.870066 0.039523
C43   C     C_R   0.480009 0.523734 0.906370 0.022424
Cl1   Cl    Cl    0.331529 0.467478 0.237139 -0.492404
Cl2   Cl    Cl    0.298260 0.180293 0.556632 -0.418388
Cl3   Cl    Cl    0.345775 0.830498 0.528235 -0.585657
Cl4   Cl    Cl    0.156989 0.337491 0.493098 -0.453972
Cl5   Cl    Cl    0.806381 0.295029 0.538264 -0.532513
Cl6   Cl    Cl    0.695207 0.507828 0.254783 -0.474697
Cl7   Cl    Cl    0.571860 0.368212 0.981514 -0.510980
H1    H     H_    0.606279 0.141931 0.475730 0.174223
H2    H     H_    0.449185 0.578346 0.007557 0.108990
H3    H     H_    0.622497 0.532929 0.898963 0.157677
H4    H     H_    0.381218 0.458599 0.098123 0.171514
H5    H     H_    0.310214 0.496426 0.960611 0.121186
H6    H     H_    0.308739 0.545977 0.708006 0.109696
H7    H     H_    0.692174 0.504925 0.042977 0.117615
H8    H     H_    0.670856 0.998447 0.457042 0.154975
H9    H     H_    0.320571 0.001000 0.542473 0.217619
H10   H     H_    0.657597 0.836985 0.457385 0.133787
H11   H     H_    0.167267 0.662491 0.476957 0.178157
H12   H     H_    0.989098 0.314199 0.522127 0.219979
H13   H     H_    0.624510 0.529067 0.773930 0.156209
H14   H     H_    0.007135 0.679667 0.487450 0.148623
H15   H     H_    0.860264 0.614863 0.503868 0.133110
O1    O     O_3   0.500000 0.500000 0.500000 -0.494156
O2    O     O_R   0.437070 0.459640 0.654640 -0.535254
O3    O     O_R   0.556790 0.436390 0.349710 -0.496348
O4    O     O_R   0.547170 0.557950 0.655150 -0.533483
O5    O     O_R   0.458970 0.546010 0.340500 -0.498415
O6    O     O_2   0.250698 0.566594 0.886903 -0.423583
O7    O     O_2   0.255950 0.460298 0.774930 -0.402725
O8    O     O_2   0.758096 0.456237 0.123327 -0.370172
O9    O     O_R   0.306870 0.560460 0.447950 -0.512014
O10   O     O_R   0.697260 0.434930 0.470830 -0.474408
O11   O     O_R   0.434240 0.306870 0.546470 -0.465009
O12   O     O_R   0.561630 0.697750 0.534750 -0.540907
O13   O     O_R   0.542340 0.296600 0.470110 -0.532367
O14   O     O_R   0.461800 0.698790 0.448670 -0.498586
O15   O     O_R   0.296600 0.461110 0.533510 -0.486077
O16   O     O_R   0.699270 0.543500 0.547710 -0.550111
Zn1   Zn    Zn3+2 0.433070 0.575010 0.435400 1.038255
Zn2   Zn    Zn3+2 0.418400 0.433070 0.557650 1.056043
Zn3   Zn    Zn3+2 0.575700 0.573520 0.558390 0.969585
Zn4   Zn    Zn3+2 0.572830 0.418400 0.448560 1.048443

loop_
_geom_bond_atom_site_label_1
_geom_bond_atom_site_label_2
_ccdc_geom_bond_type
C7    C10   A    
O2    Zn2   S    
C8    C13   A    
C1    O13   A    
C27   C29   A    
C41   C42   A    
C36   C42   S    
C18   C26   A    
C2    C12   S    
O16   Zn3   S    
O1    Zn4   S    
C12   C23   A    
C3    C43   S    
C40   H13   S    
C16   O9    A    
C19   C21   A    
C4    C7    S    
O1    Zn1   S    
C20   C25   A    
C15   C17   A    
C24   C29   A    
C27   H11   S    
C8    H8    S    
O1    Zn2   S    
C37   H6    S    
O10   Zn4   S    
C31   O5    A    
C14   H1    S    
C8    C9    A    
C10   Cl3   S    
C2    Cl7   S    
C30   O2    A    
C36   O6    D    
C21   Cl5   S    
C6    C15   A    
C29   H14   S    
C13   C14   A    
C35   H4    S    
C37   C41   S    
O3    Zn4   S    
C1    O11   A    
O9    Zn1   S    
O15   Zn2   S    
O11   Zn2   S    
C31   O3    A    
C1    C6    S    
C19   C22   A    
C24   C25   A    
C4    O14   A    
C39   C40   A    
C39   C43   A    
O12   Zn3   S    
C25   C26   A    
C16   O15   A    
C32   C34   A    
C22   H15   S    
C6    C14   A    
C38   H7    S    
C31   C32   S    
C23   C34   A    
C12   C35   A    
C19   C28   S    
C26   Cl4   S    
C17   H9    S    
O13   Zn4   S    
C22   C24   A    
C37   O7    D    
C42   C43   A    
C15   Cl2   S    
C30   O4    A    
C5    C30   S    
C7    C9    A    
C5    C41   A    
C11   C17   A    
C34   Cl6   S    
C28   O16   A    
C33   Cl1   S    
C18   C27   A    
O14   Zn1   S    
C3    H2    S    
C23   C38   S    
C9    H10   S    
C32   C33   A    
C2    C3    D    
C4    O12   A    
O4    Zn3   S    
C11   C13   A    
C39   H3    S    
C33   C35   A    
C20   H12   S    
O5    Zn1   S    
C10   C11   A    
O1    Zn3   S    
C20   C21   A    
C16   C18   S    
C5    C40   A    
C36   H5    S    
C28   O10   A    
C38   O8    D    
