data_mof_unit_7663.cif
_audit_creation_date              2012-12-11T14:49:22-0500
_audit_creation_method            fapswitch 2.2
_symmetry_space_group_name_H-M    P1
_symmetry_Int_Tables_number       1
_space_group_crystal_system       triclinic
_cell_length_a                    16.769343
_cell_length_b                    16.841118
_cell_length_c                    19.600743
_cell_angle_alpha                 116.64258
_cell_angle_beta                  62.398173
_cell_angle_gamma                 100.63431
_cell_volume                      4382.77981103

loop_
_atom_site_label
_atom_site_type_symbol
_atom_type_description
_atom_site_fract_x
_atom_site_fract_y
_atom_site_fract_z
_atom_type_partial_charge
Br1   Br    Br    0.125472 0.492546 0.200347 -0.560458
Br2   Br    Br    0.756229 0.235530 0.778543 -0.559420
Br3   Br    Br    0.317726 0.367282 0.071574 -0.506661
Br4   Br    Br    0.814991 0.043203 0.900137 -0.495804
Br5   Br    Br    0.995694 0.923418 0.773977 -0.485049
C1    C     C_R   0.055992 0.752831 0.994104 0.288254
C2    C     C_R   0.252231 0.523337 0.829546 -0.101773
C3    C     C_R   0.182011 0.492375 0.089749 0.353693
C4    C     C_R   0.761627 0.422113 0.166164 -0.155537
C5    C     C_R   0.988487 0.340829 0.760838 0.289245
C6    C     C_R   0.262122 0.532923 0.059024 0.049852
C7    C     C_R   0.948183 0.261984 0.759825 0.128648
C8    C     C_R   0.260044 0.463278 0.749786 0.069123
C9    C     C_R   0.037108 0.224711 0.997346 0.097402
C10   C     C_R   0.027345 0.155974 0.616664 0.221168
C11   C     C_R   0.944600 0.189875 0.686578 -0.037589
C12   C     C_R   0.766609 0.437248 0.239895 0.093552
C13   C     C_R   0.861470 0.163649 0.683263 0.257313
C14   C     C_R   0.860678 0.092608 0.608808 -0.003741
C15   C     C_R   0.945339 0.064176 0.535921 -0.069466
C16   C     C_R   0.805085 0.567340 0.969607 -0.093321
C17   C     C_R   0.026804 0.102091 0.539088 0.063462
C18   C     C_R   0.781388 0.047231 0.602972 0.267733
C19   C     C_R   0.789066 0.976317 0.526698 -0.213589
C20   C     C_R   0.872442 0.947729 0.457567 0.120200
C21   C     C_R   0.950642 0.993429 0.460527 -0.003457
C22   C     C_R   0.035693 0.964281 0.389657 0.046293
C23   C     C_R   0.724145 0.556296 0.032056 0.044892
C24   C     C_R   0.110377 0.019316 0.388397 0.280409
C25   C     C_R   0.106509 0.084796 0.464433 -0.223902
C26   C     C_R   0.879281 0.871149 0.386340 -0.296229
C27   C     C_R   0.963945 0.836186 0.323077 0.061760
C28   C     C_R   0.958197 0.672136 0.248084 -0.086358
C29   C     C_R   0.043404 0.878844 0.326109 0.215249
C30   C     C_R   0.343314 0.360123 0.598169 -0.232073
C31   C     C_R   0.344430 0.422962 0.674766 0.107875
C32   C     C_R   0.426600 0.455303 0.677133 -0.237630
C33   C     C_R   0.504228 0.438856 0.602430 0.157750
C34   C     C_R   0.970735 0.756487 0.250651 0.061179
C35   C     C_R   0.500746 0.385480 0.524081 -0.000025
C36   C     C_R   0.421243 0.341165 0.521609 0.082952
C37   C     C_R   0.582958 0.482386 0.605128 -0.193781
C38   C     C_R   0.655053 0.480841 0.531046 -0.174992
C39   C     C_R   0.649403 0.434381 0.453735 0.153523
C40   C     C_R   0.738785 0.484664 0.041817 -0.073732
C41   C     C_R   0.574555 0.382390 0.449002 -0.018199
C42   C     C_R   0.571414 0.332082 0.370209 0.039334
C43   C     C_R   0.495354 0.280619 0.367917 -0.219198
C44   C     C_R   0.420189 0.284861 0.442573 0.294508
C45   C     C_R   0.254974 0.561583 0.005707 -0.212580
C46   C     C_R   0.713761 0.446206 0.382994 -0.303362
C47   C     C_R   0.707990 0.403910 0.305441 0.063230
C48   C     C_R   0.642746 0.337473 0.296328 0.236176
C49   C     C_R   0.637548 0.605835 0.076291 0.078960
C50   C     C_R   0.333739 0.552473 0.087691 -0.019741
C51   C     C_R   0.421900 0.506370 0.133627 -0.245923
C52   C     C_R   0.023794 0.750520 0.170117 -0.142743
C53   C     C_R   0.356887 0.488258 0.104144 0.350914
C54   C     C_R   0.385220 0.630511 0.092338 0.208009
C55   C     C_R   0.467069 0.632698 0.096705 0.081532
C56   C     C_R   0.926750 0.259208 0.835042 -0.144448
C57   C     C_R   0.480547 0.575475 0.125649 0.029064
C58   C     C_R   0.560761 0.578527 0.131723 0.261107
C59   C     C_R   0.625502 0.665390 0.049357 -0.217443
C60   C     C_R   0.539074 0.684212 0.065714 -0.171102
C61   C     C_R   0.825097 0.121189 0.054608 0.044242
C62   C     C_R   0.003369 0.846507 0.947624 0.065291
C63   C     C_R   0.970191 0.917975 0.878693 0.350171
C64   C     C_R   0.843356 0.485950 0.238395 -0.136883
C65   C     C_R   0.010204 0.846731 0.873087 0.140431
C66   C     C_R   0.970281 0.922137 0.023603 -0.279772
C67   C     C_R   0.174023 0.452505 0.753528 -0.144379
C68   C     C_R   0.929588 0.992026 0.030363 0.108872
C69   C     C_R   0.921212 0.987060 0.959528 -0.115817
C70   C     C_R   0.862953 0.051018 0.974774 0.312002
C71   C     C_R   0.841975 0.129937 0.120624 -0.224067
C72   C     C_R   0.892157 0.064466 0.109334 -0.151024
C73   C     C_R   0.974205 0.685024 0.922354 -0.228352
C74   C     C_R   0.013781 0.764379 0.952497 0.067658
C75   C     C_3   0.135427 0.804550 0.004874 -1.037705
C76   C     C_3   0.994487 0.383995 0.706417 -1.001887
C77   C     C_3   0.116047 0.176251 0.624503 -0.973595
C78   C     C_R   0.056168 0.308402 0.047948 -0.093553
C79   C     C_3   0.689018 0.064708 0.676333 -0.811758
C80   C     C_3   0.132516 0.826368 0.272554 -0.954073
C81   C     C_3   0.191624 0.015364 0.308403 -0.978923
C82   C     C_3   0.650501 0.269884 0.210420 -1.026893
C83   C     C_3   0.339072 0.231390 0.436206 -1.032472
C84   C     C_3   0.561390 0.559191 0.199778 -1.029430
C85   C     C_3   0.354595 0.711056 0.094675 -1.011507
C86   C     C_3   0.061596 0.772768 0.787489 -0.881884
C87   C     C_R   0.979084 0.240350 0.971484 -0.136326
H1    H     H_    0.886105 0.210845 0.857863 0.181886
H2    H     H_    0.280499 0.331047 0.597814 0.136051
H3    H     H_    0.429779 0.500563 0.735966 0.119324
H4    H     H_    0.586542 0.522477 0.664960 0.138303
H5    H     H_    0.713313 0.519677 0.534770 0.140399
H6    H     H_    0.764788 0.494208 0.391277 0.139816
H7    H     H_    0.816710 0.615704 0.944550 0.097877
H8    H     H_    0.491266 0.240793 0.308434 0.165819
H9    H     H_    0.682444 0.693248 0.011655 0.138499
H10   H     H_    0.436285 0.457159 0.148030 0.188078
H11   H     H_    0.532057 0.728528 0.042300 0.155587
H12   H     H_    0.155722 0.409726 0.703000 0.123553
H13   H     H_    0.924048 0.653241 0.300588 0.118469
H14   H     H_    0.812811 0.185536 0.181685 0.159598
H15   H     H_    0.900328 0.069536 0.162851 0.135109
H16   H     H_    0.968126 0.922918 0.080091 0.141945
H17   H     H_    0.691336 0.452043 0.079807 0.122201
H18   H     H_    0.049336 0.805415 0.152858 0.132980
H19   H     H_    0.876374 0.498345 0.278095 0.125199
H20   H     H_    0.945733 0.667371 0.878124 0.136688
H21   H     H_    0.299381 0.605569 0.978968 0.139182
H22   H     H_    0.182837 0.811229 0.945296 0.268006
H23   H     H_    0.098977 0.321237 0.079074 0.176724
H24   H     H_    0.113194 0.871950 0.056714 0.247913
H25   H     H_    0.171954 0.769510 0.018878 0.250430
H26   H     H_    0.046979 0.349398 0.641041 0.245254
H27   H     H_    0.928734 0.380179 0.704439 0.275248
H28   H     H_    0.010817 0.455147 0.732714 0.247904
H29   H     H_    0.106902 0.198653 0.690274 0.258123
H30   H     H_    0.159718 0.115210 0.586609 0.262305
H31   H     H_    0.151466 0.228173 0.601672 0.230231
H32   H     H_    0.660127 0.128499 0.692786 0.274269
H33   H     H_    0.640820 0.012895 0.660941 0.216414
H34   H     H_    0.950847 0.190403 0.931189 0.145655
H35   H     H_    0.692491 0.063673 0.731122 0.282044
H36   H     H_    0.177501 0.850935 0.304733 0.265027
H37   H     H_    0.121966 0.755685 0.262676 0.267807
H38   H     H_    0.166667 0.829120 0.209876 0.242440
H39   H     H_    0.250154 0.984064 0.300025 0.255100
H40   H     H_    0.177725 0.979535 0.252017 0.259993
H41   H     H_    0.209640 0.083724 0.312443 0.254449
H42   H     H_    0.637352 0.202421 0.209535 0.260054
H43   H     H_    0.601759 0.286655 0.194915 0.261507
H44   H     H_    0.719590 0.264640 0.160590 0.256364
H45   H     H_    0.305135 0.546852 0.849666 0.095209
H46   H     H_    0.280917 0.276597 0.464471 0.251705
H47   H     H_    0.351696 0.187934 0.369456 0.259607
H48   H     H_    0.321649 0.188074 0.470042 0.255358
H49   H     H_    0.505793 0.598018 0.261624 0.270158
H50   H     H_    0.551565 0.487675 0.186444 0.247505
H51   H     H_    0.624907 0.580196 0.206889 0.254975
H52   H     H_    0.280936 0.712418 0.115851 0.263978
H53   H     H_    0.368661 0.772588 0.141722 0.260638
H54   H     H_    0.390768 0.712917 0.031558 0.244797
H55   H     H_    0.116118 0.800874 0.745416 0.276318
H56   H     H_    0.714385 0.381859 0.142799 0.128470
H57   H     H_    0.095018 0.724690 0.791043 0.233920
H58   H     H_    0.015160 0.736228 0.758300 0.261714
H59   H     H_    0.729809 0.940086 0.522106 0.136475
H60   H     H_    0.819549 0.835943 0.381843 0.144467
H61   H     H_    0.165987 0.123038 0.464481 0.166894
N1    N     N_R   0.036080 0.671900 0.995420 -0.055975
N2    N     N_R   0.867430 0.509300 0.948100 -0.037870
N3    N     N_R   0.003360 0.617250 0.167070 -0.036711
N4    N     N_R   0.825450 0.461270 0.995400 -0.042143
N5    N     N_R   0.045340 0.665280 0.119770 -0.044775
N6    N     N_R   0.883740 0.497640 0.167070 -0.041188
N7    N     N_R   0.987050 0.628910 0.948110 -0.054880
N8    N     N_R   0.174550 0.538730 0.004600 -0.059477
N9    N     N_R   0.954660 0.334720 0.880230 -0.067590
N10   N     N_R   0.116260 0.502360 0.832930 -0.041184
N11   N     N_R   0.012950 0.371090 0.051890 -0.045854
N12   N     N_R   0.963920 0.328100 0.004580 -0.048079
N13   N     N_R   0.165290 0.545350 0.880240 -0.039719
N14   N     N_R   0.132570 0.490700 0.051900 -0.077147
N15   N     N_R   0.996640 0.382750 0.832930 -0.063872
N16   N     N_R   0.834710 0.454650 0.119760 -0.048543
Ni1   Ni    Ni4+2 0.104370 0.604370 0.000010 0.206189
Ni2   Ni    Ni4+2 0.895630 0.395630 0.999990 0.236167
Ni3   Ni    Ni4+2 0.991920 0.505780 0.891500 0.217875
Ni4   Ni    Ni4+2 0.008080 0.494220 0.108500 0.259359

loop_
_geom_bond_atom_site_label_1
_geom_bond_atom_site_label_2
_ccdc_geom_bond_type
C20   C26   A    
C78   N11   A    
N12   Ni2   S    
C7    C56   A    
C50   C54   A    
Br2   C13   S    
Br1   C3    S    
C68   C69   A    
C4    N16   A    
C14   C15   A    
C82   H42   S    
C52   N5    A    
C86   H55   S    
C28   N3    A    
C23   C40   A    
C35   C41   A    
C76   H28   S    
N1    Ni1   S    
C21   C22   A    
C28   C34   A    
C15   C21   A    
C37   H4    S    
C31   C32   A    
C3    N14   A    
C32   C33   A    
C33   C37   A    
C85   H53   S    
C3    C6    A    
C16   H7    S    
C40   H17   S    
C81   H39   S    
N2    N4    A    
C49   C58   A    
C63   C69   A    
C84   H50   S    
C34   C52   A    
C22   C24   A    
C32   H3    S    
C55   C57   A    
C13   C14   A    
C27   C34   S    
C83   H48   S    
Br4   C70   S    
C80   H37   S    
C41   C42   A    
C87   N12   A    
C84   H49   S    
C25   H61   S    
N9    Ni2   S    
C7    C11   S    
C5    N15   A    
C18   C19   A    
C17   C25   A    
C77   H29   S    
C42   C48   A    
C46   H6    S    
C54   C55   A    
C66   H16   S    
C45   N8    A    
N16   Ni2   S    
C44   C83   S    
C9    C78   A    
Br5   C63   S    
N2    Ni3   S    
C12   C47   S    
C36   C44   A    
C39   C41   A    
C75   H25   S    
C10   C77   S    
C10   C17   A    
C22   C29   A    
N7    Ni3   S    
C59   H9    S    
C43   H8    S    
N3    Ni4   S    
C69   C70   A    
C56   N9    A    
C82   H43   S    
C72   H15   S    
N10   N13   A    
C28   H13   S    
C71   C72   A    
C8    C31   S    
C18   C79   S    
C86   H57   S    
C23   C49   S    
C73   C74   A    
N5    Ni1   S    
C67   H12   S    
C20   C21   A    
C84   H51   S    
C76   H26   S    
C46   C47   A    
C29   C80   S    
C27   C29   A    
C14   C18   A    
C38   C39   A    
C83   H47   S    
N1    N7    A    
C24   C25   A    
C19   H59   S    
C78   H23   S    
C80   H38   S    
C4    H56   S    
C81   H41   S    
C1    C75   S    
C42   C43   A    
N15   Ni3   S    
C61   C71   A    
C58   C84   S    
C57   C58   A    
C16   N2    A    
C40   N4    A    
N11   Ni4   S    
C48   C82   S    
N8    N14   A    
C19   C20   A    
N10   Ni3   S    
C65   C86   S    
C9    C87   A    
C24   C81   S    
C1    N1    A    
C5    C7    A    
N9    N15   A    
N8    Ni1   S    
C39   C46   A    
C4    C12   A    
C35   C36   A    
C16   C23   A    
C75   H22   S    
C55   C60   A    
N13   Ni1   S    
C51   C57   A    
C37   C38   A    
C60   H11   S    
C77   H31   S    
C6    C50   S    
C47   C48   A    
C2    H45   S    
C30   H2    S    
C73   N7    A    
C79   H33   S    
C12   C64   A    
N11   N12   A    
C71   H14   S    
N6    N16   A    
C82   H44   S    
C2    N13   A    
C26   C27   A    
C75   H24   S    
C38   H5    S    
C15   C17   A    
C87   H34   S    
C86   H58   S    
C52   H18   S    
C8    C67   A    
C79   H32   S    
C76   H27   S    
C5    C76   S    
N14   Ni4   S    
C45   H21   S    
C59   C60   A    
C62   C65   A    
N3    N5    A    
C51   H10   S    
C85   H54   S    
C6    C45   A    
N4    Ni2   S    
C33   C35   A    
C26   H60   S    
C64   H19   S    
C81   H40   S    
C1    C74   A    
C49   C59   A    
C79   H35   S    
C83   H46   S    
C43   C44   A    
C61   C70   A    
C64   N6    A    
C67   N10   A    
C51   C53   A    
C62   C66   A    
C30   C36   A    
C77   H30   S    
Br3   C53   S    
C2    C8    A    
C11   C13   A    
N6    Ni4   S    
C50   C53   A    
C66   C68   A    
C63   C65   A    
C68   C72   A    
C80   H36   S    
C73   H20   S    
C30   C31   A    
C56   H1    S    
C54   C85   S    
C62   C74   S    
C85   H52   S    
C10   C11   A    
