data_mof_unit_9995.cif
_audit_creation_date              2012-12-11T20:00:13-0500
_audit_creation_method            fapswitch 2.2
_symmetry_space_group_name_H-M    P1
_symmetry_Int_Tables_number       1
_space_group_crystal_system       triclinic
_cell_length_a                    8.217
_cell_length_b                    16.30706
_cell_length_c                    27.059614
_cell_angle_alpha                 72.216574
_cell_angle_beta                  96.869287
_cell_angle_gamma                 95.649851
_cell_volume                      3420.46018651

loop_
_atom_site_label
_atom_site_type_symbol
_atom_type_description
_atom_site_fract_x
_atom_site_fract_y
_atom_site_fract_z
_atom_type_partial_charge
Ba1   Ba    Ba6+2 0.337820 0.939830 0.518500 1.670269
Ba2   Ba    Ba6+2 0.851970 0.060110 0.481480 1.674649
C1    C     C_3   0.076067 0.533183 0.618912 -0.341391
C2    C     C_R   0.440230 0.399396 0.186688 0.573818
C3    C     C_2   0.279975 0.277756 0.277507 -0.083737
C4    C     C_3   0.634280 0.630924 0.620655 0.287613
C5    C     C_3   0.273793 0.246675 0.335820 -0.046564
C6    C     C_1   0.476831 0.144204 0.339300 -0.006827
C7    C     C_2   0.519600 0.191886 0.292249 -0.135489
C8    C     C_2   0.410973 0.260459 0.257021 0.201549
C9    C     C_R   0.527413 0.407602 0.101922 -0.079802
C10   C     C_R   0.537401 0.317363 0.119340 -0.033463
C11   C     C_R   0.587042 0.276846 0.085344 -0.058197
C12   C     C_3   0.100355 0.630441 0.607653 0.326806
C13   C     C_R   0.477795 0.448441 0.135961 -0.026697
C14   C     C_2   0.356972 0.164311 0.361350 -0.270217
C15   C     C_2   0.846395 0.842256 0.639135 -0.285793
C16   C     C_3   0.649365 0.551867 0.668082 -0.317401
C17   C     C_R   0.662164 0.465039 0.965795 0.019264
C18   C     C_R   0.589296 0.597289 0.981813 0.020258
C19   C     C_R   0.645424 0.555742 0.948438 0.051538
C20   C     C_R   0.721944 0.427513 0.931264 -0.097106
C21   C     C_R   0.761471 0.476674 0.881662 -0.056011
C22   C     C_R   0.743642 0.565790 0.863818 -0.032661
C23   C     C_3   0.070703 0.027707 0.648970 0.307719
C24   C     C_R   0.685388 0.605547 0.897126 -0.077886
C25   C     C_R   0.667466 0.695203 0.879146 -0.037244
C26   C     C_R   0.708256 0.743751 0.828542 0.591209
C27   C     C_R   0.782993 0.615818 0.813286 0.590846
C28   C     C_3   0.474787 0.931982 0.328819 0.168677
C29   C     C_2   0.955798 0.754934 0.727699 -0.076313
C30   C     C_3   0.999766 0.813492 0.674621 -0.050518
C31   C     C_1   0.720180 0.859180 0.659181 0.039206
C32   C     C_2   0.681770 0.812226 0.706387 -0.080085
C33   C     C_2   0.804972 0.755324 0.743610 0.203709
C34   C     C_3   0.070433 0.998803 0.708026 -0.337351
C35   C     C_R   0.619581 0.415196 0.016747 0.019798
C36   C     C_R   0.566855 0.457109 0.050484 0.050714
C37   C     C_R   0.553171 0.548044 0.033418 0.019475
C38   C     C_R   0.627262 0.324292 0.035446 -0.097716
C39   C     C_R   0.467701 0.538130 0.118911 -0.054305
C40   C     C_3   0.487733 0.993421 0.273374 -0.344928
C41   C     C_R   0.570791 0.687296 0.962057 -0.097892
C42   C     C_R   0.609214 0.734800 0.912136 -0.056613
C43   C     C_R   0.504320 0.586715 0.069070 -0.099249
C44   C     C_2   0.394591 0.250686 0.508055 -0.294144
C45   C     C_3   0.647562 0.358164 0.365615 0.335381
C46   C     C_R   0.785725 0.765824 0.482146 -0.257935
C47   C     C_2   0.266942 0.315672 0.564022 -0.132031
C48   C     C_2   0.267293 0.250088 0.542648 -0.014738
C49   C     C_2   0.504966 0.317681 0.494581 0.015437
C50   C     C_3   0.465908 0.402080 0.500888 -0.074383
C51   C     C_3   0.397178 0.388919 0.552852 0.063584
C52   C     C_3   0.598370 0.115709 0.611011 0.259972
C53   C     C_2   0.601577 0.471062 0.493162 -0.071638
C54   C     C_2   0.562907 0.553040 0.480202 -0.058229
C55   C     C_R   0.829607 0.622944 0.450190 0.020477
C56   C     C_3   0.668357 0.430805 0.315399 -0.297763
C57   C     C_R   0.689003 0.624670 0.474451 -0.006165
C58   C     C_R   0.946630 0.692343 0.441650 -0.121024
C59   C     C_R   0.923472 0.764037 0.457379 0.076338
C60   C     C_R   0.667726 0.696782 0.490735 0.016799
C61   C     C_3   0.574528 0.182205 0.638802 -0.206328
C62   C     C_3   0.090600 0.998040 0.358746 0.332176
C63   C     C_3   0.065619 0.039569 0.300033 -0.367883
C64   C     C_2   0.709308 0.187084 0.680800 0.948035
C65   C     C_2   0.161884 0.313115 0.605333 0.882247
C66   C     C_2   0.489777 0.839073 0.330510 0.912206
C67   C     C_3   0.127864 0.379140 0.392590 0.348446
C68   C     C_3   0.116933 0.475442 0.383001 -0.349466
C69   C     C_R   0.496596 0.269263 0.170234 0.597574
H1    H     H_    0.228994 0.650058 0.598978 0.123273
H2    H     H_    0.015653 0.030599 0.377104 0.108575
H3    H     H_    0.157953 0.501296 0.653822 0.159438
H4    H     H_    0.131568 0.005515 0.279513 0.111549
H5    H     H_    0.112086 0.108222 0.289763 0.072194
H6    H     H_    0.932693 0.036206 0.286636 0.132571
H7    H     H_    0.016208 0.661143 0.572976 -0.012210
H8    H     H_    0.106544 0.514643 0.585029 0.101739
H9    H     H_    0.941747 0.034026 0.631561 0.025723
H10   H     H_    0.127541 0.978703 0.636885 0.019826
H11   H     H_    0.030553 0.051279 0.721102 0.178052
H12   H     H_    0.618082 0.007922 0.264779 0.143251
H13   H     H_    0.984185 0.941420 0.720772 0.076720
H14   H     H_    0.195838 0.982568 0.726629 0.118706
H15   H     H_    0.946524 0.511157 0.626064 0.116929
H16   H     H_    0.762939 0.560079 0.693164 0.156645
H17   H     H_    0.703610 0.300584 0.362857 0.093042
H18   H     H_    0.514430 0.343319 0.369687 -0.055234
H19   H     H_    0.795829 0.460339 0.314942 0.148427
H20   H     H_    0.643182 0.404516 0.281876 0.114183
H21   H     H_    0.582506 0.481484 0.311340 0.133322
H22   H     H_    0.258481 0.368226 0.391236 -0.057459
H23   H     H_    0.418608 0.965519 0.243775 0.130405
H24   H     H_    0.089952 0.344494 0.432115 0.072798
H25   H     H_    0.202837 0.497416 0.412042 0.073045
H26   H     H_    0.990589 0.489558 0.386906 0.148673
H27   H     H_    0.615913 0.687212 0.633941 0.051599
H28   H     H_    0.150834 0.511636 0.343274 0.136126
H29   H     H_    0.632920 0.181052 0.279063 0.134080
H30   H     H_    0.595389 0.207517 0.097263 0.124421
H31   H     H_    0.050033 0.717533 0.754192 0.103293
H32   H     H_    0.806655 0.444084 0.857130 0.125992
H33   H     H_    0.741468 0.359863 0.941388 0.073525
H34   H     H_    0.429552 0.053599 0.268837 0.099132
H35   H     H_    0.662679 0.286989 0.012314 0.073203
H36   H     H_    0.193184 0.323551 0.253997 0.120872
H37   H     H_    0.431079 0.571739 0.144292 0.130775
H38   H     H_    0.525140 0.723745 0.983942 0.073639
H39   H     H_    0.750242 0.642220 0.601635 -0.023058
H40   H     H_    0.592664 0.803472 0.899404 0.129219
H41   H     H_    0.561878 0.815210 0.718470 0.125100
H42   H     H_    0.494472 0.655093 0.060139 0.075021
H43   H     H_    0.342484 0.134448 0.402454 0.074623
H44   H     H_    0.839441 0.848291 0.597834 0.072370
H45   H     H_    0.485164 0.108958 0.585597 -0.019813
H46   H     H_    0.052165 0.691117 0.421546 0.101727
H47   H     H_    0.409241 0.191712 0.498872 0.066629
H48   H     H_    0.769202 0.821879 0.494008 0.076497
H49   H     H_    0.728991 0.454901 0.502196 0.109785
H50   H     H_    0.541426 0.543187 0.690710 0.132675
H51   H     H_    0.434493 0.567211 0.475168 0.110442
H52   H     H_    0.656091 0.493404 0.655702 0.140646
H53   H     H_    0.353196 0.933826 0.341124 -0.025786
H54   H     H_    0.882927 0.261535 0.709068 0.305680
H55   H     H_    0.145862 0.338539 0.672938 0.313909
H56   H     H_    0.702132 0.138799 0.586780 0.065336
H57   H     H_    0.447907 0.793605 0.406113 0.282456
H58   H     H_    0.569271 0.246632 0.609556 0.021125
H59   H     H_    0.456189 0.166316 0.656589 0.082888
H60   H     H_    0.219518 0.008342 0.373511 -0.054599
N1    N     N_R   0.449356 0.310141 0.203859 -0.421366
N2    N     N_R   0.764826 0.704053 0.795917 -0.425307
O1    O     O_2   0.431310 0.922990 0.623550 -0.466009
O2    O     O_2   0.844639 0.307828 0.502491 -0.451547
O3    O     O_3   0.725846 0.384323 0.407768 -0.604857
O4    O     O_3   0.663280 0.983100 0.563360 -0.498161
O5    O     O_3   0.016420 0.932050 0.462720 -0.490671
O6    O     O_2   0.959730 0.164640 0.549160 -0.433610
O7    O     O_3   0.161929 0.106886 0.634176 -0.632575
O8    O     O_2   0.926213 0.212028 0.327483 -0.504230
O9    O     O_3   0.023863 0.351671 0.354541 -0.592012
O10   O     O_2   0.501054 0.190813 0.184137 -0.611183
O11   O     O_2   0.832287 0.580474 0.784634 -0.603771
O12   O     O_3   0.046073 0.909372 0.370144 -0.619499
O13   O     O_2   0.400797 0.436936 0.215754 -0.614970
O14   O     O_2   0.695456 0.821742 0.813854 -0.581286
O15   O     O_3   0.126250 0.812630 0.574830 -0.492671
O16   O     O_2   0.312637 0.761385 0.664254 -0.493740
O17   O     O_3   0.630085 0.036684 0.648086 -0.605670
O18   O     O_3   0.066758 0.653418 0.651208 -0.608711
O19   O     O_2   0.229950 0.835370 0.450810 -0.470853
O20   O     O_3   0.517580 0.797570 0.545130 -0.482316
O21   O     O_2   0.327570 0.691471 0.500445 -0.498198
O22   O     O_2   0.735344 0.123903 0.718447 -0.582129
O23   O     O_3   0.499792 0.615968 0.586641 -0.606435
O24   O     O_R   0.798522 0.265574 0.678004 -0.728582
O25   O     O_2   0.018218 0.285986 0.602974 -0.559817
O26   O     O_R   0.227904 0.344063 0.646777 -0.763410
O27   O     O_2   0.522159 0.821233 0.292233 -0.576827
O28   O     O_R   0.469050 0.772032 0.376344 -0.739443
O29   O     O_2   0.758370 0.077020 0.376420 -0.449856
O30   O     O_3   0.526390 0.016840 0.436620 -0.468258
O31   O     O_3   0.063420 0.187310 0.425160 -0.482490
O32   O     O_3   0.599845 0.951335 0.364671 -0.619339
O33   O     O_3   0.173250 0.067890 0.537260 -0.482170
O34   O     O_3   0.672100 0.202370 0.454860 -0.496569
P1    P     P_3+3 0.610630 0.953360 0.619150 1.006739
P2    P     P_3+3 0.057260 0.861390 0.437850 1.021272
P3    P     P_3+3 0.500026 0.701225 0.528784 0.945852
P4    P     P_3+3 0.579040 0.046590 0.380840 0.998307
P5    P     P_3+3 0.687834 0.303336 0.465448 0.958700
P6    P     P_3+3 0.129973 0.762480 0.641951 0.964447
P7    P     P_3+3 0.145220 0.147631 0.566180 0.990057
P8    P     P_3+3 0.069726 0.246786 0.359620 0.936844

loop_
_geom_bond_atom_site_label_1
_geom_bond_atom_site_label_2
_ccdc_geom_bond_type
O32   P4    S    
C27   N2    Am   
C53   C54   D    
O18   P6    S    
C39   H37   S    
C62   O12   S    
C23   H9    S    
C32   H41   S    
C19   C24   A    
C1    H8    S    
C33   N2    S    
C52   O17   S    
C66   O28   S    
C68   H28   S    
C44   H47   S    
C24   C25   A    
C63   H5    S    
O31   P8    S    
Ba2   O6    S    
C4    H27   S    
C69   O10   D    
C49   P5    S    
C17   C19   A    
C22   C24   A    
C32   C33   S    
C35   C38   A    
C67   H22   S    
C36   C37   A    
C45   O3    S    
H54   O24   S    
C55   C57   A    
C52   C61   S    
C20   H33   S    
O21   P3    D    
Ba1   O19   S    
Ba1   Ba2   S    
C61   H59   S    
O23   P3    S    
C1    H3    S    
C22   C27   A    
C11   C38   A    
C17   C35   A    
C69   N1    Am   
C9    C13   A    
C25   C42   A    
C21   H32   S    
O29   P4    D    
O3    P5    S    
C34   H11   S    
C6    C7    D    
C26   O14   D    
C52   H45   S    
O20   P3    S    
C21   C22   A    
O30   P4    S    
C56   H20   S    
Ba2   O33   S    
O16   P6    D    
C68   H26   S    
C4    O23   S    
C16   H52   S    
C37   C43   A    
C61   H58   S    
C61   C64   S    
C2    O13   D    
C6    C14   D    
C1    H15   S    
C23   H10   S    
C45   H18   S    
Ba2   O29   S    
C15   C31   D    
C4    C16   S    
C7    C8    S    
C46   H48   S    
C53   H49   S    
C60   P3    S    
O12   P2    S    
O33   P7    S    
C63   H6    S    
C49   C50   S    
Ba2   O5    S    
C29   H31   S    
C23   O7    S    
C13   C39   A    
C2    N1    Am   
Ba2   O31   S    
C3    C5    S    
C18   C37   A    
C55   C58   A    
C16   H50   S    
Ba1   P1    S    
C67   O9    S    
H55   O26   S    
C27   O11   D    
C44   C49   D    
C26   N2    Am   
C5    P8    S    
C58   C59   A    
C54   H51   S    
C4    H39   S    
C9    C36   A    
C68   H25   S    
C41   C42   A    
C35   C36   A    
Ba1   O15   S    
C46   C60   A    
C29   C30   S    
C62   H60   S    
C62   H2    S    
O17   P1    S    
C17   C20   A    
C31   C32   D    
C58   H46   S    
O2    P5    D    
C18   C19   A    
Ba1   O20   S    
C56   H19   S    
C6    P4    S    
O34   P5    S    
C1    C12   S    
C5    C14   S    
C10   C69   A    
C28   H53   S    
C7    H29   S    
C12   O18   S    
O1    P1    D    
C31   P1    S    
C59   P2    S    
C11   H30   S    
Ba1   O1    S    
C18   C41   A    
Ba1   O4    S    
C50   C51   S    
C15   H44   S    
C38   H35   S    
C3    H36   S    
C44   C48   S    
C57   C60   A    
C47   C65   S    
C40   H23   S    
Ba2   O4    S    
C12   H1    S    
C40   H12   S    
C16   H16   S    
C28   O32   S    
C67   H24   S    
C14   H43   S    
Ba2   O30   S    
C9    C10   A    
C50   C53   S    
O9    P8    S    
C34   H14   S    
C52   H56   S    
Ba2   P4    S    
O15   P6    S    
C63   H4    S    
C54   C57   S    
C48   P7    S    
C62   C63   S    
C2    C13   A    
C3    C8    D    
C45   H17   S    
C45   C56   S    
O19   P2    D    
C46   C59   A    
C64   O22   D    
C30   P6    S    
Ba1   O33   S    
C34   H13   S    
C47   C51   S    
C64   O24   S    
Ba1   P2    S    
H57   O28   S    
C65   O25   D    
C29   C33   D    
C12   H7    S    
C67   C68   S    
C40   H34   S    
C8    N1    S    
C23   C34   S    
C42   H40   S    
C43   H42   S    
C10   C11   A    
Ba1   O30   S    
O7    P7    S    
C47   C48   D    
C25   C26   A    
O8    P8    D    
C15   C30   S    
C39   C43   A    
C20   C21   A    
C28   C40   S    
O6    P7    D    
C65   O26   S    
C41   H38   S    
C66   O27   D    
C56   H21   S    
Ba2   O34   S    
O4    P1    S    
C28   C66   S    
Ba1   O5    S    
O5    P2    S    
