data_mof_unit_53355.cif
_audit_creation_date              2012-10-26T21:17:40-0400
_audit_creation_method            fapswitch 2.2
_symmetry_space_group_name_H-M    P1
_symmetry_Int_Tables_number       1
_space_group_crystal_system       triclinic
_cell_length_a                    10.804146
_cell_length_b                    9.082264
_cell_length_c                    7.809089
_cell_angle_alpha                 89.862537
_cell_angle_beta                  88.734789
_cell_angle_gamma                 89.170983
_cell_volume                      766.006831138

loop_
_atom_site_label
_atom_site_type_symbol
_atom_type_description
_atom_site_fract_x
_atom_site_fract_y
_atom_site_fract_z
_atom_type_partial_charge
C1    C     C_R   0.497471 0.220210 0.500145 0.593162
C2    C     C_R   0.057727 0.498190 0.660169 -0.003493
C3    C     C_R   0.126438 0.536748 0.511616 0.027127
C4    C     C_R   0.873896 0.481413 0.494122 0.032589
C5    C     C_R   0.063118 0.571510 0.363364 -0.138756
C6    C     C_R   0.936297 0.550810 0.357125 -0.140892
C7    C     C_1   0.497522 0.065449 0.500189 0.044058
C8    C     C_1   0.498390 0.934611 0.499881 0.026840
C9    C     C_R   0.499612 0.779882 0.499874 0.567184
C10   C     C_R   0.261776 0.516602 0.502768 0.552512
C11   C     C_R   0.738638 0.489328 0.498314 0.593823
C12   C     C_R   0.100775 0.515269 0.827704 0.281352
C13   C     C_R   0.901323 0.330537 0.763731 0.250472
C14   C     C_R   0.056403 0.420654 0.955257 -0.143664
C15   C     C_R   0.961599 0.323733 0.920730 -0.138466
C16   C     C_R   0.941404 0.434750 0.638702 -0.013632
Cu1   Cu    Cu3+1 0.500000 0.500000 0.669080 1.176971
Cu2   Cu    Cu3+1 0.500000 0.500000 0.330920 1.111912
H1    H     H_    0.112012 0.616919 0.254413 0.207087
H2    H     H_    0.887441 0.588707 0.245261 0.173503
H3    H     H_    0.096190 0.420013 0.080319 0.143758
H4    H     H_    0.934038 0.244488 0.017628 0.154376
H5    H     H_    0.099488 0.872087 0.035217 0.371986
H6    H     H_    0.865699 0.003855 0.885524 0.362870
N1    N     N_1   0.500000 0.500000 0.076820 -0.039806
N2    N     N_1   0.500000 0.500000 0.923180 -0.029687
O1    O     O_R   0.500000 0.288390 0.642760 -0.458765
O2    O     O_2   0.212397 0.772031 0.739537 -0.265562
O3    O     O_3   0.057152 0.782660 0.995912 -0.540541
O4    O     O_2   0.690759 0.187787 0.825327 -0.285581
O5    O     O_2   0.774786 0.176036 0.529938 -0.287486
O6    O     O_3   0.883948 0.022810 0.762643 -0.466480
O7    O     O_R   0.500000 0.711610 0.642760 -0.468917
O8    O     O_R   0.500000 0.288370 0.357190 -0.504631
O9    O     O_R   0.500000 0.711630 0.357190 -0.498189
O10   O     O_R   0.319650 0.500000 0.642810 -0.481958
O11   O     O_R   0.680350 0.500000 0.642810 -0.485725
O12   O     O_R   0.319630 0.500000 0.357240 -0.504854
O13   O     O_R   0.680370 0.500000 0.357240 -0.517186
O14   O     O_2   0.272365 0.654162 0.009074 -0.296428
S1    S     S_3+6 0.167291 0.683633 0.890847 0.018628
S2    S     S_3+6 0.806786 0.179670 0.716012 0.020489

loop_
_geom_bond_atom_site_label_1
_geom_bond_atom_site_label_2
_ccdc_geom_bond_type
C4    C16   A    
C9    O7    A    
Cu2   O13   S    
H6    O6    S    
C12   S1    S    
C5    H1    S    
Cu1   O10   S    
C6    H2    S    
Cu2   O9    S    
C10   O12   A    
C2    C12   A    
C2    C3    A    
Cu2   O12   S    
C7    C8    T    
C3    C10   S    
Cu1   O11   S    
C4    C11   S    
C11   O13   A    
Cu2   O8    S    
Cu2   N1    S    
Cu1   O7    S    
Cu1   N2    S    
H5    O3    S    
C14   H3    S    
C4    C6    A    
C13   S2    S    
O5    S2    D    
C12   C14   A    
C1    O8    A    
Cu1   Cu2   S    
C13   C15   A    
C5    C6    A    
C9    O9    A    
Cu1   O1    S    
O2    S1    D    
C2    C16   A    
C11   O11   A    
C13   C16   A    
C1    O1    A    
O6    S2    S    
C14   C15   A    
O14   S1    D    
C10   O10   A    
O3    S1    S    
N1    N2    T    
C1    C7    S    
C15   H4    S    
O4    S2    D    
C8    C9    S    
C3    C5    A    
