data_mof_unit_31036.cif
_audit_creation_date              2012-12-11T15:09:36-0500
_audit_creation_method            fapswitch 2.2
_symmetry_space_group_name_H-M    P1
_symmetry_Int_Tables_number       1
_space_group_crystal_system       triclinic
_cell_length_a                    20.751928
_cell_length_b                    7.123136
_cell_length_c                    14.108714
_cell_angle_alpha                 90.392409
_cell_angle_beta                  97.60203
_cell_angle_gamma                 89.903026
_cell_volume                      2067.15405944

loop_
_atom_site_label
_atom_site_type_symbol
_atom_type_description
_atom_site_fract_x
_atom_site_fract_y
_atom_site_fract_z
_atom_type_partial_charge
O1    O     O_R   0.447130 0.507140 0.597350 -0.539986
O2    O     O_R   0.552870 0.007140 0.402650 -0.537123
O3    O     O_R   0.578910 0.181280 0.586990 -0.536219
O4    O     O_R   0.421090 0.681280 0.413010 -0.536481
C1    C     C_R   0.604359 0.344959 0.607700 0.722154
C2    C     C_R   0.395596 0.844482 0.392350 0.721571
O5    O     O_R   0.449230 0.177860 0.608640 -0.536782
O6    O     O_R   0.550770 0.677860 0.391360 -0.545368
O7    O     O_R   0.422260 0.000770 0.424450 -0.534709
O8    O     O_R   0.577740 0.500770 0.575550 -0.537098
C3    C     C_R   0.434591 0.348942 0.637278 0.689702
C4    C     C_R   0.566776 0.846387 0.364541 0.703697
O9    O     O_3   0.491310 0.336980 0.439550 -0.376747
O10   O     O_3   0.508690 0.836980 0.560450 -0.373505
V1    V     V_3+5 0.501610 0.064760 0.511210 1.410147
V2    V     V_3+5 0.498390 0.564760 0.488790 1.394079
C5    C     C_R   0.620885 0.992222 0.130084 0.003719
C6    C     C_R   0.375072 0.567486 0.855878 0.001790
H1    H     H_    0.713109 0.036558 0.011848 0.157009
H2    H     H_    0.279821 0.649606 0.964871 0.152994
C7    C     C_R   0.604301 0.861140 0.283754 -0.071358
C8    C     C_R   0.397814 0.375953 0.719238 -0.064087
C9    C     C_R   0.917518 0.774207 0.297272 -0.208212
C10   C     C_R   0.087171 0.247964 0.707818 -0.202039
C11   C     C_R   0.880255 0.757438 0.371268 -0.130507
C12   C     C_R   0.125044 0.224809 0.634501 -0.132168
C13   C     C_R   0.815688 0.822108 0.361390 0.091321
C14   C     C_R   0.188242 0.298882 0.642088 0.089012
C15   C     C_R   0.783782 0.865174 0.267200 0.055825
C16   C     C_R   0.217936 0.366848 0.733464 0.057624
C17   C     C_R   0.823994 0.893931 0.193847 0.053934
C18   C     C_R   0.176207 0.409410 0.803631 0.054439
C19   C     C_R   0.714496 0.880015 0.241665 0.060986
C20   C     C_R   0.286561 0.397021 0.758394 0.056941
C21   C     C_R   0.688600 0.956226 0.151597 0.050285
C22   C     C_R   0.309153 0.510035 0.839214 0.053375
C23   C     C_R   0.730585 0.989695 0.083353 -0.166362
C24   C     C_R   0.265092 0.565569 0.901637 -0.166928
C25   C     C_R   0.796363 0.956046 0.103392 -0.194547
C26   C     C_R   0.201013 0.508207 0.886745 -0.196851
C27   C     C_R   0.669797 0.810283 0.299519 -0.270516
C28   C     C_R   0.333490 0.312430 0.708122 -0.242398
C29   C     C_R   0.579069 0.956256 0.199308 0.014759
C30   C     C_R   0.419435 0.507361 0.793397 0.016384
C31   C     C_R   0.891172 0.853813 0.210934 -0.076734
C32   C     C_R   0.110613 0.349694 0.790017 -0.084584
H3    H     H_    0.685338 0.721584 0.359935 0.122068
H4    H     H_    0.319719 0.204966 0.654890 0.124186
H5    H     H_    0.967955 0.730064 0.308485 0.113627
H6    H     H_    0.038146 0.192274 0.698734 0.116880
H7    H     H_    0.903444 0.701786 0.438402 0.115882
H8    H     H_    0.103504 0.155455 0.569499 0.115909
H9    H     H_    0.825411 0.979415 0.046268 0.127154
H10   H     H_    0.170841 0.546619 0.940688 0.134101
C33   C     C_1   0.166869 0.857795 0.167774 -0.197495
C34   C     C_1   0.832721 0.357938 0.833305 -0.198744
C35   C     C_1   0.219394 0.855929 0.218562 0.005324
C36   C     C_1   0.780062 0.357386 0.782829 0.006764
C37   C     C_1   0.281186 0.854388 0.278467 0.003514
C38   C     C_1   0.718383 0.356550 0.722594 -0.005560
C39   C     C_1   0.333435 0.851440 0.329913 -0.214240
C40   C     C_1   0.666341 0.353094 0.670589 -0.211350
O11   O     O_R   0.922300 0.202240 0.924350 -0.535706
O12   O     O_R   0.077700 0.702240 0.075650 -0.536802
O13   O     O_R   0.050780 0.535130 0.891350 -0.544375
O14   O     O_R   0.949220 0.035130 0.108650 -0.542623
C41   C     C_R   0.068455 0.366700 0.865982 0.690572
C42   C     C_R   0.932777 0.867527 0.135054 0.691546
O15   O     O_R   0.921100 0.531560 0.912990 -0.535427
O16   O     O_R   0.078900 0.031560 0.087010 -0.534953
O17   O     O_R   0.947120 0.708470 0.097370 -0.535311
O18   O     O_R   0.052880 0.208470 0.902630 -0.534911
C43   C     C_R   0.895650 0.363547 0.893972 0.716759
C44   C     C_R   0.104232 0.863719 0.106406 0.711312
O19   O     O_3   0.008710 0.375800 0.060400 -0.373177
O20   O     O_3   0.991290 0.875800 0.939600 -0.374256
V3    V     V_3+5 0.998380 0.648080 0.988790 1.421944
V4    V     V_3+5 0.001620 0.148080 0.011210 1.427328
C45   C     C_3   0.508627 0.023824 0.184454 -0.374135
C46   C     C_3   0.504518 0.236950 0.199983 -0.289894
C47   C     C_3   0.434149 0.301578 0.197249 -0.664982
H11   H     H_    0.406190 0.269192 0.126348 0.246060
H12   H     H_    0.410890 0.230880 0.253887 0.220685
H13   H     H_    0.432922 0.455542 0.209823 0.219048
H14   H     H_    0.531986 0.276495 0.270179 0.218944
H15   H     H_    0.526542 0.312408 0.143620 0.208544
H16   H     H_    0.485122 0.987100 0.111727 0.217849
H17   H     H_    0.479147 0.951204 0.233184 0.150543
C48   C     C_3   0.488300 0.589904 0.803485 -0.377602
C49   C     C_3   0.530867 0.531002 0.895665 -0.278540
C50   C     C_3   0.601701 0.588843 0.894117 -0.654421
H18   H     H_    0.624320 0.497984 0.843569 0.218988
H19   H     H_    0.604939 0.737349 0.871852 0.224697
H20   H     H_    0.629500 0.574322 0.966512 0.250687
H21   H     H_    0.514146 0.596341 0.959463 0.238333
H22   H     H_    0.527845 0.376760 0.902628 0.218377
H23   H     H_    0.514977 0.545662 0.744315 0.181216
H24   H     H_    0.485242 0.745435 0.799719 0.210466
C51   C     C_2   0.594325 0.075491 0.037184 0.691786
O21   O     O_2   0.615016 0.226340 0.014054 -0.585223
O22   O     O_R   0.546815 0.980112 0.975896 -0.659513
H25   H     H_    0.534215 0.047532 0.913182 0.299047
C52   C     C_2   0.395948 0.700087 0.935392 0.725058
O23   O     O_2   0.407999 0.863445 0.918484 -0.551928
O24   O     O_R   0.399834 0.637653 0.029680 -0.679571
H26   H     H_    0.411639 0.741361 0.078235 0.281195
C53   C     C_3   0.786284 0.858143 0.453296 -0.387335
C54   C     C_3   0.831399 0.969377 0.528988 -0.318487
C55   C     C_3   0.800004 0.994939 0.619899 -0.746923
H27   H     H_    0.753062 0.070247 0.603721 0.234570
H28   H     H_    0.791234 0.856363 0.651517 0.231561
H29   H     H_    0.833019 0.077354 0.672759 0.220810
H30   H     H_    0.878269 0.895905 0.549285 0.191441
H31   H     H_    0.841676 0.109532 0.500172 0.200314
H32   H     H_    0.741876 0.945454 0.439167 0.184759
H33   H     H_    0.774153 0.721017 0.483698 0.175391
C56   C     C_3   0.218064 0.321985 0.549628 -0.390690
C57   C     C_3   0.172289 0.421197 0.470685 -0.315116
C58   C     C_3   0.205703 0.452113 0.381944 -0.741592
H34   H     H_    0.249613 0.540859 0.399852 0.231408
H35   H     H_    0.220106 0.315407 0.352645 0.232808
H36   H     H_    0.171735 0.523956 0.326312 0.219967
H37   H     H_    0.127994 0.336139 0.448869 0.191066
H38   H     H_    0.157287 0.559467 0.497638 0.200180
H39   H     H_    0.261981 0.411537 0.561320 0.185388
H40   H     H_    0.231392 0.181374 0.523537 0.174391

loop_
_geom_bond_atom_site_label_1
_geom_bond_atom_site_label_2
_ccdc_geom_bond_type
O14   C42   A    
O22   H25   S    
C9    C31   A    
C13   C15   A    
O12   V3    S    
O15   V3    S    
O1    C3    A    
O2    C4    A    
C2    O7    A    
C45   H16   S    
C47   H11   S    
C49   H21   S    
C25   H9    S    
O5    C3    A    
C2    C39   S    
C21   C23   A    
O20   V4    S    
C6    C30   A    
C14   C56   S    
C55   H28   S    
C9    H5    S    
O16   V4    S    
C36   C38   S    
C15   C19   A    
C54   C55   S    
C38   C40   T    
C41   O18   A    
C54   H31   S    
O19   V3    S    
C57   C58   S    
C46   H15   S    
H1    C23   S    
C7    C29   A    
C33   C44   S    
C8    C30   A    
C17   C25   A    
O13   C41   A    
C20   C28   A    
O16   C44   A    
O18   V4    S    
C53   C54   S    
O15   C43   A    
C56   H40   S    
C57   H37   S    
O5    V1    S    
O6    V2    S    
C24   C26   A    
C45   H17   S    
C47   H12   S    
C58   H35   S    
C10   H6    S    
O14   V4    S    
C37   C39   T    
O13   V3    S    
C16   C20   A    
O20   V3    S    
O4    C2    A    
C55   H29   S    
C50   H18   S    
C57   H38   S    
O11   C43   A    
C4    C7    S    
C48   H23   S    
C54   H30   S    
O4    V2    S    
C5    C29   A    
C46   H14   S    
C12   H8    S    
C50   H19   S    
H2    C24   S    
C51   O21   D    
C13   C53   S    
O6    C4    A    
C31   C42   S    
C27   H3    S    
C52   O24   S    
O1    V2    S    
C28   H4    S    
O2    V1    S    
C5    C51   S    
C53   H32   S    
C29   C45   S    
C7    C27   A    
C51   O22   S    
C26   H10   S    
C33   C35   T    
O17   V3    S    
C47   H13   S    
O3    V1    S    
C58   H36   S    
C34   C43   S    
C18   C32   A    
C10   C12   A    
C46   C47   S    
O3    C1    A    
C58   H34   S    
C49   H22   S    
C11   C13   A    
O24   H26   S    
C3    C8    S    
C12   C14   A    
C11   H7    S    
C48   H24   S    
C19   C27   A    
C22   C24   A    
O7    V1    S    
C10   C32   A    
C32   C41   S    
C23   C25   A    
O8    V2    S    
C55   H27   S    
C50   H20   S    
C16   C18   A    
C49   C50   S    
C8    C28   A    
C56   H39   S    
C42   O17   A    
C14   C16   A    
C19   C21   A    
C34   C36   T    
C1    C40   S    
C20   C22   A    
C6    C52   S    
C18   C26   A    
O19   V4    S    
C53   H33   S    
C35   C37   S    
C45   C46   S    
C1    O8    A    
C9    C11   A    
C15   C17   A    
C17   C31   A    
O9    V2    S    
C52   O23   D    
O12   C44   A    
O10   V1    S    
C5    C21   A    
C48   C49   S    
C56   C57   S    
C6    C22   A    
C30   C48   S    
O11   V4    S    
