data_mof_unit_49110.cif
_audit_creation_date              2012-12-11T15:10:43-0500
_audit_creation_method            fapswitch 2.2
_symmetry_space_group_name_H-M    P1
_symmetry_Int_Tables_number       1
_space_group_crystal_system       triclinic
_cell_length_a                    21.171386
_cell_length_b                    7.217182
_cell_length_c                    18.385946
_cell_angle_alpha                 89.642945
_cell_angle_beta                  92.936817
_cell_angle_gamma                 89.667642
_cell_volume                      2805.53428599

loop_
_atom_site_label
_atom_site_type_symbol
_atom_type_description
_atom_site_fract_x
_atom_site_fract_y
_atom_site_fract_z
_atom_type_partial_charge
O1    O     O_R   0.448880 0.506250 0.415280 -0.527108
O2    O     O_R   0.551120 0.006250 0.584720 -0.533839
O3    O     O_R   0.434830 0.174000 0.557310 -0.524659
O4    O     O_R   0.565170 0.674000 0.442690 -0.521307
C1    C     C_R   0.417617 0.344447 0.580542 0.690267
C2    C     C_R   0.581815 0.844304 0.418701 0.689564
O5    O     O_R   0.441680 0.176440 0.414130 -0.531140
O6    O     O_R   0.558320 0.676440 0.585870 -0.529911
O7    O     O_R   0.558020 0.007570 0.440520 -0.521359
O8    O     O_R   0.441980 0.507570 0.559480 -0.517687
C3    C     C_R   0.425908 0.346529 0.390173 0.688461
C4    C     C_R   0.574109 0.844810 0.609691 0.684554
O9    O     O_3   0.538160 0.339670 0.508820 -0.364322
O10   O     O_3   0.461840 0.839670 0.491180 -0.358958
V1    V     V_3+5 0.492920 0.064260 0.498360 1.446685
V2    V     V_3+5 0.507080 0.564260 0.501640 1.463516
C5    C     C_R   0.870351 0.081930 0.698727 0.445172
C6    C     C_R   0.114438 0.287798 0.302139 0.447974
H1    H     H_    0.946612 0.155276 0.773715 0.170675
H2    H     H_    0.030455 0.311053 0.232646 0.151476
C7    C     C_R   0.887055 0.949719 0.820324 -0.197003
C8    C     C_R   0.110135 0.426786 0.181500 -0.179724
C9    C     C_R   0.588203 0.837237 0.741428 -0.168376
C10   C     C_R   0.413695 0.406755 0.259666 -0.161240
C11   C     C_R   0.622360 0.849012 0.807516 -0.113278
C12   C     C_R   0.379918 0.425747 0.193332 -0.104250
C13   C     C_R   0.687486 0.869430 0.809506 -0.006085
C14   C     C_R   0.314408 0.413930 0.189612 0.001650
C15   C     C_R   0.720867 0.872197 0.745143 0.100207
C16   C     C_R   0.280548 0.387261 0.252737 0.102804
C17   C     C_R   0.685953 0.876108 0.675948 0.007724
C18   C     C_R   0.315310 0.342703 0.319856 0.016582
C19   C     C_R   0.787812 0.895649 0.749035 -0.120805
C20   C     C_R   0.212649 0.390248 0.249384 -0.126547
C21   C     C_R   0.815233 0.973659 0.688008 -0.160657
C22   C     C_R   0.181482 0.293943 0.304998 -0.166708
C23   C     C_R   0.787095 0.936944 0.618899 0.503774
C24   C     C_R   0.218350 0.207713 0.361718 0.495011
C25   C     C_R   0.721321 0.900801 0.611989 -0.001794
C26   C     C_R   0.280317 0.269037 0.377327 -0.011706
C27   C     C_R   0.828679 0.853757 0.811461 0.415789
C28   C     C_R   0.174370 0.479098 0.192075 0.405956
C29   C     C_R   0.904783 0.070553 0.765210 -0.283818
C30   C     C_R   0.081007 0.335173 0.237595 -0.267247
C31   C     C_R   0.617946 0.852415 0.675358 -0.047364
C32   C     C_R   0.383286 0.362536 0.323384 -0.040837
H3    H     H_    0.537350 0.820583 0.741850 0.110882
H4    H     H_    0.464677 0.421463 0.260925 0.110449
H5    H     H_    0.711551 0.887457 0.862275 0.155158
H6    H     H_    0.290419 0.423026 0.136430 0.156654
H7    H     H_    0.597995 0.844019 0.857836 0.132432
H8    H     H_    0.404767 0.451106 0.144262 0.131247
C33   C     C_1   0.864351 0.938925 0.131906 -0.151914
C34   C     C_1   0.135505 0.438873 0.867927 -0.157361
C35   C     C_1   0.821352 0.924771 0.175454 0.039474
C36   C     C_1   0.178396 0.424785 0.824228 0.035898
C37   C     C_1   0.770566 0.905495 0.227245 0.038589
C38   C     C_1   0.229030 0.405619 0.772224 0.035770
C39   C     C_1   0.727756 0.888733 0.270905 0.038715
C40   C     C_1   0.271696 0.388954 0.728365 0.035711
C41   C     C_1   0.676899 0.869509 0.322591 0.033773
C42   C     C_1   0.322391 0.369826 0.676445 0.029256
C43   C     C_1   0.633886 0.855467 0.366114 -0.186241
C44   C     C_1   0.365353 0.355803 0.632845 -0.186285
O11   O     O_R   0.058070 0.289240 0.940580 -0.531504
O12   O     O_R   0.941930 0.789240 0.059420 -0.513043
O13   O     O_R   0.058330 0.616740 0.085880 -0.491011
O14   O     O_R   0.941670 0.116740 0.914120 -0.556177
C45   C     C_R   0.072246 0.447258 0.111539 0.754827
C46   C     C_R   0.927458 0.949317 0.888745 0.769358
O15   O     O_R   0.065180 0.619040 0.942700 -0.517817
O16   O     O_R   0.934820 0.119040 0.057300 -0.532448
O17   O     O_R   0.948870 0.787780 0.915270 -0.483413
O18   O     O_R   0.051130 0.287780 0.084730 -0.551863
C47   C     C_R   0.083223 0.450299 0.920191 0.725131
C48   C     C_R   0.916730 0.950325 0.079781 0.721670
O19   O     O_3   0.961870 0.453310 0.991210 -0.350800
O20   O     O_3   0.038130 0.953310 0.008790 -0.370253
V3    V     V_3+5 0.007070 0.728770 0.001630 1.623630
V4    V     V_3+5 0.992930 0.228770 0.998370 1.487990
S1    S     S_3+6 0.837385 0.874915 0.547594 0.133572
O21   O     O_2   0.839573 0.030048 0.492874 -0.269115
O22   O     O_2   0.903172 0.832525 0.578075 -0.251428
O23   O     O_3   0.808909 0.684287 0.505461 -0.468482
H9    H     H_    0.838215 0.659779 0.466285 0.399510
S2    S     S_3+6 0.200310 0.978825 0.390905 0.098210
O24   O     O_2   0.172597 0.982156 0.464497 -0.250872
O25   O     O_2   0.154786 0.888988 0.336665 -0.287860
O26   O     O_3   0.267307 0.851758 0.396876 -0.504550
H10   H     H_    0.253378 0.722786 0.405001 0.367161
S3    S     S_3+6 0.888633 0.266701 0.639282 0.157028
O27   O     O_2   0.831029 0.323466 0.593172 -0.256532
O28   O     O_2   0.910916 0.430986 0.683245 -0.291601
O29   O     O_3   0.946415 0.202744 0.585114 -0.372911
H11   H     H_    0.982835 0.170449 0.618871 0.362744
S4    S     S_3+6 0.069271 0.259456 0.380234 0.174965
O30   O     O_2   0.107429 0.313867 0.447825 -0.247164
O31   O     O_2   0.011587 0.382048 0.373117 -0.282113
O32   O     O_3   0.045379 0.038858 0.388119 -0.382163
H12   H     H_    0.020642 0.013499 0.342099 0.350100
S5    S     S_3+6 0.816058 0.652600 0.865495 0.002998
O33   O     O_2   0.810444 0.707081 0.943671 -0.362696
O34   O     O_2   0.757886 0.548932 0.839447 -0.339981
O35   O     O_3   0.878320 0.509155 0.859148 -0.468702
H13   H     H_    0.863431 0.387599 0.876437 0.364840
S6    S     S_3+6 0.198275 0.687935 0.149255 0.006664
O36   O     O_2   0.257355 0.765158 0.186120 -0.318566
O37   O     O_2   0.209054 0.651511 0.070434 -0.372074
O38   O     O_3   0.140665 0.848088 0.154695 -0.474096
H14   H     H_    0.157468 0.961318 0.132080 0.355697
C49   C     C_3   0.690079 0.900865 0.536840 -0.644144
H15   H     H_    0.722048 0.931236 0.492761 0.251076
H16   H     H_    0.669164 0.762854 0.525942 0.201404
H17   H     H_    0.655109 0.014993 0.532372 0.189699
C50   C     C_3   0.306029 0.248346 0.454627 -0.637533
H18   H     H_    0.267519 0.225456 0.492445 0.240754
H19   H     H_    0.338319 0.127574 0.460207 0.244187
H20   H     H_    0.328934 0.379318 0.472158 0.155373

loop_
_geom_bond_atom_site_label_1
_geom_bond_atom_site_label_2
_ccdc_geom_bond_type
O14   V4    S    
C24   C26   A    
S5    O33   D    
C9    C31   A    
C13   C15   A    
C6    S4    S    
C49   H15   S    
O1    C3    A    
O16   C48   A    
O2    C4    A    
C2    O7    A    
C5    C29   A    
S1    O21   D    
O5    C3    A    
O12   V3    S    
C24   S2    S    
C21   C23   A    
C10   C12   A    
C6    C30   A    
S2    O25   D    
C37   C39   T    
C26   C50   S    
S6    O36   D    
C38   C40   T    
C50   H18   S    
S4    O32   S    
C15   C19   A    
C40   C42   S    
O6    V2    S    
C41   C43   T    
C42   C44   T    
S1    O22   D    
C7    C29   A    
C14   H6    S    
C8    C30   A    
C27   S5    S    
C20   C28   A    
C50   H19   S    
S4    O31   D    
C16   C18   A    
C8    C45   S    
O5    V1    S    
S5    O34   D    
O11   V4    S    
O18   V4    S    
C23   S1    S    
O15   V3    S    
O35   H13   S    
H2    C30   S    
H1    C29   S    
C33   C35   T    
C23   C25   A    
C34   C36   T    
C39   C41   S    
C9    H3    S    
C16   C20   A    
C10   H4    S    
O13   V3    S    
O23   H9    S    
O4    C2    A    
S3    O27   D    
S2    O24   D    
O16   V4    S    
C1    C44   S    
O13   C45   A    
C2    C43   S    
O4    V2    S    
C11   H7    S    
C12   H8    S    
S3    O28   D    
O32   H12   S    
O6    C4    A    
C50   H20   S    
O12   C48   A    
S4    O30   D    
C46   O17   A    
O17   V3    S    
C45   O18   A    
C49   H16   S    
O1    V2    S    
O2    V1    S    
C28   S6    S    
C7    C27   A    
S5    O35   S    
C35   C37   S    
C5    S3    S    
C33   C48   S    
S1    O23   S    
O3    V1    S    
O19   V4    S    
O20   V3    S    
C18   C32   A    
C4    C31   S    
O3    C1    A    
S2    O26   S    
C14   C16   A    
C11   C13   A    
C12   C14   A    
O11   C47   A    
C7    C46   S    
C19   C27   A    
C22   C24   A    
O7    V1    S    
C10   C32   A    
C1    O8    A    
C15   C17   A    
O8    V2    S    
O38   H14   S    
S3    O29   S    
O15   C47   A    
C8    C28   A    
S6    O37   D    
C25   C49   S    
C19   C21   A    
C36   C38   S    
C49   H17   S    
C20   C22   A    
C18   C26   A    
O29   H11   S    
C34   C47   S    
C9    C11   A    
O14   C46   A    
C17   C31   A    
O9    V2    S    
C17   C25   A    
O10   V1    S    
C3    C32   S    
C5    C21   A    
O26   H10   S    
C6    C22   A    
C13   H5    S    
S6    O38   S    
