data_mof_unit_17449.cif
_audit_creation_date              2012-12-11T16:50:57-0500
_audit_creation_method            fapswitch 2.2
_symmetry_space_group_name_H-M    P1
_symmetry_Int_Tables_number       1
_space_group_crystal_system       triclinic
_cell_length_a                    6.913586
_cell_length_b                    28.875214
_cell_length_c                    32.114379
_cell_angle_alpha                 100.87411
_cell_angle_beta                  89.743449
_cell_angle_gamma                 90.400496
_cell_volume                      6295.73189064

loop_
_atom_site_label
_atom_site_type_symbol
_atom_type_description
_atom_site_fract_x
_atom_site_fract_y
_atom_site_fract_z
_atom_type_partial_charge
O1    O     O_R   0.494350 0.453170 0.452520 -0.539738
O2    O     O_R   0.820980 0.455850 0.538220 -0.541414
O3    O     O_R   0.994300 0.546830 0.547480 -0.538896
C1    C     C_R   0.651651 0.445655 0.551652 0.707610
O4    O     O_R   0.823860 0.447590 0.452270 -0.542118
O5    O     O_R   0.997200 0.538510 0.460920 -0.537672
C2    C     C_R   0.654725 0.434905 0.436450 0.693998
O6    O     O_R   0.491440 0.461490 0.539080 -0.537200
O7    O     O_3   0.661790 0.529840 0.502940 -0.367492
V1    V     V_3+5 0.935470 0.494460 0.499450 1.405695
O8    O     O_R   0.327090 0.544150 0.461780 -0.540802
C3    C     C_R   0.158792 0.554308 0.448317 0.706468
O9    O     O_R   0.324210 0.552410 0.547730 -0.542721
C4    C     C_R   0.155129 0.565277 0.563496 0.693268
V2    V     V_3+5 0.435840 0.505540 0.500550 1.404820
O10   O     O_3   0.159650 0.470160 0.497060 -0.366441
C5    C     C_R   0.214887 0.892472 0.872523 -0.188463
H1    H     H_    0.333486 0.916859 0.881515 0.130189
C6    C     C_R   0.230683 0.856866 0.835877 0.311983
C7    C     C_R   0.075586 0.824543 0.824857 0.039355
C8    C     C_R   0.909609 0.828937 0.850822 -0.183035
C9    C     C_R   0.895326 0.864734 0.886762 -0.180665
H2    H     H_    0.764945 0.867070 0.905848 0.135888
C10   C     C_R   0.047842 0.896849 0.898094 -0.104695
C11   C     C_R   0.030407 0.739749 0.788795 -0.231276
H3    H     H_    0.983306 0.731648 0.818852 0.119540
C12   C     C_R   0.043035 0.703060 0.753106 0.303379
C13   C     C_R   0.108484 0.712975 0.713864 0.042851
C14   C     C_R   0.160002 0.759513 0.711433 -0.228354
C15   C     C_R   0.146056 0.795716 0.747030 -0.123183
H4    H     H_    0.182869 0.831350 0.743718 0.154199
C16   C     C_R   0.084062 0.786215 0.786340 0.050819
C17   C     C_R   0.295688 0.666566 0.652816 -0.166753
H5    H     H_    0.424123 0.686856 0.663786 0.114595
C18   C     C_R   0.307811 0.630742 0.616731 -0.162726
H6    H     H_    0.445583 0.624439 0.600549 0.124181
C19   C     C_R   0.143776 0.603592 0.601709 -0.054935
C20   C     C_R   0.967730 0.613185 0.623853 -0.172422
H7    H     H_    0.838368 0.593060 0.613345 0.122154
C21   C     C_R   0.956448 0.648578 0.660169 -0.090048
C22   C     C_R   0.120288 0.675547 0.675075 0.114740
C23   C     C_R   0.969838 0.671566 0.297159 0.579935
N1    N     N_R   0.121970 0.676270 0.325163 -0.553611
C24   C     C_R   0.264275 0.709487 0.323699 0.575764
C25   C     C_R   0.258053 0.738869 0.293286 -0.029798
C26   C     C_R   0.101446 0.734755 0.264940 -0.021635
C27   C     C_R   0.955319 0.701070 0.266984 -0.024844
C28   C     C_R   0.403966 0.772431 0.290745 -0.147811
C29   C     C_R   0.393427 0.801709 0.260761 -0.144991
C30   C     C_R   0.236803 0.798159 0.232493 -0.024003
C31   C     C_R   0.090928 0.764401 0.234475 -0.021486
C32   C     C_R   0.934544 0.760221 0.206074 -0.029338
C33   C     C_R   0.788597 0.726667 0.208619 -0.148136
C34   C     C_R   0.798782 0.697498 0.238696 -0.144911
C35   C     C_R   0.221910 0.827780 0.202419 0.577969
N2    N     N_R   0.070206 0.822952 0.174283 -0.553217
C36   C     C_R   0.928521 0.789532 0.175602 0.574801
O11   O     O_2   0.833885 0.637999 0.297984 -0.532543
O12   O     O_2   0.410358 0.714685 0.351948 -0.528684
H8    H     H_    0.527031 0.776195 0.311897 0.170090
O13   O     O_2   0.357042 0.861595 0.201850 -0.534597
O14   O     O_2   0.783226 0.784046 0.147153 -0.529635
H9    H     H_    0.665652 0.722865 0.187432 0.169975
H10   H     H_    0.683347 0.672174 0.239703 0.167949
C37   C     C_R   0.891015 0.879073 0.138860 -0.086754
H11   H     H_    0.767551 0.876858 0.159272 0.163753
C38   C     C_R   0.880457 0.908078 0.108550 -0.216868
H12   H     H_    0.748154 0.927211 0.106077 0.130480
C39   C     C_R   0.040468 0.913278 0.082566 -0.064845
C40   C     C_R   0.209628 0.887845 0.086935 -0.210416
H13   H     H_    0.334955 0.890768 0.067214 0.134682
C41   C     C_R   0.218082 0.857733 0.116354 -0.088598
H14   H     H_    0.348783 0.837842 0.118381 0.156183
C42   C     C_R   0.059644 0.853316 0.143037 0.355509
C43   C     C_R   0.299005 0.619396 0.360062 -0.087705
H15   H     H_    0.421282 0.620946 0.339170 0.164020
C44   C     C_R   0.308990 0.590344 0.390356 -0.206590
C45   C     C_R   0.150543 0.586275 0.417099 -0.057027
C46   C     C_R   0.983156 0.612570 0.413301 -0.207788
H16   H     H_    0.859045 0.610436 0.433573 0.136316
C47   C     C_R   0.975054 0.642511 0.383735 -0.088663
H17   H     H_    0.845746 0.663019 0.382055 0.156449
C48   C     C_R   0.132187 0.646006 0.356467 0.355136
C49   C     C_R   0.737234 0.206745 0.824892 0.585039
N3    N     N_R   0.581874 0.176940 0.825647 -0.548203
C50   C     C_R   0.434298 0.175303 0.796839 0.582140
C51   C     C_R   0.438371 0.204485 0.766277 -0.033529
C52   C     C_R   0.596983 0.235069 0.765166 -0.021197
C53   C     C_R   0.748307 0.236149 0.794542 -0.030330
C54   C     C_R   0.288015 0.203711 0.736794 -0.149634
C55   C     C_R   0.295384 0.232812 0.706611 -0.146485
C56   C     C_R   0.453150 0.263495 0.705180 -0.028269
C57   C     C_R   0.604162 0.264684 0.734631 -0.020459
C58   C     C_R   0.762217 0.295451 0.733654 -0.029562
C59   C     C_R   0.912863 0.296125 0.763066 -0.150161
C60   C     C_R   0.906131 0.266803 0.793082 -0.148275
C61   C     C_R   0.464116 0.292901 0.674838 0.581443
N4    N     N_R   0.617995 0.323265 0.674440 -0.554838
C62   C     C_R   0.765167 0.325035 0.703400 0.576101
O15   O     O_2   0.879555 0.208508 0.853771 -0.529816
O16   O     O_2   0.284660 0.145170 0.797391 -0.526632
H18   H     H_    0.163683 0.180722 0.737004 0.170186
H19   H     H_    0.176501 0.231304 0.684532 0.169441
O17   O     O_2   0.322937 0.290600 0.645635 -0.528769
O18   O     O_2   0.913078 0.355770 0.703412 -0.528859
H20   H     H_    0.036948 0.319205 0.762925 0.169605
H21   H     H_    0.025197 0.268239 0.815106 0.168575
C63   C     C_R   0.470878 0.383941 0.639149 -0.089829
H22   H     H_    0.345288 0.385098 0.659581 0.158136
C64   C     C_R   0.477863 0.413193 0.608969 -0.207165
H23   H     H_    0.356762 0.436174 0.606700 0.133370
C65   C     C_R   0.641272 0.413575 0.582767 -0.058215
C66   C     C_R   0.796107 0.383460 0.587024 -0.206838
H24   H     H_    0.923620 0.382690 0.567195 0.139019
C67   C     C_R   0.787229 0.353494 0.616561 -0.086771
H25   H     H_    0.907061 0.330114 0.618699 0.163066
C68   C     C_R   0.625257 0.353640 0.643229 0.354659
C69   C     C_R   0.720190 0.115089 0.860556 -0.100545
H26   H     H_    0.842977 0.112087 0.839182 0.164044
C70   C     C_R   0.709675 0.086116 0.890856 -0.281303
H27   H     H_    0.825260 0.061263 0.892025 0.152981
C71   C     C_R   0.550025 0.088147 0.918501 -0.083677
C72   C     C_R   0.401767 0.121283 0.915917 0.242399
C73   C     C_R   0.414382 0.150207 0.885300 -0.158634
H28   H     H_    0.301391 0.175578 0.883556 0.160548
C74   C     C_R   0.572343 0.147260 0.857332 0.330251
C75   C     C_R   0.713570 0.110050 0.128311 0.290011
C76   C     C_R   0.721287 0.147830 0.162975 -0.210079
H29   H     H_    0.848056 0.151995 0.183099 0.111329
C77   C     C_R   0.565101 0.178724 0.172976 0.062273
C78   C     C_R   0.399687 0.171633 0.147273 -0.147937
C79   C     C_R   0.391820 0.134800 0.112017 -0.241552
H30   H     H_    0.263793 0.131151 0.092334 0.139559
C80   C     C_R   0.547699 0.103529 0.101840 -0.081541
C81   C     C_R   0.416521 0.227432 0.238418 -0.148743
H31   H     H_    0.283723 0.207198 0.232393 0.109045
C82   C     C_R   0.429709 0.262430 0.274997 -0.149099
H32   H     H_    0.306301 0.268003 0.296169 0.105946
C83   C     C_R   0.601277 0.288879 0.284627 0.084603
C84   C     C_R   0.758754 0.279384 0.256431 -0.149524
C85   C     C_R   0.746058 0.244101 0.220101 -0.149629
H33   H     H_    0.869967 0.237805 0.199082 0.106949
C86   C     C_R   0.575104 0.217572 0.210723 0.099777
C87   C     C_R   0.791577 0.335010 0.346032 -0.136251
H34   H     H_    0.918911 0.314359 0.335630 0.100606
C88   C     C_R   0.804901 0.370218 0.382508 -0.160190
H35   H     H_    0.942389 0.376067 0.398748 0.122158
C89   C     C_R   0.642302 0.397154 0.397974 -0.054745
C90   C     C_R   0.466519 0.388138 0.375902 -0.155202
H36   H     H_    0.338518 0.408435 0.386596 0.121819
C91   C     C_R   0.453693 0.353347 0.339262 -0.140210
C92   C     C_R   0.615788 0.326145 0.323777 0.095401
O19   O     O_R   0.699170 0.038480 0.960880 -0.543381
O20   O     O_R   0.366800 0.052460 0.047690 -0.543390
O21   O     O_R   0.193520 0.961530 0.039110 -0.539959
C93   C     C_R   0.535986 0.065060 0.063659 0.707385
O22   O     O_R   0.369630 0.044100 0.961740 -0.516107
O23   O     O_R   0.196370 0.953120 0.952550 -0.542055
C94   C     C_R   0.539018 0.054943 0.948815 0.722994
O24   O     O_R   0.696320 0.046890 0.047450 -0.512017
O25   O     O_3   0.528890 0.970170 0.997080 -0.375783
V3    V     V_3+5 0.255190 0.005530 0.000540 1.440848
O26   O     O_R   0.866460 0.947530 0.952310 -0.544799
C95   C     C_R   0.035586 0.934800 0.936492 0.700371
O27   O     O_R   0.863630 0.955880 0.038270 -0.538814
C96   C     C_R   0.032015 0.945503 0.051543 0.711691
V4    V     V_3+5 0.754830 0.994440 0.999470 1.426991
O28   O     O_3   0.031000 0.029830 0.002920 -0.350236
H37   H     H_    0.819176 0.655124 0.676547 0.117882
H38   H     H_    0.508732 0.827074 0.259786 0.167766
N5    N     N_2   0.403855 0.851542 0.811014 -0.539434
H39   H     H_    0.472199 0.819518 0.808588 0.257663
C97   C     C_3   0.527929 0.891959 0.810282 -0.552896
H40   H     H_    0.634864 0.883116 0.784144 0.209632
H41   H     H_    0.607915 0.901622 0.840554 0.197049
H42   H     H_    0.441082 0.922380 0.804597 0.206551
H43   H     H_    0.439462 0.570307 0.392266 0.134123
H44   H     H_    0.788909 0.804832 0.842937 0.128434
N6    N     N_2   0.240006 0.126061 0.943982 -0.502762
H45   H     H_    0.114889 0.136435 0.931021 0.266084
C98   C     C_3   0.278314 0.153748 0.985619 -0.496093
H46   H     H_    0.311306 0.190886 0.983229 0.186611
H47   H     H_    0.401834 0.139017 0.000772 0.179805
H48   H     H_    0.148893 0.153155 0.006122 0.190339
N7    N     N_2   0.871763 0.078231 0.121239 -0.509266
H49   H     H_    0.003919 0.094120 0.129288 0.247439
C99   C     C_3   0.845121 0.036566 0.139565 -0.506769
H50   H     H_    0.831763 0.046480 0.174620 0.189222
H51   H     H_    0.972158 0.013186 0.131906 0.186168
H52   H     H_    0.713569 0.016840 0.126499 0.185011
H53   H     H_    0.277335 0.195110 0.154026 0.114124
H54   H     H_    0.891749 0.299550 0.262107 0.108432
H55   H     H_    0.316856 0.348379 0.322715 0.103023
N8    N     N_2   0.991911 0.656261 0.757117 -0.532468
H56   H     H_    0.887104 0.654643 0.779781 0.253132
C100  C     C_3   0.155151 0.626452 0.761393 -0.530093
H57   H     H_    0.102872 0.590245 0.762446 0.204410
H58   H     H_    0.234601 0.640404 0.791187 0.188946
H59   H     H_    0.255268 0.624366 0.733983 0.210084
H60   H     H_    0.208337 0.767993 0.681609 0.137136

loop_
_geom_bond_atom_site_label_1
_geom_bond_atom_site_label_2
_ccdc_geom_bond_type
N8    C100  S    
C51   C52   A    
O27   C96   A    
N1    C48   S    
C13   C22   S    
O26   V4    S    
C59   C60   A    
C75   C80   A    
C1    O6    A    
C76   H29   S    
C23   O11   S    
C69   C70   A    
C47   H17   S    
N7    H49   S    
C72   C73   A    
C98   H46   S    
C63   H22   S    
C82   C83   A    
C57   C58   A    
C13   C14   A    
C18   C19   A    
C6    N5    S    
C2    C89   S    
C90   C91   A    
O5    C3    A    
C29   H38   S    
C17   C18   A    
C25   C28   A    
C24   O12   S    
V2    O10   S    
N4    C62   A    
C61   N4    A    
C83   C92   S    
C100  H57   S    
N2    C36   A    
C26   C27   A    
O24   V4    S    
C39   C96   S    
C65   C66   A    
C99   H52   S    
C5    C6    A    
C69   H26   S    
O8    V2    S    
C80   C93   S    
O26   C95   A    
O21   C96   A    
C63   C64   A    
C79   H30   S    
C67   C68   A    
C3    C45   S    
C71   C94   S    
C40   H13   S    
O1    V2    S    
C14   C15   A    
O7    V1    S    
O20   C93   A    
O23   C95   A    
C11   C16   A    
C81   C86   A    
N8    H56   S    
C1    C65   S    
O22   C94   A    
C20   C21   A    
C97   H40   S    
O9    C4    A    
O19   V4    S    
N3    C74   S    
C10   C95   S    
C85   H33   S    
C100  H59   S    
C21   H37   S    
C47   C48   A    
C70   C71   A    
C56   C61   A    
C28   H8    S    
C88   C89   A    
C97   H41   S    
O21   V3    S    
C62   O18   S    
C5    C10   A    
N2    C42   S    
C88   H35   S    
C38   H12   S    
C49   O15   S    
C81   H31   S    
C49   N3    A    
C100  H58   S    
C98   H47   S    
C55   C56   A    
O4    C2    A    
C45   C46   A    
C87   H34   S    
C37   C38   A    
C11   H3    S    
C44   C45   A    
C26   C31   A    
C40   C41   A    
C79   C80   A    
C44   H43   S    
C37   C42   A    
C64   H23   S    
C66   C67   A    
C38   C39   A    
C18   H6    S    
O19   C94   A    
O2    C1    A    
C43   H15   S    
C19   C20   A    
C59   H20   S    
C87   C88   A    
N5    C97   S    
C93   O24   A    
C15   H4    S    
C91   C92   A    
C14   H60   S    
C7    C8    A    
C35   N2    A    
C5    H1    S    
C58   C59   A    
C30   C31   A    
C12   N8    S    
C32   C33   A    
C84   C85   A    
C77   C86   S    
C43   C44   A    
N5    H39   S    
N3    C50   A    
O25   V4    S    
O3    C4    A    
C27   C34   A    
V3    O28   S    
C41   C42   A    
C21   C22   A    
C72   N6    S    
C60   H21   S    
C37   H11   S    
O6    V2    S    
O9    V2    S    
N1    C24   A    
C84   H54   S    
C9    C10   A    
C89   C90   A    
C49   C53   A    
C36   O14   S    
C78   C79   A    
O2    V1    S    
V4    O28   S    
C70   H27   S    
N4    C68   S    
C73   C74   A    
C66   H24   S    
C7    C16   S    
C98   H48   S    
C81   C82   A    
C52   C57   A    
C8    H44   S    
C50   C51   A    
C63   C68   A    
O20   V3    S    
C24   C25   A    
C55   H19   S    
C41   H14   S    
C76   C77   A    
O5    V1    S    
C97   H42   S    
C83   C84   A    
C33   C34   A    
C78   H53   S    
N6    H45   S    
C11   C12   A    
C82   H32   S    
C6    C7    A    
C46   C47   A    
C30   C35   A    
C17   C22   A    
C91   H55   S    
C54   H18   S    
C85   C86   A    
C77   C78   A    
O7    V2    S    
C31   C32   A    
C87   C92   A    
O3    V1    S    
O25   V3    S    
C90   H36   S    
C4    C19   S    
C15   C16   A    
C33   H9    S    
C43   C48   A    
C54   C55   A    
C20   H7    S    
C34   H10   S    
C58   C62   A    
C53   C60   A    
C28   C29   A    
C35   O13   S    
C56   C57   A    
C75   N7    S    
C17   H5    S    
C23   C27   A    
C39   C40   A    
C64   C65   A    
C99   H51   S    
C61   O17   S    
N7    C99   S    
C32   C36   A    
O23   V3    S    
C46   H16   S    
C25   C26   A    
O4    V1    S    
C52   C53   A    
C99   H50   S    
O27   V4    S    
C29   C30   A    
C23   N1    A    
C51   C54   A    
C12   C13   A    
C9    H2    S    
O1    C2    A    
V1    O10   S    
C69   C74   A    
C67   H25   S    
C71   C72   A    
C8    C9    A    
C50   O16   S    
O22   V3    S    
C75   C76   A    
O8    C3    A    
C73   H28   S    
N6    C98   S    
