data_mof_unit_22209.cif
_audit_creation_date              2012-12-10T18:19:12-0500
_audit_creation_method            fapswitch 2.2
_symmetry_space_group_name_H-M    P1
_symmetry_Int_Tables_number       1
_space_group_crystal_system       triclinic
_cell_length_a                    14.916526
_cell_length_b                    14.028881
_cell_length_c                    11.540022
_cell_angle_alpha                 89.973122
_cell_angle_beta                  89.443594
_cell_angle_gamma                 90.305517
_cell_volume                      2414.74149905

loop_
_atom_site_label
_atom_site_type_symbol
_atom_type_description
_atom_site_fract_x
_atom_site_fract_y
_atom_site_fract_z
_atom_type_partial_charge
C1    C     C_R   0.326983 0.499770 0.503016 0.950704
C2    C     C_R   0.448492 0.201320 0.578969 -0.056188
C3    C     C_R   0.447790 0.797904 0.578359 -0.049387
C4    C     C_R   0.551930 0.202151 0.421219 -0.051196
C5    C     C_R   0.446681 0.898506 0.580341 0.012112
C6    C     C_R   0.553292 0.101503 0.419374 0.014766
C7    C     C_R   0.553424 0.899155 0.419555 0.011250
C8    C     C_R   0.446999 0.100753 0.580600 0.016629
C9    C     C_R   0.500059 0.949391 0.499927 0.085399
C10   C     C_R   0.500092 0.050561 0.499928 0.086086
C11   C     C_R   0.393732 0.949218 0.660436 -0.194999
C12   C     C_R   0.672978 0.500235 0.498455 0.938955
C13   C     C_R   0.606306 0.050786 0.339337 -0.203866
C14   C     C_R   0.606421 0.950546 0.339482 -0.195464
C15   C     C_R   0.393939 0.049416 0.660625 -0.206822
C16   C     C_R   0.499386 0.500010 0.281766 0.911685
C17   C     C_R   0.500052 0.499987 0.718252 0.921523
C18   C     C_1   0.497999 0.500018 0.161438 -0.191855
C19   C     C_1   0.499564 0.500014 0.838621 -0.190126
C20   C     C_1   0.497642 0.500035 0.059311 -0.007822
C21   C     C_1   0.498643 0.500054 0.940756 -0.009716
C22   C     C_R   0.814918 0.514909 0.392824 0.392854
C23   C     C_R   0.908497 0.516890 0.394310 0.019601
C24   C     C_R   0.185014 0.483996 0.609240 0.387818
C25   C     C_R   0.768154 0.500645 0.497215 -0.154439
C26   C     C_R   0.231695 0.499255 0.504856 -0.152746
C27   C     C_R   0.811613 0.486655 0.601754 -0.335332
C28   C     C_R   0.188100 0.515145 0.400839 -0.335330
C29   C     C_R   0.904267 0.487713 0.604418 0.139700
C30   C     C_R   0.095479 0.516154 0.398700 0.138532
C31   C     C_R   0.953138 0.502066 0.500441 0.016120
C32   C     C_R   0.046668 0.501600 0.502675 0.018467
C33   C     C_3   0.753075 0.444508 0.234030 0.040829
C34   C     C_R   0.091343 0.486979 0.608839 0.020609
C35   C     C_3   0.738676 0.464095 0.105280 -0.317600
C36   C     C_3   0.710822 0.373914 0.040762 -0.959333
C37   C     C_3   0.241559 0.377802 0.738839 0.043680
C38   C     C_3   0.268093 0.368276 0.865836 -0.309389
C39   C     C_3   0.289633 0.265297 0.897122 -0.972112
C40   C     C_R   0.948574 0.475355 0.709466 -0.213378
C41   C     C_R   0.051153 0.532074 0.294367 -0.214704
C42   C     C_R   0.041585 0.475711 0.711911 -0.195536
C43   C     C_R   0.958161 0.532794 0.292147 -0.189586
C44   C     C_R   0.552253 0.798515 0.421604 -0.048484
H1    H     H_    0.772920 0.475789 0.680903 0.153645
H2    H     H_    0.592365 0.242574 0.359974 0.125557
H3    H     H_    0.352191 0.911414 0.722977 0.146881
H4    H     H_    0.647714 0.088618 0.276668 0.141935
H5    H     H_    0.647928 0.913238 0.276925 0.147896
H6    H     H_    0.352471 0.086691 0.723225 0.143817
H7    H     H_    0.691778 0.410575 0.271425 0.160455
H8    H     H_    0.810149 0.393688 0.241630 0.130358
H9    H     H_    0.686086 0.519068 0.095052 0.239992
H10   H     H_    0.801832 0.492319 0.066183 0.209794
H11   H     H_    0.763848 0.318944 0.047390 0.260950
H12   H     H_    0.226705 0.526647 0.321754 0.155135
H13   H     H_    0.700586 0.390871 0.947827 0.266524
H14   H     H_    0.647084 0.345071 0.077383 0.270180
H15   H     H_    0.295229 0.347371 0.683267 0.167748
H16   H     H_    0.178676 0.335906 0.725574 0.131432
H17   H     H_    0.327800 0.413460 0.882760 0.238757
H18   H     H_    0.212160 0.393690 0.921967 0.214135
H19   H     H_    0.231203 0.218222 0.879633 0.262648
H20   H     H_    0.305862 0.260728 0.990653 0.273046
H21   H     H_    0.348487 0.240282 0.846211 0.258802
H22   H     H_    0.911267 0.465388 0.789689 0.145688
H23   H     H_    0.088433 0.543844 0.214494 0.146607
H24   H     H_    0.074148 0.466357 0.794549 0.177296
H25   H     H_    0.925500 0.545303 0.210208 0.179096
H26   H     H_    0.592967 0.758608 0.360679 0.147765
H27   H     H_    0.408838 0.240949 0.640880 0.119828
H28   H     H_    0.407075 0.757536 0.639326 0.143018
N1    N     N_R   0.500000 0.750030 0.500000 -0.107152
N2    N     N_R   0.500000 0.249970 0.500000 -0.100964
O1    O     O_R   0.367850 0.580280 0.500030 -0.611559
O2    O     O_3   0.231046 0.475450 0.712394 -0.657320
O3    O     O_R   0.632150 0.419720 0.499970 -0.637983
O4    O     O_R   0.632150 0.580280 0.499970 -0.600469
O5    O     O_R   0.367850 0.419720 0.500030 -0.636757
O6    O     O_R   0.500010 0.580270 0.334450 -0.610989
O7    O     O_R   0.499990 0.419730 0.665550 -0.620886
O8    O     O_R   0.499990 0.580270 0.665550 -0.615284
O9    O     O_R   0.500010 0.419730 0.334450 -0.626901
O10   O     O_3   0.769247 0.532059 0.291034 -0.653872
Zn1   Zn    Zn3+2 0.500000 0.607200 0.500000 0.970081
Zn2   Zn    Zn3+2 0.500000 0.392800 0.500000 0.939156

loop_
_geom_bond_atom_site_label_1
_geom_bond_atom_site_label_2
_ccdc_geom_bond_type
C35   H9    S    
C39   H21   S    
C11   H3    S    
C35   C36   S    
C34   C42   A    
C28   H12   S    
C41   H23   S    
C4    H2    S    
C33   H8    S    
C39   H20   S    
C37   C38   S    
C19   C21   T    
C24   C26   A    
C5    C11   A    
C36   H14   S    
C38   C39   S    
C14   H5    S    
C27   C29   A    
C23   C43   A    
C17   O8    A    
C15   H6    S    
C33   C35   S    
C11   C15   A    
O1    Zn1   S    
C7    C14   A    
C22   C25   A    
C12   O4    A    
C30   C41   A    
C44   H26   S    
C17   O7    A    
C9    C10   A    
C4    N2    A    
O7    Zn2   S    
C2    N2    A    
C38   H17   S    
C27   H1    S    
C40   C42   A    
C43   H25   S    
C40   H22   S    
C13   C14   A    
C35   H10   S    
C42   H24   S    
C41   C43   A    
C1    O1    A    
C4    C6    A    
C36   H13   S    
C24   O2    S    
C32   C34   A    
C16   O9    A    
C24   C34   A    
C16   O6    A    
C22   O10   S    
C5    C9    A    
O6    Zn1   S    
C31   C32   A    
C12   O3    A    
C7    C44   A    
N2    Zn2   S    
N1    Zn1   S    
C37   H15   S    
O4    Zn1   S    
C16   C18   S    
C37   O2    S    
O3    Zn2   S    
C8    C15   A    
C1    C26   S    
C1    O5    A    
C33   H7    S    
C2    H27   S    
C7    C9    A    
C2    C8    A    
C3    C5    A    
C6    C10   A    
C13   H4    S    
C25   C27   A    
O8    Zn1   S    
C39   H19   S    
C26   C28   A    
C12   C25   S    
C28   C30   A    
C3    H28   S    
C29   C31   A    
C36   H11   S    
C6    C13   A    
C30   C32   A    
C29   C40   A    
C17   C19   S    
C18   C20   T    
C44   N1    A    
C3    N1    A    
C33   O10   S    
C37   H16   S    
O9    Zn2   S    
C20   C21   S    
C8    C10   A    
C22   C23   A    
O5    Zn2   S    
C23   C31   A    
C38   H18   S    
