data_mof_unit_12630.cif
_audit_creation_date              2012-10-26T18:31:59-0400
_audit_creation_method            fapswitch 2.2
_symmetry_space_group_name_H-M    P1
_symmetry_Int_Tables_number       1
_space_group_crystal_system       triclinic
_cell_length_a                    12.47942
_cell_length_b                    13.375761
_cell_length_c                    14.343962
_cell_angle_alpha                 94.581622
_cell_angle_beta                  108.042063
_cell_angle_gamma                 117.220988
_cell_volume                      1953.72077606

loop_
_atom_site_label
_atom_site_type_symbol
_atom_type_description
_atom_site_fract_x
_atom_site_fract_y
_atom_site_fract_z
_atom_type_partial_charge
C1    C     C_R   0.649963 0.713772 0.506988 0.547295
C2    C     C_R   0.194651 0.471315 0.998033 -0.027622
C3    C     C_R   0.150600 0.493299 0.073432 0.032259
C4    C     C_R   0.622025 0.522099 0.687212 0.600001
C5    C     C_R   0.311185 0.464644 0.029760 -0.040734
C6    C     C_R   0.377863 0.476326 0.133148 -0.086702
C7    C     C_R   0.205370 0.483523 0.171671 0.351479
C8    C     C_R   0.200304 0.956730 0.444609 0.411956
C9    C     C_R   0.267693 0.162231 0.490453 -0.053846
C10   C     C_R   0.732577 0.927579 0.566057 -0.015251
C11   C     C_R   0.847108 0.033298 0.621828 0.367769
C12   C     C_R   0.872428 0.531056 0.921772 -0.041895
C13   C     C_R   0.964886 0.055585 0.615494 0.072831
C14   C     C_R   0.964425 0.981972 0.538570 -0.016819
C15   C     C_R   0.853254 0.868936 0.491936 -0.055214
C16   C     C_R   0.349203 0.285558 0.490838 0.574628
C17   C     C_R   0.072767 0.014518 0.509728 -0.058722
C18   C     C_R   0.085297 0.926997 0.460535 0.015714
C19   C     C_R   0.978422 0.813289 0.421433 0.444947
C20   C     C_R   0.860062 0.789571 0.426080 -0.047262
C21   C     C_R   0.159328 0.131356 0.517427 0.348372
C22   C     C_R   0.293487 0.073730 0.462287 -0.080642
C23   C     C_R   0.847195 0.576426 0.000475 -0.018781
C24   C     C_R   0.740613 0.837806 0.515142 -0.062264
C25   C     C_R   0.260393 0.691571 0.660772 0.400723
C26   C     C_R   0.652889 0.347928 0.356535 0.574281
C27   C     C_R   0.729741 0.330000 0.313103 0.423003
C28   C     C_R   0.382702 0.484434 0.312831 0.564777
C29   C     C_R   0.865328 0.395279 0.361335 -0.092462
C30   C     C_R   0.927940 0.473237 0.458661 -0.106533
C31   C     C_R   0.845712 0.498640 0.495037 0.060715
C32   C     C_R   0.068900 0.532959 0.517504 -0.092665
C33   C     C_R   0.124770 0.627839 0.603112 -0.009170
C34   C     C_R   0.970530 0.498427 0.945192 0.010376
C35   C     C_R   0.044960 0.658068 0.631932 0.434033
C36   C     C_R   0.910675 0.594992 0.581688 0.400691
C37   C     C_R   0.157991 0.501657 0.499371 0.140189
C38   C     C_R   0.341626 0.660174 0.636374 0.132124
C39   C     C_R   0.697768 0.543283 0.795881 0.022330
C40   C     C_R   0.321750 0.480850 0.204240 0.003402
C41   C     C_R   0.745991 0.604107 0.974928 0.017486
C42   C     C_R   0.668633 0.582321 0.872915 0.360094
C43   C     C_R   0.806142 0.528989 0.822356 -0.138830
C44   C     C_1   0.363486 0.441157 0.959041 0.274627
C45   C     C_R   0.050015 0.521667 0.048320 -0.004599
C46   C     C_1   0.412026 0.098260 0.448101 0.371780
C47   C     C_1   0.609979 0.913272 0.564407 0.322074
C48   C     C_1   0.085046 0.139217 0.699387 0.376636
C49   C     C_1   0.480142 0.727122 0.696700 0.406131
C50   C     C_1   0.110996 0.395432 0.426683 0.383134
C51   C     C_1   0.502468 0.480128 0.163948 0.279739
C52   C     C_1   0.153511 0.437267 0.810626 0.252865
C53   C     C_1   0.722166 0.660096 0.050378 0.396809
C54   C     C_1   0.891395 0.370469 0.771709 0.241641
C55   C     C_R   0.030983 0.577186 0.124325 0.004177
C56   C     C_R   0.928925 0.599252 0.101678 0.404303
C57   C     C_R   0.994194 0.444804 0.870184 -0.015054
C58   C     C_R   0.115414 0.450823 0.894591 0.000344
Cu1   Cu    Cu3+1 0.416420 0.526630 0.522910 1.109072
Cu2   Cu    Cu3+1 0.583580 0.473370 0.477090 1.121184
F1    F     F_    0.915162 0.647840 0.180363 -0.550146
F2    F     F_    0.672819 0.253003 0.221085 -0.543266
F3    F     F_    0.852611 0.638713 0.621443 -0.581982
F4    F     F_    0.570335 0.606348 0.849695 -0.604136
F5    F     F_    0.984056 0.726705 0.371290 -0.519420
F6    F     F_    0.220257 0.872300 0.408286 -0.536611
F7    F     F_    0.129120 0.213152 0.540381 -0.613657
F8    F     F_    0.845713 0.110913 0.687936 -0.600182
F9    F     F_    0.137412 0.464106 0.232596 -0.639874
F10   F     F_    0.096557 0.749956 0.712640 -0.508470
F11   F     F_    0.314935 0.784207 0.741599 -0.533980
F12   F     F_    0.520962 0.286141 0.306845 -0.554490
H1    H     H_    0.775097 0.707641 0.377800 0.172425
H2    H     H_    0.918008 0.388306 0.316982 0.194951
H3    H     H_    0.841831 0.521861 0.764475 0.184785
H4    H     H_    0.097851 0.608743 0.203003 0.235196
N1    N     N_R   0.290690 0.566960 0.557640 -0.313105
N2    N     N_1   0.182450 0.427578 0.742592 -0.205504
N3    N     N_1   0.703344 0.705881 0.110234 -0.208147
N4    N     N_1   0.809724 0.311466 0.693221 -0.195937
N5    N     N_R   0.709100 0.433710 0.442970 -0.269728
N6    N     N_1   0.406817 0.421557 0.904310 -0.165725
N7    N     N_1   0.506885 0.116920 0.437140 -0.177730
N8    N     N_1   0.511929 0.902995 0.562311 -0.195005
N9    N     N_1   0.181628 0.204422 0.767117 -0.196938
N10   N     N_1   0.591393 0.782104 0.745558 -0.173902
N11   N     N_1   0.072503 0.309769 0.368062 -0.166185
N12   N     N_1   0.601621 0.483133 0.187873 -0.182040
O1    O     O_R   0.545970 0.684450 0.528810 -0.531575
O2    O     O_R   0.687130 0.639470 0.490120 -0.453250
O3    O     O_R   0.519670 0.535100 0.660030 -0.453071
O4    O     O_R   0.660830 0.490120 0.621340 -0.461655
O5    O     O_R   0.312870 0.360530 0.509880 -0.433815
O6    O     O_R   0.454030 0.315550 0.471190 -0.479719
O7    O     O_R   0.339170 0.509880 0.378660 -0.452248
O8    O     O_R   0.480330 0.464900 0.339970 -0.476787

loop_
_geom_bond_atom_site_label_1
_geom_bond_atom_site_label_2
_ccdc_geom_bond_type
C55   C56   A    
C8    F6    S    
C1    O2    A    
C27   C29   A    
C26   F12   S    
C41   C42   A    
C19   C20   A    
Cu1   N1    S    
C23   C56   A    
C38   C49   S    
C12   C23   A    
C26   C27   A    
C28   O7    A    
C53   N3    T    
C9    C16   S    
C12   C43   A    
C44   N6    T    
C30   C31   A    
C9    C22   A    
C28   C40   S    
C18   C19   A    
Cu1   O1    S    
C35   C36   A    
C35   F10   S    
C34   C57   A    
C8    C22   A    
C7    C40   A    
C25   F11   S    
C6    C51   S    
C36   F3    S    
C4    O3    A    
Cu1   Cu2   S    
C13   C14   A    
C21   F7    S    
C14   C17   A    
Cu1   O7    S    
C52   N2    T    
C39   C42   A    
C54   N4    T    
Cu2   O4    S    
C43   H3    S    
C15   C20   A    
C39   C43   A    
C29   H2    S    
C10   C24   A    
C47   N8    T    
C37   N1    A    
C3    C45   A    
C8    C18   A    
C29   C30   A    
C27   F2    S    
C25   C38   A    
Cu2   N5    S    
C4    C39   S    
C17   C18   A    
C16   O5    A    
C56   F1    S    
C34   C45   A    
Cu1   O3    S    
C32   C37   A    
C41   C53   S    
C52   C58   S    
C50   N11   T    
C55   H4    S    
Cu2   O8    S    
C15   C24   A    
C22   C46   S    
C5    C44   S    
C26   N5    A    
C6    C40   A    
C2    C5    A    
C12   C34   A    
C42   F4    S    
C11   F8    S    
C1    O1    A    
C14   C15   A    
C16   O6    A    
C49   N10   T    
C48   N9    T    
C31   N5    A    
C51   N12   T    
C7    F9    S    
C13   C48   S    
C2    C58   A    
C38   N1    A    
Cu2   O2    S    
C3    C7    A    
C23   C41   A    
C28   O8    A    
C32   C33   A    
C2    C3    A    
C30   C32   A    
C37   C50   S    
C11   C13   A    
C9    C21   A    
C57   C58   A    
C5    C6    A    
C33   C35   A    
C20   H1    S    
C19   F5    S    
C17   C21   A    
C10   C11   A    
C46   N7    T    
C45   C55   A    
C1    C24   S    
C10   C47   S    
C31   C36   A    
Cu1   O5    S    
C25   C33   A    
C4    O4    A    
C54   C57   S    
Cu2   O6    S    
