data_mof_unit_57764.cif
_audit_creation_date              2012-12-10T19:15:16-0500
_audit_creation_method            fapswitch 2.2
_symmetry_space_group_name_H-M    P1
_symmetry_Int_Tables_number       1
_space_group_crystal_system       triclinic
_cell_length_a                    11.133328
_cell_length_b                    9.83559
_cell_length_c                    23.423519
_cell_angle_alpha                 89.763589
_cell_angle_beta                  95.151642
_cell_angle_gamma                 89.954615
_cell_volume                      2554.55760523

loop_
_atom_site_label
_atom_site_type_symbol
_atom_type_description
_atom_site_fract_x
_atom_site_fract_y
_atom_site_fract_z
_atom_type_partial_charge
C1    C     C_R   0.259416 0.499565 0.507406 1.167989
C2    C     C_R   0.299670 0.540410 0.961353 -0.187237
C3    C     C_R   0.296615 0.542426 0.020891 0.458758
C4    C     C_R   0.407084 0.528000 0.056719 -0.163364
C5    C     C_R   0.517239 0.514607 0.030770 -0.058155
C6    C     C_R   0.628396 0.501789 0.064641 -0.012309
C7    C     C_R   0.736618 0.488710 0.038680 -0.100155
C8    C     C_R   0.735703 0.487270 0.979436 -0.091619
C9    C     C_R   0.414130 0.525283 0.117235 0.572873
C10   C     C_R   0.628935 0.501978 0.124002 0.529825
C11   C     C_R   0.507615 0.631112 0.238745 -0.061656
C12   C     C_R   0.503611 0.500499 0.389479 1.011668
C13   C     C_R   0.502081 0.627468 0.297603 -0.135823
C14   C     C_R   0.512706 0.503377 0.327442 -0.060189
C15   C     C_R   0.537071 0.384349 0.297765 -0.105569
C16   C     C_R   0.542800 0.387857 0.238858 -0.089734
C17   C     C_R   0.526041 0.510928 0.209364 0.277491
C18   C     C_R   0.507677 0.629236 0.761353 0.698753
C19   C     C_R   0.503732 0.626567 0.702039 -0.222790
C20   C     C_R   0.506691 0.501721 0.673212 -0.075194
C21   C     C_R   0.516264 0.379944 0.704765 -0.206375
C22   C     C_R   0.520465 0.382889 0.764100 -0.142320
C23   C     C_R   0.742170 0.499942 0.504348 1.191324
C24   C     C_R   0.515558 0.507313 0.792210 0.160804
C25   C     C_3   0.076339 0.630687 0.545650 0.717320
C26   C     C_3   0.072744 0.358976 0.540056 0.713940
C27   C     C_3   0.933623 0.627522 0.544445 0.078118
C28   C     C_3   0.930905 0.367695 0.542351 0.045200
C29   C     C_3   0.061097 0.507479 0.450118 1.053694
C30   C     C_3   0.122052 0.498488 0.513795 -0.682265
C31   C     C_3   0.878130 0.499709 0.509827 -0.667512
C32   C     C_3   0.919903 0.503126 0.445314 0.383796
C33   C     C_3   0.379334 0.083430 0.472243 0.793920
C34   C     C_3   0.377109 0.917386 0.475638 0.765325
C35   C     C_3   0.597158 0.080346 0.466608 -0.361249
C36   C     C_3   0.590342 0.920043 0.462630 -0.408727
C37   C     C_3   0.520869 0.078910 0.557461 -0.330643
C38   C     C_3   0.527396 0.918774 0.557128 -0.296361
C39   C     C_R   0.501691 0.500059 0.610645 1.036605
C40   C     C_R   0.623902 0.497580 0.885401 0.568882
C41   C     C_R   0.409666 0.523525 0.876578 0.618521
C42   C     C_R   0.407956 0.525863 0.936162 -0.110726
C43   C     C_R   0.517149 0.513447 0.970703 -0.007809
C44   C     C_R   0.626603 0.499331 0.945097 -0.037497
H1    H     H_    0.216337 0.550505 0.934122 0.244717
H2    H     H_    0.497990 0.722181 0.678883 0.199785
H3    H     H_    0.520769 0.282459 0.683903 0.154499
H4    H     H_    0.526859 0.288743 0.788325 0.187602
H5    H     H_    0.903366 0.711676 0.516134 0.242804
H6    H     H_    0.892601 0.280671 0.517560 0.224767
H7    H     H_    0.596539 0.126270 0.423511 0.247434
H8    H     H_    0.569406 0.889442 0.417256 0.223663
H9    H     H_    0.606328 0.118537 0.578936 0.210710
H10   H     H_    0.618276 0.884878 0.574628 0.221101
H11   H     H_    0.449209 0.111086 0.584278 0.231512
H12   H     H_    0.464680 0.877193 0.587057 0.245628
H13   H     H_    0.686679 0.109264 0.488152 0.244971
H14   H     H_    0.680762 0.876780 0.476117 0.261228
H15   H     H_    0.822445 0.479014 0.064057 0.206630
H16   H     H_    0.820619 0.476410 0.960678 0.230571
H17   H     H_    0.496595 0.726791 0.215818 0.164563
H18   H     H_    0.490242 0.721743 0.319617 0.219200
H19   H     H_    0.554649 0.289399 0.319904 0.227068
H20   H     H_    0.559236 0.295141 0.216012 0.161102
N1    N     N_R   0.516503 0.509532 0.852841 -0.343754
N2    N     N_R   0.523233 0.513188 0.148576 -0.369356
N3    N     N_3   0.499750 0.138610 0.498760 -0.165959
N4    N     N_3   0.499750 0.861390 0.498760 -0.174199
O1    O     O_R   0.314910 0.616040 0.499990 -0.478271
O2    O     O_R   0.314910 0.383960 0.499990 -0.467322
O3    O     O_R   0.500080 0.616070 0.416130 -0.585137
O4    O     O_R   0.500080 0.383930 0.416130 -0.577366
O5    O     O_R   0.685320 0.616040 0.499970 -0.596500
O6    O     O_R   0.685320 0.383960 0.499970 -0.582799
O7    O     O_R   0.500150 0.616010 0.583820 -0.610761
O8    O     O_R   0.500150 0.383990 0.583820 -0.613112
O9    O     O_2   0.727330 0.484453 0.859921 -0.489781
O10   O     O_2   0.305704 0.534643 0.842450 -0.499884
O11   O     O_2   0.314219 0.532753 0.145402 -0.439270
O12   O     O_2   0.734106 0.491157 0.157243 -0.510513
Zn1   Zn    Zn3+2 0.500150 0.654960 0.499970 1.107671
Zn2   Zn    Zn3+2 0.500150 0.345040 0.499970 1.104761
F1    F     F_    0.101446 0.743197 0.512979 -0.481665
F2    F     F_    0.089431 0.260558 0.499481 -0.497922
S1    S     S_3+6 0.158692 0.675360 0.613620 0.159443
O13   O     O_2   0.289806 0.687931 0.606264 -0.322876
O14   O     O_2   0.117401 0.813691 0.630809 -0.115186
O15   O     O_3   0.143541 0.566542 0.667511 -0.463092
H21   H     H_    0.201373 0.598202 0.699285 0.397028
S2    S     S_3+6 0.154804 0.277686 0.602885 0.191745
O16   O     O_2   0.118819 0.315186 0.660733 -0.178732
O17   O     O_2   0.136374 0.126802 0.596358 -0.081810
O18   O     O_3   0.301408 0.304348 0.605812 -0.565275
H22   H     H_    0.334209 0.245593 0.637882 0.362778
S3    S     S_3+6 0.861628 0.693466 0.606530 0.126221
O19   O     O_2   0.740076 0.631848 0.611040 -0.308458
O20   O     O_2   0.931591 0.674916 0.663725 -0.134036
O21   O     O_3   0.843804 0.861802 0.595723 -0.517078
H23   H     H_    0.817631 0.897504 0.632107 0.391044
S4    S     S_3+6 0.871766 0.324795 0.610670 0.111430
O22   O     O_2   0.907088 0.181005 0.626480 -0.221248
O23   O     O_2   0.915839 0.417056 0.658621 -0.124514
O24   O     O_3   0.722289 0.329230 0.606939 -0.568597
H24   H     H_    0.702567 0.284613 0.642847 0.362859
F3    F     F_    0.097909 0.624227 0.424919 -0.526208
F4    F     F_    0.103607 0.405608 0.417469 -0.522625
S5    S     S_3+6 0.862455 0.651079 0.401263 0.115701
O25   O     O_2   0.908654 0.640957 0.343046 -0.135312
O26   O     O_2   0.727865 0.651628 0.392606 -0.348452
O27   O     O_3   0.908486 0.802924 0.427879 -0.460687
H25   H     H_    0.867118 0.871167 0.401804 0.398239
S6    S     S_3+6 0.867250 0.355182 0.401010 0.115267
O28   O     O_2   0.912584 0.220461 0.424354 -0.205127
O29   O     O_2   0.732711 0.350380 0.393555 -0.370630
O30   O     O_3   0.916166 0.371198 0.335369 -0.397126
H26   H     H_    0.871285 0.301580 0.311634 0.387033
S7    S     S_3+6 0.329755 0.158511 0.400092 0.163206
O31   O     O_2   0.422515 0.133566 0.358746 -0.382813
O32   O     O_2   0.211931 0.102143 0.375060 -0.112927
O33   O     O_3   0.297477 0.323658 0.397771 -0.439095
H27   H     H_    0.280897 0.346079 0.356484 0.385184
S8    S     S_3+6 0.304907 0.837556 0.408756 0.170005
O34   O     O_2   0.173882 0.875722 0.406491 -0.048874
O35   O     O_2   0.358377 0.890066 0.356532 -0.344175
O36   O     O_3   0.296982 0.670053 0.398748 -0.483693
H28   H     H_    0.265150 0.657620 0.358191 0.392739
S9    S     S_3+6 0.151903 0.564845 0.046456 0.088206
O37   O     O_2   0.153214 0.689444 0.083495 -0.214117
O38   O     O_2   0.055981 0.582171 0.997537 -0.304652
O39   O     O_3   0.118070 0.427364 0.084853 -0.481587
H29   H     H_    0.046129 0.454095 0.104169 0.396155
F5    F     F_    0.291539 0.127126 0.505960 -0.509054
F6    F     F_    0.297417 0.884519 0.515756 -0.509764
F7    F     F_    0.503617 0.749984 0.788933 -0.624407

loop_
_geom_bond_atom_site_label_1
_geom_bond_atom_site_label_2
_ccdc_geom_bond_type
C22   H4    S    
C33   S7    S    
O18   H22   S    
C41   C42   A    
C27   S3    S    
S3    O19   D    
S6    O29   D    
C19   H2    S    
C7    C8    A    
S1    O13   D    
C17   N2    S    
C37   C38   S    
C18   C24   A    
N4    Zn1   S    
O6    Zn2   S    
C29   C32   S    
C36   H14   S    
S7    O32   D    
C5    C6    A    
C3    S9    S    
C15   C16   A    
C18   C19   A    
C9    O11   S    
O5    Zn1   S    
O27   H25   S    
C1    C30   S    
C9    N2    A    
C28   H6    S    
C13   H18   S    
C19   C20   A    
C16   C17   A    
C32   S5    S    
S5    O25   D    
C18   F7    S    
C39   O7    A    
C36   H8    S    
C37   H9    S    
C28   S4    S    
S1    O14   D    
C12   O4    A    
C34   S8    S    
C21   C22   A    
S5    O26   D    
C29   F3    S    
C23   O5    A    
C7    H15   S    
S6    O28   D    
C25   S1    S    
C10   N2    A    
C2    H1    S    
S3    O21   S    
C27   C31   S    
S7    O33   S    
C34   N4    S    
C41   O10   S    
C20   C39   S    
C10   O12   S    
O7    Zn1   S    
C41   N1    A    
C34   F6    S    
S4    O24   S    
C1    O1    A    
C35   C36   S    
C23   C31   S    
C43   C44   A    
S9    O38   D    
C29   C30   S    
S2    O17   D    
C31   C32   S    
C38   H10   S    
C35   N3    S    
S4    O23   D    
C33   C34   S    
C39   O8    A    
O15   H21   S    
C24   N1    S    
C33   F5    S    
C12   O3    A    
C38   N4    S    
C26   C30   S    
C40   N1    A    
C35   H7    S    
O36   H28   S    
S5    O27   S    
C22   C24   A    
C29   F4    S    
C26   S2    S    
C42   C43   A    
C23   O6    A    
S8    O35   D    
S9    O37   D    
O33   H27   S    
C33   N3    S    
S2    O18   S    
S1    O15   S    
C25   C30   S    
S3    O20   D    
C11   C17   A    
C26   F2    S    
C32   S6    S    
C40   O9    S    
C28   C31   S    
C8    C44   A    
C12   C14   S    
C4    C5    A    
C11   H17   S    
C6    C10   A    
C36   N4    S    
C6    C7    A    
C25   C27   S    
C26   C28   S    
C1    O2    A    
C35   H13   S    
S8    O36   S    
O39   H29   S    
C4    C9    A    
S9    O39   S    
S7    O31   D    
C8    H16   S    
C11   C13   A    
S2    O16   D    
C2    C42   A    
O8    Zn2   S    
C37   N3    S    
S4    O22   D    
C2    C3    A    
C5    C43   A    
O2    Zn2   S    
C21   H3    S    
O1    Zn1   S    
C37   H11   S    
C27   H5    S    
C40   C44   A    
C38   H12   S    
C20   C21   A    
N3    Zn2   S    
O21   H23   S    
O24   H24   S    
C25   F1    S    
C15   H19   S    
C14   C15   A    
C16   H20   S    
O30   H26   S    
S8    O34   D    
C13   C14   A    
S6    O30   S    
O4    Zn2   S    
C3    C4    A    
O3    Zn1   S    
