data_mof_unit_16792.cif
_audit_creation_date              2012-12-10T17:26:16-0500
_audit_creation_method            fapswitch 2.2
_symmetry_space_group_name_H-M    P1
_symmetry_Int_Tables_number       1
_space_group_crystal_system       triclinic
_cell_length_a                    10.210141
_cell_length_b                    10.747116
_cell_length_c                    27.551866
_cell_angle_alpha                 90.319188
_cell_angle_beta                  80.432349
_cell_angle_gamma                 94.73993
_cell_volume                      2970.90293976

loop_
_atom_site_label
_atom_site_type_symbol
_atom_type_description
_atom_site_fract_x
_atom_site_fract_y
_atom_site_fract_z
_atom_type_partial_charge
C1    C     C_R   0.555309 0.732910 0.498499 0.952488
C2    C     C_R   0.423161 0.579068 0.129948 -0.022857
C3    C     C_R   0.493322 0.485871 0.646307 -0.057693
C4    C     C_R   0.503916 0.502632 0.352920 -0.061999
C5    C     C_R   0.394603 0.539036 0.030515 0.033087
C6    C     C_R   0.567609 0.386938 0.969953 0.041981
C7    C     C_R   0.587920 0.411450 0.019113 0.055019
C8    C     C_R   0.371908 0.511095 0.982098 0.017878
C9    C     C_R   0.496731 0.483594 0.049669 0.038347
C10   C     C_R   0.466343 0.444220 0.950931 0.037191
C11   C     C_R   0.326600 0.630368 0.058936 -0.292045
C12   C     C_R   0.444412 0.267407 0.505290 0.942240
C13   C     C_R   0.639374 0.300760 0.939676 -0.237184
C14   C     C_R   0.335925 0.647765 0.108388 0.144797
C15   C     C_R   0.635876 0.293289 0.889373 0.127046
C16   C     C_R   0.499425 0.500228 0.593725 0.879197
C17   C     C_R   0.500379 0.499066 0.406067 0.895461
C18   C     C_R   0.257060 0.544384 0.963208 0.078054
C19   C     C_R   0.700532 0.374793 0.038448 0.074010
C20   C     C_2   0.585323 0.865294 0.504082 -0.389867
C21   C     C_2   0.412433 0.135519 0.513860 -0.366419
C22   C     C_2   0.485634 0.933603 0.522278 -0.171960
C23   C     C_R   0.458669 0.433436 0.900194 -0.096859
C24   C     C_2   0.507959 0.066676 0.523143 -0.140184
C25   C     C_2   0.929188 0.525829 0.496811 -0.097891
C26   C     C_2   0.079262 0.509424 0.489767 -0.096218
C27   C     C_R   0.362245 0.492501 0.830058 0.517180
C28   C     C_R   0.612514 0.457131 0.169833 0.519282
C29   C     C_R   0.551170 0.372384 0.817557 0.528818
C30   C     C_R   0.429642 0.584706 0.180581 0.522794
C31   C     C_R   0.445325 0.351381 0.718324 -0.129938
C32   C     C_R   0.605985 0.591069 0.273410 -0.150364
C33   C     C_R   0.456230 0.366352 0.667470 0.046834
C34   C     C_R   0.509471 0.503314 0.099675 -0.097669
C35   C     C_R   0.600938 0.585044 0.324233 0.040174
C36   C     C_R   0.519568 0.589856 0.675753 0.014185
C37   C     C_R   0.412580 0.425319 0.330180 0.028000
C38   C     C_R   0.507974 0.572224 0.726523 -0.132553
C39   C     C_R   0.419336 0.434306 0.279241 -0.141175
C40   C     C_R   0.470735 0.453890 0.747646 0.257622
C41   C     C_R   0.515223 0.516302 0.251208 0.274574
C42   C     C_3   0.560848 0.719246 0.654186 -0.422719
C43   C     C_3   0.711441 0.735050 0.635524 -0.337938
C44   C     C_3   0.756658 0.868956 0.618610 -0.875272
C45   C     C_R   0.359452 0.490933 0.880910 -0.061810
C46   C     C_3   0.310562 0.330039 0.358347 -0.427555
C47   C     C_3   0.376557 0.217434 0.374360 -0.318808
C48   C     C_3   0.272775 0.121029 0.401792 -0.885176
C49   C     C_3   0.099574 0.637039 0.558030 -0.250307
C50   C     C_3   0.184622 0.672241 0.597529 -0.291517
C51   C     C_3   0.122712 0.771354 0.631906 -0.964902
C52   C     C_3   0.898868 0.355508 0.444888 -0.243322
C53   C     C_3   0.798312 0.255537 0.429786 -0.284594
C54   C     C_3   0.866219 0.170513 0.390441 -0.969695
C55   C     C_R   0.609037 0.447645 0.119453 -0.037381
C56   C     C_R   0.256826 0.541140 0.912781 -0.127195
C57   C     C_R   0.705237 0.386931 0.088527 -0.195436
C58   C     C_R   0.550402 0.365905 0.868640 -0.019203
H1    H     H_    0.313022 0.094100 0.511272 0.149967
H2    H     H_    0.416526 0.260444 0.735359 0.144545
H3    H     H_    0.267730 0.692562 0.043005 0.149255
H4    H     H_    0.695885 0.234079 0.954321 0.170735
H5    H     H_    0.606880 0.107490 0.526622 0.179656
H6    H     H_    0.383565 0.893017 0.532185 0.186806
H7    H     H_    0.701285 0.897127 0.589637 0.269170
H8    H     H_    0.739522 0.933813 0.650133 0.273608
H9    H     H_    0.864679 0.876116 0.603279 0.247366
H10   H     H_    0.765930 0.710958 0.665472 0.229950
H11   H     H_    0.737988 0.671359 0.604211 0.229666
H12   H     H_    0.686843 0.906868 0.493599 0.155842
H13   H     H_    0.505358 0.737179 0.623815 0.189067
H14   H     H_    0.534199 0.790653 0.682727 0.214439
H15   H     H_    0.216022 0.163515 0.434783 0.255150
H16   H     H_    0.202410 0.084648 0.377358 0.265724
H17   H     H_    0.323267 0.041797 0.413822 0.258629
H18   H     H_    0.431215 0.172956 0.341381 0.233724
H19   H     H_    0.449192 0.247502 0.398788 0.205843
H20   H     H_    0.252926 0.373891 0.390552 0.211961
H21   H     H_    0.236318 0.295764 0.334979 0.204989
H22   H     H_    0.116477 0.858154 0.610990 0.261333
H23   H     H_    0.124623 0.455828 0.459184 0.136005
H24   H     H_    0.021416 0.736535 0.650443 0.276450
H25   H     H_    0.185709 0.793837 0.660504 0.272039
H26   H     H_    0.189942 0.588578 0.620355 0.247420
H27   H     H_    0.285037 0.711491 0.580775 0.250947
H28   H     H_    0.079996 0.724325 0.539836 0.166568
H29   H     H_    0.004257 0.592844 0.578744 0.164940
H30   H     H_    0.910790 0.225298 0.356801 0.276054
H31   H     H_    0.945524 0.123431 0.404447 0.266636
H32   H     H_    0.791529 0.097885 0.380539 0.266274
H33   H     H_    0.755663 0.196006 0.462106 0.226144
H34   H     H_    0.889357 0.602695 0.518442 0.140015
H35   H     H_    0.719086 0.297619 0.414384 0.260762
H36   H     H_    0.953027 0.404584 0.411008 0.172521
H37   H     H_    0.969425 0.302297 0.461638 0.157833
H38   H     H_    0.680663 0.757150 0.338372 0.183537
H39   H     H_    0.789432 0.645423 0.331342 0.201596
H40   H     H_    0.414400 0.178431 0.657800 0.187205
H41   H     H_    0.341746 0.272744 0.623999 0.190287
H42   H     H_    0.284263 0.824887 0.118452 0.179120
H43   H     H_    0.157936 0.713164 0.134501 0.188462
H44   H     H_    0.690566 0.118608 0.874645 0.175227
H45   H     H_    0.528724 0.650281 0.749930 0.144700
H46   H     H_    0.816365 0.232732 0.863481 0.200814
H47   H     H_    0.123209 0.518988 0.028181 0.196671
H48   H     H_    0.116776 0.656362 0.996426 0.181723
H49   H     H_    0.838259 0.250445 0.019641 0.178692
H50   H     H_    0.897485 0.401768 0.011493 0.210427
H51   H     H_    0.351393 0.376003 0.260777 0.137268
H52   H     H_    0.171796 0.572769 0.898923 0.195919
H53   H     H_    0.788902 0.353149 0.102622 0.187372
H54   H     H_    0.679984 0.654270 0.251164 0.143947
N1    N     N_R   0.460329 0.438065 0.799602 -0.351928
N2    N     N_3   0.817523 0.337538 0.007421 -0.472047
N3    N     N_R   0.520871 0.521397 0.199231 -0.353990
N4    N     N_2   0.842700 0.448890 0.480020 -0.073589
N5    N     N_2   0.157300 0.551110 0.519980 -0.073091
N6    N     N_3   0.692716 0.664556 0.346921 -0.439875
N7    N     N_3   0.430537 0.260996 0.636984 -0.449296
N8    N     N_3   0.258498 0.737961 0.135824 -0.378859
N9    N     N_3   0.716927 0.208628 0.860146 -0.378814
N10   N     N_3   0.131301 0.561311 0.993650 -0.482161
O1    O     O_R   0.431060 0.692470 0.504020 -0.621814
O2    O     O_2   0.704779 0.400532 0.189600 -0.564569
O3    O     O_2   0.344605 0.650454 0.211312 -0.530160
O4    O     O_2   0.643850 0.317318 0.785864 -0.531038
O5    O     O_R   0.568940 0.307530 0.495980 -0.631981
O6    O     O_R   0.651120 0.659650 0.491200 -0.610345
O7    O     O_R   0.348880 0.340350 0.508800 -0.610867
O8    O     O_R   0.389980 0.516390 0.577660 -0.647629
O9    O     O_R   0.610020 0.483610 0.422340 -0.609062
O10   O     O_R   0.610040 0.483570 0.564830 -0.606255
O11   O     O_R   0.389960 0.516430 0.435170 -0.620932
O12   O     O_2   0.268801 0.549159 0.810996 -0.562925
Zn1   Zn    Zn3+2 0.353060 0.521910 0.508560 0.933361
Zn2   Zn    Zn3+2 0.646940 0.478090 0.491440 0.946304

loop_
_geom_bond_atom_site_label_1
_geom_bond_atom_site_label_2
_ccdc_geom_bond_type
C23   C58   A    
C38   C40   A    
C23   C45   A    
C17   O9    A    
C49   H29   S    
C36   C42   S    
O8    Zn1   S    
C1    O6    A    
C50   H26   S    
H40   N7    S    
C39   C41   A    
C12   O5    A    
C53   C54   S    
C19   C57   A    
H38   N6    S    
C47   H18   S    
C21   H1    S    
O6    Zn2   S    
C46   H21   S    
C11   C14   A    
C3    C33   A    
C31   C40   A    
C52   H37   S    
H50   N2    S    
H39   N6    S    
C51   H22   S    
C50   H27   S    
O7    Zn1   S    
C44   H8    S    
C49   N5    S    
C13   H4    S    
C47   C48   S    
C45   C56   A    
C43   H10   S    
C1    C20   S    
C53   H33   S    
C32   C41   A    
C26   N5    D    
C52   H36   S    
H42   N8    S    
H44   N9    S    
C16   O8    A    
C18   C56   A    
C2    C34   A    
C30   O3    S    
C34   C55   A    
C43   H11   S    
C29   O4    S    
H43   N8    S    
C48   H17   S    
C20   H12   S    
C44   H7    S    
C41   N3    S    
C2    C14   A    
C48   H15   S    
C56   H52   S    
C28   C55   A    
C30   N3    A    
C52   N4    S    
C12   O7    A    
C44   H9    S    
C53   H35   S    
C32   C35   A    
C48   H16   S    
O5    Zn2   S    
C54   H31   S    
O9    Zn2   S    
C25   N4    D    
C46   H20   S    
H46   N9    S    
C19   N2    S    
C25   C26   S    
C22   H6    S    
C12   C21   S    
C8    C18   A    
O1    Zn1   S    
C31   H2    S    
C43   C44   S    
C1    O1    A    
H49   N2    S    
C5    C9    A    
C38   H45   S    
C28   N3    A    
C40   N1    S    
O10   Zn2   S    
H48   N10   S    
C31   C33   A    
C50   C51   S    
C4    C37   A    
C51   H24   S    
C18   N10   S    
C54   H32   S    
C4    C17   S    
C27   N1    A    
C20   C22   D    
C33   N7    S    
C26   H23   S    
C7    C19   A    
C55   C57   A    
C17   O11   A    
C9    C34   A    
C15   C58   A    
C22   C24   S    
C42   C43   S    
C47   H19   S    
N5    Zn1   S    
C51   H25   S    
C52   C53   S    
C7    C9    A    
C29   N1    A    
C46   C47   S    
C25   H34   S    
C32   H54   S    
C27   O12   S    
C49   H28   S    
C11   H3    S    
C6    C10   A    
C5    C8    A    
C28   O2    S    
C5    C11   A    
C6    C7    A    
N4    Zn2   S    
C10   C23   A    
C24   H5    S    
C14   N8    S    
C2    C30   A    
C13   C15   A    
C37   C46   S    
C37   C39   A    
C6    C13   A    
C54   H30   S    
C27   C45   A    
C57   H53   S    
C3    C36   A    
C36   C38   A    
C42   H13   S    
H47   N10   S    
C15   N9    S    
C16   O10   A    
C4    C35   A    
H41   N7    S    
C39   H51   S    
C29   C58   A    
C8    C10   A    
C49   C50   S    
C21   C24   D    
O11   Zn1   S    
C35   N6    S    
C42   H14   S    
C3    C16   S    
