data_mof_unit_30712.cif
_audit_creation_date              2012-12-10T17:05:15-0500
_audit_creation_method            fapswitch 2.2
_symmetry_space_group_name_H-M    P1
_symmetry_Int_Tables_number       1
_space_group_crystal_system       triclinic
_cell_length_a                    10.734138
_cell_length_b                    11.032649
_cell_length_c                    9.840221
_cell_angle_alpha                 111.030423
_cell_angle_beta                  98.700605
_cell_angle_gamma                 90.976402
_cell_volume                      1071.97991142

loop_
_atom_site_label
_atom_site_type_symbol
_atom_type_description
_atom_site_fract_x
_atom_site_fract_y
_atom_site_fract_z
_atom_type_partial_charge
C1    C     C_R   0.490119 0.254149 0.440709 0.921958
C2    C     C_3   0.877013 0.485459 0.496763 0.008020
C3    C     C_3   0.937083 0.625491 0.535987 0.431471
C4    C     C_3   0.903204 0.397749 0.341857 -0.407909
C5    C     C_2   0.484086 0.114865 0.407309 -0.248111
C6    C     C_2   0.500170 0.069599 0.516694 -0.127196
C7    C     C_2   0.513402 0.885174 0.592757 -0.319655
C8    C     C_2   0.495474 0.930470 0.483434 -0.120885
C9    C     C_2   0.510197 0.509032 0.079556 0.082847
C10   C     C_2   0.488259 0.489534 0.917205 -0.050239
C11   C     C_R   0.260065 0.491473 0.498382 0.808429
C12   C     C_R   0.508969 0.745858 0.559307 0.870077
C13   C     C_R   0.739476 0.493877 0.498063 0.860632
C14   C     C_3   0.086029 0.420628 0.607314 -0.230059
C15   C     C_3   0.941749 0.431058 0.615673 -0.248451
C16   C     C_3   0.081754 0.624536 0.547243 -0.478379
C17   C     C_3   0.045459 0.408594 0.335070 -0.163188
C18   C     C_3   0.121757 0.482418 0.495870 0.004476
Cu1   Cu    Cu3+1 0.522160 0.521810 0.644910 0.951035
Cu2   Cu    Cu3+1 0.477840 0.478190 0.355090 1.071654
H1    H     H_    0.136876 0.482342 0.719311 0.117141
H2    H     H_    0.850312 0.427231 0.253765 0.196106
H3    H     H_    0.114378 0.676477 0.479081 0.217409
H4    H     H_    0.477540 0.864733 0.368425 0.179177
H5    H     H_    0.517544 0.135354 0.631702 0.180800
H6    H     H_    0.531341 0.951209 0.707569 0.157599
H7    H     H_    0.466759 0.048845 0.292495 0.154109
H8    H     H_    0.413738 0.418727 0.842993 0.196598
H9    H     H_    0.585107 0.580380 0.152143 0.100923
H10   H     H_    0.626572 0.620401 0.934942 0.200012
H11   H     H_    0.935610 0.506543 0.725490 0.090472
H12   H     H_    0.127428 0.679704 0.663534 0.147416
H13   H     H_    0.914600 0.691112 0.643802 0.084477
H14   H     H_    0.057241 0.470822 0.269559 0.159084
H15   H     H_    0.868744 0.295284 0.317119 0.212346
N1    N     N_2   0.444530 0.445420 0.137360 0.096609
N2    N     N_2   0.555520 0.554510 0.862630 -0.313664
O1    O     O_R   0.511820 0.332340 0.577400 -0.596985
O2    O     O_R   0.474400 0.295500 0.332650 -0.524507
O3    O     O_R   0.336400 0.518400 0.622370 -0.611624
O4    O     O_R   0.298980 0.481560 0.377620 -0.532828
O5    O     O_R   0.525600 0.704500 0.667350 -0.572950
O6    O     O_R   0.488180 0.667660 0.422600 -0.597097
O7    O     O_R   0.701020 0.518440 0.622380 -0.602849
O8    O     O_R   0.663600 0.481600 0.377630 -0.583308
F1    F     F_    0.888169 0.675462 0.429900 -0.656683
C19   C     C_2   0.134897 0.286935 0.581393 0.431084
H16   H     H_    0.227836 0.279939 0.638121 0.068594
O9    O     O_2   0.074571 0.187198 0.494918 -0.489466
F2    F     F_    0.351713 0.358687 0.046661 -0.573433
C20   C     C_2   0.875251 0.309503 0.619005 0.502847
H17   H     H_    0.902067 0.281147 0.713584 0.060548
O10   O     O_2   0.793231 0.242480 0.518469 -0.557700
C21   C     C_2   0.086235 0.277005 0.243929 0.498903
H18   H     H_    0.027633 0.220052 0.139190 0.055992
O11   O     O_2   0.184155 0.234371 0.281749 -0.511678

loop_
_geom_bond_atom_site_label_1
_geom_bond_atom_site_label_2
_ccdc_geom_bond_type
C9    N1    D    
C2    C4    S    
C11   C18   S    
C15   H11   S    
C14   C19   S    
Cu1   O1    S    
C15   C20   S    
C16   H12   S    
C4    H2    S    
C9    C10   S    
C14   C18   S    
C3    F1    S    
C19   H16   S    
Cu1   O5    S    
C9    H9    S    
C16   H3    S    
Cu1   Cu2   S    
C2    C3    S    
C4    H15   S    
C7    C8    D    
C19   O9    D    
C5    H7    S    
C13   O8    A    
C2    C15   S    
C2    C13   S    
C11   O3    A    
C7    H6    S    
C1    O1    A    
C10   N2    D    
C1    C5    S    
C4    C17   S    
C14   H1    S    
C16   C18   S    
C8    H4    S    
C11   O4    A    
C12   O6    A    
C7    C12   S    
C21   O11   D    
C6    H5    S    
C17   H14   S    
C1    O2    A    
C12   O5    A    
C20   H17   S    
Cu2   N1    S    
Cu2   O6    S    
N1    F2    S    
Cu1   O7    S    
C17   C18   S    
Cu1   O3    S    
C10   H8    S    
C5    C6    D    
Cu2   O2    S    
C3    H13   S    
C14   C15   S    
C6    C8    S    
Cu1   N2    S    
C21   H18   S    
C17   C21   S    
C13   O7    A    
C3    C16   S    
Cu2   O8    S    
H10   N2    S    
Cu2   O4    S    
C20   O10   D    
