data_mof_unit_37989.cif
_audit_creation_date              2012-12-10T19:06:26-0500
_audit_creation_method            fapswitch 2.2
_symmetry_space_group_name_H-M    P1
_symmetry_Int_Tables_number       1
_space_group_crystal_system       triclinic
_cell_length_a                    23.530072
_cell_length_b                    10.855132
_cell_length_c                    9.558332
_cell_angle_alpha                 88.973181
_cell_angle_beta                  89.729329
_cell_angle_gamma                 90.834899
_cell_volume                      2440.72708668

loop_
_atom_site_label
_atom_site_type_symbol
_atom_type_description
_atom_site_fract_x
_atom_site_fract_y
_atom_site_fract_z
_atom_type_partial_charge
C1    C     C_R   0.500142 0.262460 0.500894 0.815978
C2    C     C_R   0.970023 0.270864 0.491972 0.251242
C3    C     C_R   0.029578 0.273758 0.490545 -0.230847
C4    C     C_R   0.059957 0.385533 0.495439 -0.049298
C5    C     C_R   0.030341 0.496933 0.500640 -0.018934
C6    C     C_R   0.060789 0.609629 0.506471 -0.000784
C7    C     C_R   0.031120 0.720699 0.510840 -0.169406
C8    C     C_R   0.971951 0.720166 0.508882 -0.170806
C9    C     C_R   0.119624 0.388669 0.495973 0.546395
C10   C     C_R   0.120403 0.608280 0.507179 0.528852
C11   C     C_R   0.239172 0.527696 0.623523 -0.116359
C12   C     C_R   0.391007 0.500122 0.500288 0.802812
C13   C     C_R   0.298434 0.527959 0.623309 -0.219445
C14   C     C_R   0.328512 0.500413 0.500687 -0.032336
C15   C     C_R   0.298334 0.473262 0.378203 -0.222627
C16   C     C_R   0.239089 0.472623 0.378840 -0.104074
C17   C     C_R   0.209354 0.499754 0.501424 0.362444
C18   C     C_R   0.761907 0.537316 0.611747 -0.162261
C19   C     C_R   0.702756 0.537740 0.613918 -0.230917
C20   C     C_R   0.671713 0.498499 0.497728 -0.062899
C21   C     C_R   0.701038 0.458908 0.378823 -0.287708
C22   C     C_R   0.760575 0.460720 0.374335 0.311355
C23   C     C_R   0.501575 0.737694 0.498461 0.832203
C24   C     C_R   0.791208 0.499128 0.492644 0.329844
C25   C     C_R   0.511932 0.060988 0.622986 0.073404
C26   C     C_R   0.504554 0.129703 0.500123 -0.113708
C27   C     C_R   0.506469 0.068965 0.371720 -0.279386
C28   C     C_R   0.508421 0.940545 0.367364 0.244222
C29   C     C_R   0.507373 0.871189 0.494729 -0.143906
C30   C     C_R   0.513289 0.934487 0.620129 0.006426
C31   C     C_3   0.484013 0.920757 0.759118 0.105604
C32   C     C_3   0.481162 0.061059 0.760291 -0.523763
C33   C     C_R   0.538303 0.570688 0.071820 0.270268
C34   C     C_R   0.609068 0.499594 0.499537 0.804504
C35   C     C_R   0.458887 0.439723 0.077439 -0.122176
C36   C     C_R   0.458039 0.439913 0.927987 0.330497
C37   C     C_R   0.538011 0.571711 0.924523 0.200355
C38   C     C_3   0.601045 0.563196 0.918108 -0.515798
C39   C     C_3   0.601234 0.558774 0.076088 -0.490433
C40   C     C_R   0.881689 0.607011 0.500091 0.507814
C41   C     C_R   0.879560 0.387031 0.491864 0.586833
C42   C     C_R   0.939582 0.382960 0.494803 -0.065057
C43   C     C_R   0.970282 0.495942 0.499578 -0.067675
C44   C     C_R   0.941144 0.608527 0.503079 0.007039
Cu1   Cu    Cu3+1 0.500000 0.499980 0.640670 0.959611
Cu2   Cu    Cu3+1 0.500000 0.500020 0.359330 0.946998
H1    H     H_    0.677876 0.426162 0.289275 0.145403
H2    H     H_    0.504782 0.120283 0.273546 0.169165
H3    H     H_    0.512073 0.879734 0.840399 0.140780
H4    H     H_    0.437338 0.096869 0.750683 0.193216
H5    H     H_    0.427495 0.387870 0.137665 0.158340
H6    H     H_    0.051947 0.187267 0.487482 0.189099
H7    H     H_    0.620808 0.649105 0.874028 0.189742
H8    H     H_    0.622987 0.639344 0.123104 0.198049
H9    H     H_    0.053488 0.808457 0.515309 0.186209
H10   H     H_    0.950458 0.807655 0.511782 0.179993
H11   H     H_    0.216357 0.548894 0.718544 0.139828
H12   H     H_    0.216204 0.451245 0.284083 0.138048
N1    N     N_R   0.852279 0.497656 0.494001 -0.463480
N2    N     N_R   0.148442 0.498888 0.501788 -0.470529
N3    N     N_R   0.500360 0.500930 0.147930 -0.205732
N4    N     N_R   0.500360 0.500890 0.852020 -0.210438
O1    O     O_R   0.500000 0.319640 0.618810 -0.591477
O2    O     O_2   0.848393 0.281961 0.487128 -0.495996
O3    O     O_2   0.148671 0.282498 0.491640 -0.535500
O4    O     O_2   0.150164 0.715325 0.512066 -0.534598
O5    O     O_R   0.500010 0.319680 0.381230 -0.589871
O6    O     O_R   0.417880 0.499940 0.618820 -0.547753
O7    O     O_R   0.417880 0.499980 0.381240 -0.593472
O8    O     O_R   0.499990 0.680320 0.618770 -0.563203
O9    O     O_R   0.500000 0.680360 0.381190 -0.541929
O10   O     O_R   0.582120 0.500020 0.618760 -0.587283
O11   O     O_R   0.582120 0.500060 0.381180 -0.584160
O12   O     O_2   0.853324 0.714186 0.501656 -0.546697
N5    N     N_2   0.941588 0.154312 0.489996 -0.372354
H13   H     H_    0.960012 0.092999 0.422772 0.245168
C45   C     C_3   0.931881 0.099781 0.627406 -0.592526
H14   H     H_    0.973030 0.076792 0.677474 0.197633
H15   H     H_    0.906136 0.013851 0.617659 0.239090
H16   H     H_    0.908259 0.164003 0.694894 0.244667
H17   H     H_    0.681522 0.570160 0.705956 0.156200
N6    N     N_2   0.789420 0.422186 0.251828 -0.408098
H18   H     H_    0.767289 0.356698 0.196196 0.255335
C46   C     C_3   0.810090 0.522229 0.162551 -0.671936
H19   H     H_    0.833798 0.484243 0.072741 0.227831
H20   H     H_    0.839398 0.583623 0.220641 0.251065
H21   H     H_    0.773879 0.576574 0.121675 0.220445
N7    N     N_2   0.508737 0.883425 0.234639 -0.401216
H22   H     H_    0.479495 0.920070 0.165993 0.241320
C47   C     C_3   0.564689 0.878048 0.172153 -0.676233
H23   H     H_    0.582010 0.972528 0.151732 0.215658
H24   H     H_    0.562051 0.829825 0.071015 0.207463
H25   H     H_    0.593909 0.826972 0.242527 0.237278
N8    N     N_2   0.428563 0.860818 0.749481 -0.388749
H26   H     H_    0.401572 0.897869 0.675548 0.260622
C48   C     C_3   0.401467 0.831949 0.882265 -0.653895
H27   H     H_    0.361451 0.779207 0.864334 0.225500
H28   H     H_    0.391365 0.918110 0.937665 0.218450
H29   H     H_    0.429688 0.774173 0.948393 0.226664
H30   H     H_    0.507198 0.102560 0.844472 0.181456
N9    N     N_2   0.414824 0.373283 0.856389 -0.388044
H31   H     H_    0.429162 0.299464 0.801650 0.268365
C49   C     C_3   0.359973 0.353104 0.922853 -0.767783
H32   H     H_    0.362610 0.279202 0.004336 0.218446
H33   H     H_    0.328732 0.323292 0.843167 0.250194
H34   H     H_    0.344654 0.439702 0.969441 0.232938
H35   H     H_    0.615703 0.475803 0.872080 0.222252
H36   H     H_    0.614187 0.467521 0.118071 0.207777
H37   H     H_    0.320658 0.550614 0.718606 0.175183
H38   H     H_    0.320447 0.451602 0.282277 0.150934
H39   H     H_    0.785172 0.566865 0.703016 0.153048

loop_
_geom_bond_atom_site_label_1
_geom_bond_atom_site_label_2
_ccdc_geom_bond_type
C27   H2    S    
C12   O7    A    
N9    H31   S    
C34   O10   A    
C41   C42   A    
C19   C20   A    
C23   O8    A    
C46   H21   S    
C7    H9    S    
C43   C44   A    
C8    H10   S    
C37   N4    A    
C7    C8    A    
C45   H14   S    
C12   O6    A    
C26   C27   A    
C33   C39   S    
C18   C24   A    
C22   N6    S    
C28   C29   A    
C37   C38   S    
C46   H20   S    
C30   C31   S    
C39   H8    S    
C15   C16   A    
C48   H29   S    
Cu1   N4    S    
C18   C19   A    
C38   H35   S    
Cu2   O7    S    
C13   H37   S    
C35   C36   A    
C16   C17   A    
C48   H28   S    
C28   N7    S    
C20   C34   S    
C25   C32   S    
C45   H15   S    
C5    C43   A    
N9    C49   S    
C40   N1    A    
C21   C22   A    
Cu1   O10   S    
C15   H38   S    
C31   H3    S    
C36   N4    A    
C1    O1    A    
C10   O4    S    
C39   H36   S    
Cu2   N3    S    
C23   O9    A    
C38   C39   S    
C18   H39   S    
C41   N1    A    
C49   H33   S    
C34   O11   A    
C25   C26   A    
Cu1   Cu2   S    
Cu1   O1    S    
C33   C37   A    
C32   H30   S    
C36   N9    S    
C10   N2    A    
N5    H13   S    
C29   C30   A    
C47   H24   S    
C31   C32   S    
C48   H27   S    
C20   C21   A    
Cu1   O6    S    
C35   N3    A    
C16   H12   S    
C46   H19   S    
N8    C48   S    
N5    C45   S    
C32   H4    S    
Cu2   O9    S    
C11   H11   S    
N7    C47   S    
N6    C46   S    
C35   H5    S    
C1    C26   S    
C22   C24   A    
C42   C43   A    
C3    C4    A    
C23   C29   S    
C49   H32   S    
C47   H25   S    
C45   H16   S    
C25   C30   A    
C11   C17   A    
Cu1   O8    S    
C8    C44   A    
C12   C14   S    
C4    C5    A    
C6    C10   A    
C3    H6    S    
C6    C7    A    
C31   N8    S    
C9    N2    A    
C2    C3    A    
Cu2   O5    S    
C19   H17   S    
C11   C13   A    
C47   H23   S    
C5    C6    A    
C38   H7    S    
C2    C42   A    
C24   N1    S    
C1    O5    A    
C40   O12   S    
C49   H34   S    
N8    H26   S    
C9    O3    S    
C17   N2    S    
C40   C44   A    
N7    H22   S    
C33   N3    A    
N6    H18   S    
C27   C28   A    
C14   C15   A    
C41   O2    S    
C4    C9    A    
C13   C14   A    
Cu2   O11   S    
C2    N5    S    
C21   H1    S    
