data_mof_unit_36310.cif
_audit_creation_date              2012-12-11T15:10:50-0500
_audit_creation_method            fapswitch 2.2
_symmetry_space_group_name_H-M    P1
_symmetry_Int_Tables_number       1
_space_group_crystal_system       triclinic
_cell_length_a                    21.179619
_cell_length_b                    7.234019
_cell_length_c                    18.348082
_cell_angle_alpha                 89.963651
_cell_angle_beta                  93.029104
_cell_angle_gamma                 89.963694
_cell_volume                      2807.24983635

loop_
_atom_site_label
_atom_site_type_symbol
_atom_type_description
_atom_site_fract_x
_atom_site_fract_y
_atom_site_fract_z
_atom_type_partial_charge
O1    O     O_R   0.448880 0.506250 0.415280 -0.533583
O2    O     O_R   0.551120 0.006250 0.584720 -0.533625
O3    O     O_R   0.434830 0.174000 0.557310 -0.526945
O4    O     O_R   0.565170 0.674000 0.442690 -0.526759
C1    C     C_R   0.416939 0.344594 0.579600 0.702141
C2    C     C_R   0.583054 0.844583 0.420387 0.701398
O5    O     O_R   0.441680 0.176440 0.414130 -0.524459
O6    O     O_R   0.558320 0.676440 0.585870 -0.524119
O7    O     O_R   0.558020 0.007570 0.440520 -0.512543
O8    O     O_R   0.441980 0.507570 0.559480 -0.512235
C3    C     C_R   0.428246 0.344570 0.388505 0.787373
C4    C     C_R   0.571716 0.844378 0.611543 0.786757
O9    O     O_3   0.538160 0.339670 0.508820 -0.373523
O10   O     O_3   0.461840 0.839670 0.491180 -0.373546
V1    V     V_3+5 0.492920 0.064260 0.498360 1.507673
V2    V     V_3+5 0.507080 0.564260 0.501640 1.508605
C5    C     C_R   0.872866 0.011701 0.692778 0.295989
C6    C     C_R   0.125709 0.490419 0.308837 0.299612
H1    H     H_    0.960992 0.016674 0.755776 0.127375
H2    H     H_    0.037942 0.500218 0.245061 0.125923
H3    H     H_    0.789435 0.050117 0.578593 0.160664
H4    H     H_    0.209388 0.541261 0.421947 0.160627
C7    C     C_R   0.884703 0.941436 0.822178 -0.103712
C8    C     C_R   0.115204 0.439849 0.177908 -0.102801
C9    C     C_R   0.583981 0.758971 0.740694 0.549783
C10   C     C_R   0.416581 0.263616 0.258914 0.549079
C11   C     C_R   0.621581 0.710383 0.801863 0.631346
C12   C     C_R   0.379338 0.216369 0.197324 0.631704
C13   C     C_R   0.685723 0.751964 0.805733 -0.377806
C14   C     C_R   0.314980 0.255350 0.193560 -0.377071
C15   C     C_R   0.713755 0.857679 0.751513 0.025325
C16   C     C_R   0.286299 0.356906 0.248463 0.025125
C17   C     C_R   0.675918 0.894072 0.686002 -0.001181
C18   C     C_R   0.323860 0.392284 0.314214 -0.001491
C19   C     C_R   0.779445 0.911999 0.757292 0.013684
C20   C     C_R   0.220268 0.407588 0.243052 0.015170
C21   C     C_R   0.807290 0.975050 0.692582 0.062712
C22   C     C_R   0.191765 0.462223 0.308437 0.063906
C23   C     C_R   0.769389 0.001280 0.628134 -0.165471
C24   C     C_R   0.229678 0.492091 0.372598 -0.165248
C25   C     C_R   0.704857 0.967345 0.625579 -0.154358
C26   C     C_R   0.294510 0.462774 0.374862 -0.153446
C27   C     C_R   0.818646 0.908718 0.824191 0.216453
C28   C     C_R   0.181377 0.408892 0.175939 0.216034
C29   C     C_R   0.910781 0.987879 0.756563 -0.310725
C30   C     C_R   0.088465 0.476665 0.244059 -0.308966
C31   C     C_R   0.610681 0.844092 0.680983 -0.309413
C32   C     C_R   0.389354 0.345035 0.319039 -0.309418
H5    H     H_    0.713129 0.688675 0.849385 0.202581
H6    H     H_    0.287919 0.193064 0.149435 0.202473
H7    H     H_    0.678148 0.993057 0.574635 0.102994
H8    H     H_    0.321182 0.489869 0.425696 0.102247
C33   C     C_1   0.865261 0.939394 0.133078 -0.204581
C34   C     C_1   0.134591 0.439434 0.866728 -0.205804
C35   C     C_1   0.822376 0.925303 0.176785 0.014437
C36   C     C_1   0.177474 0.425347 0.823017 0.014019
C37   C     C_1   0.771721 0.906075 0.228772 0.018895
C38   C     C_1   0.228147 0.406120 0.771054 0.018156
C39   C     C_1   0.729051 0.889341 0.272630 0.025192
C40   C     C_1   0.270842 0.389385 0.727227 0.024243
C41   C     C_1   0.678368 0.870104 0.324584 0.034932
C42   C     C_1   0.321561 0.370145 0.675320 0.034066
C43   C     C_1   0.635417 0.855973 0.368210 -0.152229
C44   C     C_1   0.364544 0.356007 0.631734 -0.152486
O11   O     O_R   0.058070 0.289240 0.940580 -0.525919
O12   O     O_R   0.941930 0.789240 0.059420 -0.526404
O13   O     O_R   0.058330 0.616740 0.085880 -0.531422
O14   O     O_R   0.941670 0.116740 0.914120 -0.531587
C45   C     C_R   0.072829 0.448322 0.110891 0.761304
C46   C     C_R   0.927172 0.948543 0.889116 0.760944
O15   O     O_R   0.065180 0.619040 0.942700 -0.517514
O16   O     O_R   0.934820 0.119040 0.057300 -0.517477
O17   O     O_R   0.948870 0.787780 0.915270 -0.539179
O18   O     O_R   0.051130 0.287780 0.084730 -0.538302
C47   C     C_R   0.082465 0.450621 0.919260 0.700264
C48   C     C_R   0.917426 0.950593 0.080607 0.701685
O19   O     O_3   0.961870 0.453310 0.991210 -0.370034
O20   O     O_3   0.038130 0.953310 0.008790 -0.369429
V3    V     V_3+5 0.007070 0.728770 0.001630 1.411666
V4    V     V_3+5 0.992930 0.228770 0.998370 1.412341
N1    N     N_2   0.901375 0.073805 0.628590 -0.528214
H9    H     H_    0.945627 0.018224 0.622231 0.257675
C49   C     C_3   0.901235 0.272669 0.620010 -0.559245
H10   H     H_    0.930961 0.338085 0.664599 0.196534
H11   H     H_    0.852317 0.328015 0.620673 0.208658
H12   H     H_    0.920749 0.309264 0.566898 0.198248
N2    N     N_2   0.096095 0.534307 0.374588 -0.526757
H13   H     H_    0.057770 0.621727 0.367155 0.258739
C50   C     C_3   0.081623 0.374760 0.418257 -0.563970
H14   H     H_    0.046040 0.286201 0.388401 0.197842
H15   H     H_    0.061989 0.421076 0.470127 0.198658
H16   H     H_    0.124982 0.292414 0.431718 0.207359
N3    N     N_2   0.791840 0.907832 0.893984 -0.546884
H17   H     H_    0.748874 0.972704 0.898580 0.284416
C51   C     C_3   0.804827 0.750231 0.941408 -0.495531
H18   H     H_    0.760145 0.692195 0.960666 0.202899
H19   H     H_    0.832959 0.795929 0.990168 0.197815
H20   H     H_    0.830687 0.639286 0.913459 0.200150
N4    N     N_2   0.208499 0.413689 0.106365 -0.546343
H21   H     H_    0.251301 0.479973 0.102741 0.284102
C52   C     C_3   0.196417 0.258586 0.057516 -0.495740
H22   H     H_    0.241437 0.203381 0.038021 0.203465
H23   H     H_    0.168319 0.306312 0.009054 0.196357
H24   H     H_    0.170858 0.145047 0.084272 0.200147
F1    F     F_    0.522019 0.709345 0.737154 -0.632911
F2    F     F_    0.478785 0.216420 0.262331 -0.632978
F3    F     F_    0.596448 0.612656 0.856402 -0.603528
F4    F     F_    0.405073 0.122364 0.142221 -0.603047

loop_
_geom_bond_atom_site_label_1
_geom_bond_atom_site_label_2
_ccdc_geom_bond_type
O14   V4    S    
C14   C16   A    
N2    H13   S    
C52   H22   S    
C7    C29   A    
C11   C13   A    
C51   H18   S    
O1    C3    A    
O16   C48   A    
O2    C4    A    
C10   F2    S    
C2    O7    A    
O15   V3    S    
N1    H9    S    
C51   H20   S    
C9    F1    S    
C23   C25   A    
C13   H5    S    
O5    C3    A    
O12   V3    S    
N3    H17   S    
C16   C20   A    
C19   C21   A    
C5    C29   A    
C28   N4    S    
C37   C39   T    
C38   C40   T    
C7    C27   A    
C40   C42   S    
C41   C43   T    
C42   C44   T    
N4    H21   S    
C18   C26   A    
C15   C17   A    
C50   H15   S    
C19   C27   A    
C9    C31   A    
C10   C32   A    
O5    V1    S    
C14   H6    S    
O12   C48   A    
O6    V2    S    
O11   V4    S    
O18   V4    S    
C13   C15   A    
C7    C46   S    
C3    C32   S    
C4    C31   S    
C6    C30   A    
N1    C49   S    
C8    C45   S    
C33   C35   T    
C34   C36   T    
C39   C41   S    
O13   V3    S    
O4    C2    A    
O20   V3    S    
C1    C44   S    
O13   C45   A    
C16   C18   A    
C2    C43   S    
O4    V2    S    
C49   H10   S    
H3    C23   S    
C11   F3    S    
O6    C4    A    
H4    C24   S    
C46   O17   A    
H1    C29   S    
O17   V3    S    
C45   O18   A    
O1    V2    S    
C5    C21   A    
C50   H16   S    
O2    V1    S    
O14   C46   A    
N4    C52   S    
C52   H24   S    
C35   C37   S    
C17   C31   A    
C15   C19   A    
C20   C28   A    
C33   C48   S    
C18   C32   A    
C20   C22   A    
O3    V1    S    
C52   H23   S    
O19   V4    S    
C49   H11   S    
O15   C47   A    
O3    C1    A    
C51   H19   S    
C9    C11   A    
C10   C12   A    
C6    N2    S    
O11   C47   A    
C8    C30   A    
C12   C14   A    
C6    C22   A    
C17   C25   A    
C1    O8    A    
C21   C23   A    
O8    V2    S    
C22   C24   A    
N3    C51   S    
C12   F4    S    
C8    C28   A    
C24   C26   A    
C27   N3    S    
C36   C38   S    
C5    N1    S    
O7    V1    S    
C34   C47   S    
C49   H12   S    
O16   V4    S    
O9    V2    S    
N2    C50   S    
O10   V1    S    
C50   H14   S    
C25   H7    S    
H2    C30   S    
C26   H8    S    
