data_mof_unit_55315.cif
_audit_creation_date              2012-12-10T17:35:36-0500
_audit_creation_method            fapswitch 2.2
_symmetry_space_group_name_H-M    P1
_symmetry_Int_Tables_number       1
_space_group_crystal_system       triclinic
_cell_length_a                    10.725325
_cell_length_b                    12.315892
_cell_length_c                    13.16258
_cell_angle_alpha                 116.848672
_cell_angle_beta                  77.481936
_cell_angle_gamma                 101.370019
_cell_volume                      1504.50508191

loop_
_atom_site_label
_atom_site_type_symbol
_atom_type_description
_atom_site_fract_x
_atom_site_fract_y
_atom_site_fract_z
_atom_type_partial_charge
C1    C     C_R   0.510184 0.854745 0.286408 0.862978
C2    C     C_3   0.121984 0.999947 0.499320 -0.213129
C3    C     C_3   0.075072 0.124372 0.590252 0.509491
C4    C     C_3   0.040075 0.896505 0.529893 -0.573835
C5    C     C_R   0.314628 0.275151 0.019518 0.711430
C6    C     C_R   0.448383 0.228487 0.834898 -0.171771
C7    C     C_R   0.582488 0.815829 0.082731 -0.302946
C8    C     C_R   0.594241 0.739467 0.965795 0.635422
C9    C     C_R   0.544133 0.616669 0.927131 0.526801
C10   C     C_R   0.479836 0.568260 0.006942 -0.085183
C11   C     C_R   0.449560 0.651292 0.123638 -0.077354
C12   C     C_R   0.739862 0.999205 0.499376 0.885359
C13   C     C_R   0.441943 0.441144 0.975126 -0.013490
C14   C     C_R   0.354377 0.401275 0.052843 -0.140463
C15   C     C_R   0.308328 0.488252 0.161663 0.666189
C16   C     C_R   0.355799 0.610998 0.196491 -0.229700
C17   C     C_R   0.493701 0.352155 0.870096 -0.127782
C18   C     C_R   0.360054 0.189714 0.910337 -0.271854
C19   C     C_R   0.511373 0.773137 0.162966 -0.152861
C20   C     C_R   0.706642 0.346540 0.328658 0.556944
C21   C     C_R   0.325440 0.759506 0.645475 -0.014207
C22   C     C_R   0.288009 0.663055 0.677404 0.598280
C23   C     C_R   0.480002 0.145342 0.713670 0.822616
C24   C     C_R   0.353881 0.559688 0.622593 -0.160788
C25   C     C_R   0.458722 0.551534 0.534639 -0.024112
C26   C     C_R   0.493720 0.653049 0.505195 0.268115
C27   C     C_R   0.530196 0.447180 0.475132 -0.035657
C28   C     C_R   0.634933 0.446983 0.388128 0.003796
C29   C     C_R   0.667348 0.546951 0.361235 -0.185629
C30   C     C_R   0.598525 0.647261 0.418317 -0.164197
C31   C     C_R   0.502773 0.342149 0.497762 0.113704
C32   C     C_R   0.674509 0.246663 0.355345 0.028175
C33   C     C_R   0.260045 0.000246 0.500092 0.828907
C34   C     C_3   0.955288 0.977687 0.377785 1.037657
C35   C     C_3   0.099333 0.975551 0.377634 0.462592
C36   C     C_3   0.930846 0.122775 0.590360 -0.452034
C37   C     C_3   0.897371 0.895054 0.528709 -0.449144
C38   C     C_3   0.877888 0.998425 0.498687 -0.198482
Cu1   Cu    Cu3+1 0.529690 0.098270 0.475420 1.046306
Cu2   Cu    Cu3+1 0.470310 0.901730 0.524580 0.952036
H1    H     H_    0.089945 0.140000 0.677173 0.085894
H2    H     H_    0.323472 0.093857 0.883764 0.195997
H3    H     H_    0.314132 0.674192 0.280080 0.186196
H4    H     H_    0.747227 0.548288 0.295142 0.223573
H5    H     H_    0.424991 0.334250 0.562121 0.178641
H6    H     H_    0.273977 0.839463 0.688466 0.160171
H7    H     H_    0.320943 0.487888 0.650844 0.200104
H8    H     H_    0.860757 0.803963 0.464635 0.237600
N1    N     N_R   0.574690 0.246280 0.438200 -0.247890
N2    N     N_R   0.426100 0.754320 0.561190 -0.246043
O1    O     O_R   0.537340 0.972510 0.318130 -0.567724
O2    O     O_R   0.487200 0.806530 0.359650 -0.613085
O3    O     O_R   0.707380 0.082980 0.479220 -0.546241
O4    O     O_R   0.657240 0.917000 0.520740 -0.604731
O5    O     O_R   0.512800 0.193470 0.640350 -0.580199
O6    O     O_R   0.462660 0.027490 0.681870 -0.580758
O7    O     O_R   0.342760 0.083000 0.479260 -0.484061
O8    O     O_R   0.292620 0.917020 0.520780 -0.618436
F1    F     F_    0.942147 0.070302 0.349565 -0.563803
H9    H     H_    0.053634 0.910584 0.616729 0.237522
H10   H     H_    0.876959 0.137843 0.677228 0.153991
F2    F     F_    0.219503 0.455199 0.236447 -0.561118
F3    F     F_    0.229787 0.234037 0.090872 -0.534041
H11   H     H_    0.571383 0.376509 0.814146 0.228366
H12   H     H_    0.628635 0.909121 0.110388 0.220230
F4    F     F_    0.548855 0.550455 0.811628 -0.656426
F5    F     F_    0.656422 0.784552 0.889102 -0.597997
F6    F     F_    0.907951 0.867234 0.294885 -0.691054
H13   H     H_    0.729081 0.168842 0.309896 0.205174
F7    F     F_    0.807213 0.344944 0.245220 -0.602806
F8    F     F_    0.187508 0.669798 0.761948 -0.607860
H14   H     H_    0.631775 0.718577 0.391177 0.215095
H15   H     H_    0.128751 0.884049 0.314597 0.069433
F9    F     F_    0.174554 0.061305 0.342366 -0.526900
H16   H     H_    0.916545 0.199686 0.573113 0.266325
F10   F     F_    0.144343 0.221073 0.568186 -0.590255
H17   H     H_    0.842587 0.907540 0.614722 0.245316
H18   H     H_    0.071195 0.805605 0.466916 0.239616

loop_
_geom_bond_atom_site_label_1
_geom_bond_atom_site_label_2
_ccdc_geom_bond_type
C2    C35   S    
Cu1   O1    S    
C35   F9    S    
C33   O8    A    
C26   N2    A    
C7    C8    A    
C11   C19   A    
C37   C38   S    
C28   C29   A    
C18   H2    S    
C17   H11   S    
C15   C16   A    
Cu1   O7    S    
C5    F3    S    
C34   C35   S    
C9    F4    S    
C35   H15   S    
C8    C9    A    
Cu2   O6    S    
C9    C10   A    
C12   O3    A    
C13   C14   A    
C20   F7    S    
C31   N1    A    
C21   N2    A    
C6    C18   A    
Cu1   O5    S    
C1    C19   S    
Cu2   O8    S    
C27   C31   A    
C23   O6    A    
C24   C25   A    
C34   F6    S    
Cu1   Cu2   S    
C5    C18   A    
C20   C28   A    
C25   C26   A    
Cu2   O2    S    
C37   H17   S    
C2    C4    S    
C4    H18   S    
C29   C30   A    
C36   H16   S    
C7    H12   S    
C11   C16   A    
C4    H9    S    
C37   H8    S    
C3    F10   S    
C1    O1    A    
C16   H3    S    
C5    C14   A    
C2    C33   S    
Cu1   N1    S    
C26   C30   A    
C7    C19   A    
C29   H4    S    
C34   F1    S    
C22   C24   A    
C36   H10   S    
C22   F8    S    
C21   H6    S    
C20   C32   A    
C6    C17   A    
C3    H1    S    
C33   O7    A    
C34   C38   S    
C24   H7    S    
C10   C13   A    
C30   H14   S    
C23   O5    A    
C32   H13   S    
C25   C27   A    
Cu2   O4    S    
C13   C17   A    
C36   C38   S    
C2    C3    S    
Cu1   O3    S    
C3    C36   S    
Cu2   N2    S    
C6    C23   S    
C15   F2    S    
C12   C38   S    
C1    O2    A    
C32   N1    A    
C10   C11   A    
C4    C37   S    
C8    F5    S    
C31   H5    S    
C27   C28   A    
C14   C15   A    
C21   C22   A    
C12   O4    A    
