data_mof_unit_5382.cif
_audit_creation_date              2012-12-11T15:50:41-0500
_audit_creation_method            fapswitch 2.2
_symmetry_space_group_name_H-M    P1
_symmetry_Int_Tables_number       1
_space_group_crystal_system       monoclinic
_cell_length_a                    7.061508
_cell_length_b                    15.063096
_cell_length_c                    15.852132
_cell_angle_alpha                 90.0
_cell_angle_beta                  90.0
_cell_angle_gamma                 89.929236
_cell_volume                      1686.16103153

loop_
_atom_site_label
_atom_site_type_symbol
_atom_type_description
_atom_site_fract_x
_atom_site_fract_y
_atom_site_fract_z
_atom_type_partial_charge
O1    O     O_R   0.638140 0.833910 0.163320 -0.524376
O2    O     O_R   0.361860 0.166090 0.836680 -0.535593
O3    O     O_R   0.361860 0.166090 0.663320 -0.524376
O4    O     O_R   0.638140 0.833910 0.336680 -0.535594
O5    O     O_R   0.138140 0.666090 0.336680 -0.523045
O6    O     O_R   0.861860 0.333910 0.663320 -0.537628
O7    O     O_R   0.861860 0.333910 0.836680 -0.523046
O8    O     O_R   0.138140 0.666090 0.163320 -0.537630
O9    O     O_R   0.308390 0.844930 0.336080 -0.502964
O10   O     O_R   0.691610 0.155070 0.663920 -0.518382
O11   O     O_R   0.691610 0.155070 0.836080 -0.502963
O12   O     O_R   0.308390 0.844930 0.163920 -0.518382
O13   O     O_R   0.808390 0.655070 0.163920 -0.505900
O14   O     O_R   0.191610 0.344930 0.836080 -0.511645
O15   O     O_R   0.191610 0.344930 0.663920 -0.505901
O16   O     O_R   0.808390 0.655070 0.336080 -0.511646
C1    C     C_R   0.477925 0.867138 0.364580 0.766627
C2    C     C_R   0.521638 0.132182 0.636004 0.774482
C3    C     C_R   0.522074 0.132861 0.864579 0.766634
C4    C     C_R   0.478362 0.867818 0.136004 0.774483
C5    C     C_R   0.978008 0.634564 0.134080 0.768245
C6    C     C_R   0.021934 0.366383 0.865333 0.779495
C7    C     C_R   0.021992 0.365434 0.634079 0.768234
C8    C     C_R   0.978066 0.633616 0.365332 0.779494
O17   O     O_3   0.471620 0.691320 0.250000 -0.356742
O18   O     O_3   0.528380 0.308680 0.750000 -0.356743
O19   O     O_3   0.971620 0.808680 0.250000 -0.356908
O20   O     O_3   0.028380 0.191320 0.750000 -0.356908
V1    V     V_3+5 0.196770 0.760880 0.250000 1.645361
V2    V     V_3+5 0.803230 0.239120 0.750000 1.645365
V3    V     V_3+5 0.696770 0.739120 0.250000 1.646328
V4    V     V_3+5 0.303230 0.260880 0.750000 1.646332
C9    C     C_R   0.829226 0.516937 0.458377 0.473234
C10   C     C_R   0.170913 0.479157 0.538890 0.485147
C11   C     C_R   0.170774 0.483062 0.958378 0.473246
C12   C     C_R   0.829088 0.520840 0.038893 0.485151
C13   C     C_R   0.334113 0.989403 0.047071 0.473284
C14   C     C_R   0.673950 0.020805 0.962038 0.487147
C15   C     C_R   0.665889 0.010597 0.547071 0.473276
C16   C     C_R   0.326049 0.979191 0.462042 0.487153
C17   C     C_R   0.837871 0.449908 0.519880 0.321466
C18   C     C_R   0.161412 0.548627 0.479430 0.312245
C19   C     C_R   0.162129 0.550091 0.019881 0.321456
C20   C     C_R   0.838590 0.451370 0.979433 0.312247
C21   C     C_R   0.342883 0.054234 0.983657 0.325230
C22   C     C_R   0.665826 0.954901 0.025470 0.294827
C23   C     C_R   0.657120 0.945768 0.483656 0.325225
C24   C     C_R   0.334173 0.045097 0.525472 0.294830
C25   C     C_R   0.009291 0.432084 0.563611 -0.429201
C26   C     C_R   0.990453 0.565791 0.435081 -0.431900
C27   C     C_R   0.990709 0.567914 0.063613 -0.429199
C28   C     C_R   0.009547 0.434208 0.935082 -0.431901
C29   C     C_R   0.511123 0.067009 0.936111 -0.422441
C30   C     C_R   0.492743 0.937647 0.068224 -0.419928
C31   C     C_R   0.488877 0.932989 0.436112 -0.422433
C32   C     C_R   0.507258 0.062352 0.568225 -0.419927
F1    F     F_    0.661597 0.530752 0.418747 -0.621812
F2    F     F_    0.340874 0.459664 0.573898 -0.620977
F3    F     F_    0.338405 0.469246 0.918749 -0.621810
F4    F     F_    0.659128 0.540329 0.073904 -0.620974
F5    F     F_    0.171719 0.982233 0.092207 -0.627802
F6    F     F_    0.844181 0.043767 0.929383 -0.627984
F7    F     F_    0.828282 0.017767 0.592207 -0.627805
F8    F     F_    0.155818 0.956226 0.429389 -0.627985
O21   O     O_3   0.674401 0.402430 0.535611 -0.480806
C33   C     C_3   0.680999 0.320657 0.491942 0.222055
H1    H     H_    0.574885 0.276245 0.521262 0.100436
H2    H     H_    0.818969 0.287843 0.500276 0.040460
C34   C     C_3   0.633727 0.330774 0.397684 -0.280525
H3    H     H_    0.491721 0.361203 0.392254 0.242343
H4    H     H_    0.733708 0.376969 0.366550 0.203093
C35   C     C_3   0.643715 0.241882 0.350307 -0.894986
H5    H     H_    0.772469 0.239180 0.310991 0.237889
H6    H     H_    0.521708 0.234642 0.306890 0.253709
H7    H     H_    0.648921 0.184011 0.393662 0.218173
O22   O     O_3   0.322551 0.597842 0.462911 -0.494659
C36   C     C_3   0.379511 0.645238 0.536046 0.203766
H8    H     H_    0.535486 0.651416 0.534231 0.154567
H9    H     H_    0.346529 0.612398 0.597150 0.148304
C37   C     C_3   0.287724 0.736457 0.536033 -0.378924
H10   H     H_    0.334276 0.773914 0.480793 0.203417
H11   H     H_    0.135883 0.727502 0.528440 0.200264
C38   C     C_3   0.325051 0.788262 0.616862 -0.857756
H12   H     H_    0.238564 0.760912 0.668585 0.243774
H13   H     H_    0.292316 0.859631 0.607717 0.255503
H14   H     H_    0.472473 0.783386 0.636334 0.231119
O23   O     O_3   0.325602 0.597566 0.035615 -0.480805
C39   C     C_3   0.319008 0.679342 0.991949 0.222068
H15   H     H_    0.425128 0.723751 0.021271 0.100438
H16   H     H_    0.181040 0.712159 0.000285 0.040457
C40   C     C_3   0.366282 0.669226 0.897691 -0.280529
H17   H     H_    0.508289 0.638797 0.892261 0.242340
H18   H     H_    0.266304 0.623031 0.866555 0.203092
C41   C     C_3   0.356298 0.758119 0.850316 -0.895001
H19   H     H_    0.227551 0.760822 0.810997 0.237895
H20   H     H_    0.478311 0.765363 0.806903 0.253718
H21   H     H_    0.351082 0.815989 0.893672 0.218172
O24   O     O_3   0.677454 0.402151 0.962919 -0.494663
C42   C     C_3   0.620509 0.354756 0.036057 0.203741
H22   H     H_    0.464533 0.348584 0.034251 0.154572
H23   H     H_    0.653518 0.387592 0.097159 0.148293
C43   C     C_3   0.712276 0.263533 0.036035 -0.378892
H24   H     H_    0.665709 0.226084 0.980793 0.203403
H25   H     H_    0.864119 0.272481 0.028435 0.200259
C44   C     C_3   0.674951 0.211722 0.116861 -0.857739
H26   H     H_    0.761508 0.239035 0.168579 0.243772
H27   H     H_    0.707607 0.140350 0.107695 0.255498
H28   H     H_    0.527551 0.216633 0.136360 0.231110
O25   O     O_3   0.185495 0.107332 0.972108 -0.488212
C45   C     C_3   0.215857 0.190418 0.011451 0.214934
H29   H     H_    0.131276 0.239729 0.976708 0.097240
H30   H     H_    0.361519 0.214054 0.004424 0.058542
C46   C     C_3   0.160295 0.189044 0.105194 -0.296667
H31   H     H_    0.021514 0.156739 0.111229 0.258843
H32   H     H_    0.258375 0.146502 0.141905 0.201087
C47   C     C_3   0.154804 0.282740 0.144043 -0.893471
H33   H     H_    0.296599 0.305198 0.164377 0.236793
H34   H     H_    0.063116 0.282945 0.200582 0.243506
H35   H     H_    0.099474 0.333073 0.099388 0.219479
O26   O     O_3   0.829549 0.911853 0.051478 -0.497830
C48   C     C_3   0.914686 0.862920 0.985230 0.238449
H36   H     H_    0.049261 0.837076 0.010291 0.120837
H37   H     H_    0.957192 0.904929 0.931285 0.184744
C49   C     C_3   0.790940 0.785240 0.955583 -0.427648
H38   H     H_    0.779072 0.734511 0.005999 0.208196
H39   H     H_    0.648455 0.810674 0.941605 0.199803
C50   C     C_3   0.867591 0.743249 0.875095 -0.849167
H40   H     H_    0.909939 0.795299 0.829311 0.243201
H41   H     H_    0.760830 0.701274 0.844015 0.244333
H42   H     H_    0.986428 0.698894 0.890041 0.233896
O27   O     O_3   0.814510 0.892671 0.472105 -0.488207
C51   C     C_3   0.784153 0.809584 0.511446 0.214947
H43   H     H_    0.868740 0.760275 0.476703 0.097238
H44   H     H_    0.638493 0.785946 0.504418 0.058527
C52   C     C_3   0.839719 0.810957 0.605189 -0.296657
H45   H     H_    0.978505 0.843255 0.611223 0.258835
H46   H     H_    0.741652 0.853505 0.641901 0.201095
C53   C     C_3   0.845192 0.717261 0.644039 -0.893522
H47   H     H_    0.703405 0.694817 0.664389 0.236811
H48   H     H_    0.936909 0.717048 0.700567 0.243519
H49   H     H_    0.900474 0.666925 0.599381 0.219483
O28   O     O_3   0.170450 0.088143 0.551481 -0.497829
C54   C     C_3   0.085311 0.137077 0.485235 0.238473
H50   H     H_    0.950726 0.162918 0.510296 0.120828
H51   H     H_    0.042809 0.095065 0.431286 0.184729
C55   C     C_3   0.209064 0.214761 0.455592 -0.427587
H52   H     H_    0.220906 0.265497 0.506006 0.208182
H53   H     H_    0.351566 0.189334 0.441623 0.199781
C56   C     C_3   0.132427 0.256742 0.375096 -0.849145
H54   H     H_    0.090074 0.204685 0.329319 0.243186
H55   H     H_    0.239203 0.298708 0.344010 0.244328
H56   H     H_    0.013592 0.301104 0.390033 0.233890

loop_
_geom_bond_atom_site_label_1
_geom_bond_atom_site_label_2
_ccdc_geom_bond_type
O17   V3    S    
C52   C53   S    
C33   H2    S    
O23   C39   S    
O18   V4    S    
O12   V1    S    
O19   V1    S    
C10   C18   A    
C24   C32   A    
C19   C27   A    
C52   H45   S    
C36   H8    S    
O16   V3    S    
C44   H27   S    
O11   C3    A    
O3    C2    A    
O8    V1    S    
O2    V4    S    
C46   H31   S    
C49   H39   S    
C37   C38   S    
C21   O25   S    
C7    C25   S    
C33   C34   S    
C54   H50   S    
O24   C42   S    
C54   H51   S    
O1    V3    S    
C47   H33   S    
C43   C44   S    
C11   F3    S    
C34   H4    S    
C16   C24   A    
C45   H29   S    
C48   C49   S    
C20   O24   S    
C38   H12   S    
O11   V2    S    
C51   H43   S    
C10   C25   A    
C42   C43   S    
C11   C19   A    
C1    C31   S    
O5    V1    S    
C2    C32   S    
C46   C47   S    
C3    C29   S    
O15   C7    A    
C33   H1    S    
C21   C29   A    
O16   C8    A    
O7    V2    S    
O17   V1    S    
O12   C4    A    
O3    V4    S    
C35   H7    S    
C17   C25   A    
C55   H53   S    
C36   H9    S    
C8    C26   S    
C44   H28   S    
C14   C22   A    
O19   V3    S    
C43   H24   S    
O20   V4    S    
O22   C36   S    
C35   H6    S    
C54   C55   S    
C40   H17   S    
C35   H5    S    
C17   O21   S    
C41   H21   S    
C9    C26   A    
C15   C23   A    
C23   O27   S    
C34   C35   S    
C43   H25   S    
C50   H41   S    
C40   H18   S    
C55   C56   S    
O10   V2    S    
C42   H22   S    
C39   C40   S    
C16   C31   A    
C22   C30   A    
O8    C5    A    
C22   O26   S    
C41   H19   S    
C15   C32   A    
C41   H20   S    
C45   C46   S    
C14   C29   A    
C48   H36   S    
C12   C27   A    
C53   H48   S    
C18   C26   A    
C49   C50   S    
O4    C1    A    
C4    C30   S    
C38   H13   S    
C39   H16   S    
O18   V2    S    
C56   H56   S    
C13   C30   A    
C13   C21   A    
C50   H40   S    
C5    C27   S    
O26   C48   S    
C23   C31   A    
C55   H52   S    
C36   C37   S    
O9    C1    A    
C52   H46   S    
O1    C4    A    
C9    F1    S    
O6    V2    S    
O2    C3    A    
O13   V3    S    
O14   V4    S    
C37   H10   S    
C12   F4    S    
C53   H49   S    
O15   V4    S    
C13   F5    S    
O9    V1    S    
O7    C6    A    
C15   F7    S    
C44   H26   S    
C18   O22   S    
C16   F8    S    
C47   H35   S    
C9    C17   A    
O14   C6    A    
C56   H55   S    
C50   H42   S    
C19   O23   S    
O25   C45   S    
O13   C5    A    
C40   C41   S    
C20   C28   A    
O5    C8    A    
O10   C2    A    
C51   C52   S    
O6    C7    A    
O20   V2    S    
C37   H11   S    
C47   H34   S    
C6    C28   S    
C34   H3    S    
C45   H30   S    
C48   H37   S    
O4    V3    S    
C12   C20   A    
C53   H47   S    
C24   O28   S    
C38   H14   S    
C39   H15   S    
C51   H44   S    
O21   C33   S    
C11   C28   A    
C10   F2    S    
O28   C54   S    
C14   F6    S    
C56   H54   S    
C42   H23   S    
O27   C51   S    
C49   H38   S    
C46   H32   S    
