data_mof_unit_44120.cif
_audit_creation_date              2012-12-11T16:23:19-0500
_audit_creation_method            fapswitch 2.2
_symmetry_space_group_name_H-M    P1
_symmetry_Int_Tables_number       1
_space_group_crystal_system       triclinic
_cell_length_a                    20.016114
_cell_length_b                    7.20877
_cell_length_c                    19.751681
_cell_angle_alpha                 89.970453
_cell_angle_beta                  98.697466
_cell_angle_gamma                 89.976689
_cell_volume                      2817.22682255

loop_
_atom_site_label
_atom_site_type_symbol
_atom_type_description
_atom_site_fract_x
_atom_site_fract_y
_atom_site_fract_z
_atom_type_partial_charge
O1    O     O_R   0.188410 0.619490 0.310050 -0.533819
O2    O     O_R   0.811590 0.380510 0.689950 -0.538817
O3    O     O_R   0.311590 0.119490 0.189950 -0.533675
O4    O     O_R   0.688410 0.880510 0.810050 -0.538717
O5    O     O_R   0.327280 0.288800 0.321740 -0.542355
O6    O     O_R   0.672720 0.711200 0.678260 -0.540294
O7    O     O_R   0.172720 0.788800 0.178260 -0.542176
O8    O     O_R   0.827280 0.211200 0.821740 -0.540129
C1    C     C_R   0.351598 0.456780 0.338845 0.684378
C2    C     C_R   0.648390 0.543215 0.661171 0.688262
C3    C     C_R   0.148393 0.956895 0.161179 0.684072
C4    C     C_R   0.851621 0.043101 0.838803 0.688250
O9    O     O_R   0.189900 0.289710 0.318190 -0.535289
O10   O     O_R   0.810100 0.710290 0.681810 -0.540245
O11   O     O_R   0.310100 0.789710 0.181810 -0.535006
O12   O     O_R   0.689900 0.210290 0.818190 -0.540164
O13   O     O_R   0.173230 0.120350 0.186370 -0.535208
O14   O     O_R   0.826770 0.879650 0.813630 -0.534205
O15   O     O_R   0.326770 0.620350 0.313630 -0.535229
O16   O     O_R   0.673230 0.379650 0.686370 -0.534240
C5    C     C_R   0.169809 0.458316 0.333759 0.699788
C6    C     C_R   0.830612 0.541736 0.666046 0.704341
C7    C     C_R   0.330189 0.958344 0.166225 0.699484
C8    C     C_R   0.669366 0.041745 0.833953 0.703965
O17   O     O_3   0.244690 0.453290 0.206760 -0.373371
O18   O     O_3   0.755310 0.546710 0.793240 -0.374836
O19   O     O_3   0.255310 0.953290 0.293240 -0.373549
O20   O     O_3   0.744690 0.046710 0.706760 -0.374951
V1    V     V_3+5 0.250980 0.178070 0.258020 1.411173
V2    V     V_3+5 0.749020 0.821930 0.741980 1.389657
V3    V     V_3+5 0.249020 0.678070 0.241980 1.411559
V4    V     V_3+5 0.750980 0.321930 0.758020 1.389731
C9    C     C_R   0.489300 0.065807 0.092308 -0.137885
C10   C     C_R   0.539404 0.858515 0.939244 -0.202938
C11   C     C_R   0.011322 0.569980 0.408050 -0.137737
C12   C     C_R   0.959763 0.357527 0.560101 -0.204626
H1    H     H_    0.538340 0.124571 0.110479 0.138073
H2    H     H_    0.513957 0.728333 0.945074 0.180106
H3    H     H_    0.962844 0.632355 0.390136 0.140141
H4    H     H_    0.984661 0.226722 0.553898 0.182814
C13   C     C_R   0.442218 0.054124 0.137727 -0.178578
C14   C     C_R   0.586709 0.866278 0.894099 -0.193626
C15   C     C_R   0.058531 0.558797 0.362783 -0.179030
C16   C     C_R   0.912590 0.365562 0.605348 -0.194460
H5    H     H_    0.455369 0.108195 0.189189 0.115108
H6    H     H_    0.596134 0.741734 0.866392 0.138910
H7    H     H_    0.046037 0.616935 0.311839 0.115927
H8    H     H_    0.902802 0.240682 0.632720 0.139246
C17   C     C_R   0.379482 0.968901 0.117739 -0.089559
C18   C     C_R   0.620206 0.032600 0.883775 -0.091639
C19   C     C_R   0.120464 0.468755 0.382165 -0.090705
C20   C     C_R   0.879675 0.532456 0.616176 -0.091755
C21   C     C_R   0.363923 0.898210 0.051100 -0.223307
C22   C     C_R   0.605612 0.190791 0.920651 -0.264708
C23   C     C_R   0.135060 0.392342 0.448030 -0.221784
C24   C     C_R   0.894651 0.690907 0.579650 -0.263875
H9    H     H_    0.315475 0.832390 0.034989 0.123375
H10   H     H_    0.629615 0.319595 0.910561 0.129691
H11   H     H_    0.182822 0.322316 0.463615 0.123911
H12   H     H_    0.871110 0.820151 0.590110 0.129624
C25   C     C_R   0.409351 0.918938 0.003762 0.438219
C26   C     C_R   0.560059 0.182993 0.969251 0.439952
C27   C     C_R   0.089553 0.412253 0.495308 0.436950
C28   C     C_R   0.939985 0.682899 0.530869 0.441921
C29   C     C_R   0.473786 0.000375 0.024667 0.013793
C30   C     C_R   0.525165 0.014993 0.976967 0.013004
C31   C     C_R   0.025959 0.499368 0.475083 0.013024
C32   C     C_R   0.974534 0.514370 0.522782 0.013435
C33   C     C_R   0.087758 0.953964 0.106837 -0.063636
C34   C     C_R   0.912289 0.045991 0.893109 -0.063795
C35   C     C_R   0.412166 0.453562 0.393279 -0.063849
C36   C     C_R   0.587793 0.546396 0.606767 -0.063983
C37   C     C_R   0.005880 0.224569 0.955907 -0.199502
C38   C     C_R   0.994207 0.775316 0.044004 -0.199400
C39   C     C_R   0.494648 0.725750 0.543354 -0.199902
C40   C     C_R   0.505278 0.274146 0.456722 -0.199998
C41   C     C_R   0.952930 0.206919 0.901393 -0.159991
C42   C     C_R   0.047120 0.793030 0.098551 -0.160962
C43   C     C_R   0.547528 0.708106 0.597945 -0.160090
C44   C     C_R   0.452431 0.291846 0.402101 -0.161057
C45   C     C_R   0.927132 0.900283 0.940358 -0.239153
C46   C     C_R   0.072954 0.099606 0.059553 -0.241013
C47   C     C_R   0.572621 0.399949 0.559973 -0.239185
C48   C     C_R   0.427304 0.599948 0.440105 -0.240997
C49   C     C_R   0.980282 0.918005 0.995907 0.157694
C50   C     C_R   0.019817 0.081861 0.003994 0.157746
C51   C     C_R   0.519530 0.417636 0.504358 0.157935
C52   C     C_R   0.480385 0.582242 0.495729 0.157938
H13   H     H_    0.103927 0.223608 0.064648 0.125161
H14   H     H_    0.896163 0.776273 0.935263 0.124593
H15   H     H_    0.396646 0.724608 0.434596 0.125280
H16   H     H_    0.603278 0.275284 0.565482 0.124725
H17   H     H_    0.056719 0.678365 0.134166 0.127688
H18   H     H_    0.943299 0.321639 0.865810 0.130605
H19   H     H_    0.442597 0.176551 0.366858 0.128021
H20   H     H_    0.557391 0.823452 0.633157 0.130893
H21   H     H_    0.035527 0.350951 0.960747 0.121541
H22   H     H_    0.964558 0.648936 0.039164 0.121098
H23   H     H_    0.465302 0.852729 0.538096 0.121445
H24   H     H_    0.534628 0.147172 0.461977 0.121006
O21   O     O_3   0.390915 0.851521 0.938007 -0.579098
C53   C     C_3   0.370982 0.999799 0.892283 0.076921
H25   H     H_    0.386523 0.963720 0.842242 0.148949
H26   H     H_    0.396041 0.134608 0.908208 0.122416
C54   C     C_3   0.294045 0.022948 0.882082 -0.317788
H27   H     H_    0.269614 0.888577 0.865605 0.206224
H28   H     H_    0.277836 0.064275 0.931297 0.188006
C55   C     C_3   0.270616 0.170359 0.828148 -0.822314
H29   H     H_    0.293755 0.306640 0.843981 0.239411
H30   H     H_    0.214787 0.184439 0.822200 0.232011
H31   H     H_    0.284819 0.130164 0.777925 0.231152
O22   O     O_3   0.543276 0.338167 0.005504 -0.579752
C56   C     C_3   0.598465 0.457863 0.028064 0.064458
H32   H     H_    0.578197 0.574309 0.055712 0.153374
H33   H     H_    0.618709 0.524387 0.984844 0.114245
C57   C     C_3   0.654579 0.364309 0.078471 -0.345980
H34   H     H_    0.633530 0.315566 0.124207 0.189684
H35   H     H_    0.675609 0.242966 0.054221 0.190325
C58   C     C_3   0.712078 0.499719 0.101623 -0.818160
H36   H     H_    0.735035 0.548109 0.056934 0.230150
H37   H     H_    0.751676 0.429461 0.138212 0.230721
H38   H     H_    0.693079 0.621323 0.127545 0.228590
O23   O     O_3   0.106953 0.338249 0.560223 -0.578983
C59   C     C_3   0.129149 0.480801 0.607638 0.076981
H39   H     H_    0.110902 0.446219 0.656531 0.149184
H40   H     H_    0.108217 0.620864 0.592184 0.120374
C60   C     C_3   0.206480 0.487991 0.620511 -0.316112
H41   H     H_    0.226797 0.348154 0.635916 0.206196
H42   H     H_    0.225411 0.529005 0.572604 0.187349
C61   C     C_3   0.232180 0.626721 0.676816 -0.823575
H43   H     H_    0.213168 0.768179 0.662192 0.237251
H44   H     H_    0.288284 0.629277 0.684624 0.233281
H45   H     H_    0.215272 0.586045 0.725773 0.232076
O24   O     O_3   0.956711 0.838377 0.494735 -0.579409
C62   C     C_3   0.901290 0.957317 0.471861 0.063061
H46   H     H_    0.921361 0.073757 0.444036 0.153276
H47   H     H_    0.880853 0.023872 0.514946 0.114609
C63   C     C_3   0.845305 0.862999 0.421575 -0.347111
H48   H     H_    0.866312 0.814900 0.375747 0.189027
H49   H     H_    0.824629 0.741184 0.445880 0.190669
C64   C     C_3   0.787429 0.997546 0.398547 -0.817321
H50   H     H_    0.764437 0.045217 0.443300 0.230153
H51   H     H_    0.747954 0.926841 0.362015 0.230661
H52   H     H_    0.806059 0.119666 0.372602 0.228563

loop_
_geom_bond_atom_site_label_1
_geom_bond_atom_site_label_2
_ccdc_geom_bond_type
O17   V3    S    
C62   C63   S    
C47   C51   A    
C51   C52   A    
O1    C5    A    
O21   C53   S    
C23   H11   S    
O19   V1    S    
O13   V1    S    
O3    C7    A    
C10   C14   A    
O15   V3    S    
C10   C30   A    
C9    C29   A    
C62   H46   S    
C38   H22   S    
C49   C50   A    
C55   H29   S    
O7    C3    A    
C47   H16   S    
C54   H28   S    
C18   C22   A    
C46   H13   S    
O23   C59   S    
C28   C32   A    
C59   H40   S    
C35   C48   A    
C36   C43   A    
C64   H51   S    
O16   V4    S    
C11   H3    S    
O4    C8    A    
C7    C17   S    
C42   H17   S    
C41   H18   S    
O1    V3    S    
C57   H34   S    
C53   C54   S    
O2    V4    S    
C14   H6    S    
O3    V1    S    
C34   C45   A    
O22   C56   S    
C33   C46   A    
C21   C25   A    
C1    O15   A    
C2    O16   A    
C23   C27   A    
O2    C6    A    
C24   C28   A    
O14   V2    S    
C48   H15   S    
C11   C15   A    
C56   C57   S    
C16   C20   A    
O11   C7    A    
O12   C8    A    
C34   C41   A    
C33   C42   A    
O10   V2    S    
C13   C17   A    
C35   C44   A    
O5    V1    S    
C58   H37   S    
C8    C18   S    
C54   C55   S    
C27   C31   A    
O7    V3    S    
C26   C30   A    
C31   C32   S    
O8    V4    S    
C28   O24   S    
C40   C44   A    
C12   H4    S    
C57   H35   S    
C64   H52   S    
C21   H9    S    
O18   V4    S    
C22   C26   A    
C46   C50   A    
C9    H1    S    
C25   O21   S    
C24   H12   S    
C61   H44   S    
C60   H42   S    
O5    C1    A    
C11   C31   A    
O8    C4    A    
C39   H23   S    
O9    C5    A    
C44   H19   S    
C53   H26   S    
C40   C51   A    
C63   H49   S    
C14   C18   A    
C59   C60   S    
C45   H14   S    
O6    V2    S    
C37   H21   S    
C3    C33   S    
C12   C16   A    
C61   H45   S    
C40   H24   S    
C60   H41   S    
C5    C19   S    
C6    C20   S    
C56   H32   S    
C22   H10   S    
C58   H38   S    
O9    V1    S    
C62   H47   S    
C4    C34   S    
C57   C58   S    
C3    O13   A    
C13   H5    S    
C1    C35   S    
C10   H2    S    
C48   C52   A    
C63   C64   S    
O6    C2    A    
C27   O23   S    
C58   H36   S    
C12   C32   A    
O11   V3    S    
O24   C62   S    
O12   V4    S    
C54   H27   S    
C55   H31   S    
C9    C13   A    
O10   C6    A    
O20   V2    S    
C61   H43   S    
C60   C61   S    
C43   H20   S    
C16   H8    S    
C64   H50   S    
C15   C19   A    
C15   H7    S    
C17   C21   A    
C55   H30   S    
C19   C23   A    
C38   C49   A    
C53   H25   S    
O4    V2    S    
C37   C50   A    
C36   C47   A    
C63   H48   S    
C25   C29   A    
C39   C52   A    
C26   O22   S    
C29   C30   S    
C38   C42   A    
C4    O14   A    
C37   C41   A    
C39   C43   A    
C45   C49   A    
C20   C24   A    
C59   H39   S    
C56   H33   S    
C2    C36   S    
