data_mof_unit_52979.cif
_audit_creation_date              2012-12-10T17:56:45-0500
_audit_creation_method            fapswitch 2.2
_symmetry_space_group_name_H-M    P1
_symmetry_Int_Tables_number       1
_space_group_crystal_system       triclinic
_cell_length_a                    10.832414
_cell_length_b                    9.492621
_cell_length_c                    10.791027
_cell_angle_alpha                 89.999918
_cell_angle_beta                  89.779695
_cell_angle_gamma                 89.999917
_cell_volume                      1109.6115285

loop_
_atom_site_label
_atom_site_type_symbol
_atom_type_description
_atom_site_fract_x
_atom_site_fract_y
_atom_site_fract_z
_atom_type_partial_charge
C1    C     C_R   0.261984 0.499981 0.500000 0.786122
C2    C     C_R   0.738016 0.499981 0.500000 0.786122
C3    C     C_R   0.936140 0.628104 0.500116 -0.187223
C4    C     C_R   0.063859 0.628105 0.499880 -0.187225
C5    C     C_R   0.573864 0.074492 0.419946 -0.029919
C6    C     C_R   0.426135 0.074492 0.580053 -0.029920
C7    C     C_R   0.573914 0.925478 0.419993 -0.041644
C8    C     C_R   0.426086 0.925478 0.580007 -0.041637
C9    C     C_R   0.488775 0.500527 0.262183 0.811415
C10   C     C_R   0.511224 0.500527 0.737817 0.811414
C11   C     C_R   0.422982 0.759797 0.105089 0.196543
C12   C     C_R   0.577035 0.759789 0.894910 0.196541
C13   C     C_R   0.458957 0.886888 0.049740 -0.215010
C14   C     C_R   0.541068 0.886884 0.950258 -0.215005
C15   C     C_R   0.526493 0.631054 0.940300 0.052827
C16   C     C_R   0.473516 0.631057 0.059700 0.052828
C17   C     C_R   0.476864 0.502433 0.127092 -0.113193
C18   C     C_R   0.523135 0.502431 0.872908 -0.113190
C19   C     C_R   0.492177 0.374951 0.063515 -0.212569
C20   C     C_R   0.507812 0.374950 0.936485 -0.212568
C21   C     C_R   0.063844 0.372037 0.499980 -0.186767
C22   C     C_R   0.936156 0.372036 0.500025 -0.186768
C23   C     C_R   0.871811 0.500054 0.500096 -0.018406
C24   C     C_R   0.128189 0.500054 0.499904 -0.018406
Cu1   Cu    Cu3+1 0.500000 0.640660 0.500000 0.926399
Cu2   Cu    Cu3+1 0.500000 0.359340 0.500000 0.934506
H1    H     H_    0.491141 0.274781 0.111640 0.158696
H2    H     H_    0.508840 0.274780 0.888360 0.158697
H3    H     H_    0.424429 0.986376 0.084852 0.148030
H4    H     H_    0.575603 0.986369 0.915145 0.148033
H5    H     H_    0.111883 0.271946 0.500013 0.148259
H6    H     H_    0.888117 0.271946 0.499995 0.148260
H7    H     H_    0.888063 0.728178 0.500247 0.149033
H8    H     H_    0.111936 0.728178 0.499744 0.149033
H9    H     H_    0.632969 0.130815 0.355894 0.121300
H10   H     H_    0.367030 0.130815 0.644105 0.121299
H11   H     H_    0.632943 0.869112 0.355898 0.131780
H12   H     H_    0.367057 0.869112 0.644102 0.131779
N1    N     N_R   0.500000 0.852070 0.500000 -0.167782
N2    N     N_R   0.500000 0.147940 0.500000 -0.156372
O1    O     O_R   0.319640 0.618740 0.499990 -0.591429
O2    O     O_R   0.680360 0.618740 0.500010 -0.591429
O3    O     O_R   0.319620 0.381170 0.499990 -0.587525
O4    O     O_R   0.680380 0.381170 0.500010 -0.587524
O5    O     O_R   0.500000 0.618810 0.319650 -0.572222
O6    O     O_R   0.500000 0.618810 0.680350 -0.572221
O7    O     O_R   0.499970 0.381240 0.319640 -0.587145
O8    O     O_R   0.500030 0.381240 0.680360 -0.587146
C25   C     C_3   0.317569 0.765380 0.196859 -0.808245
H13   H     H_    0.238548 0.822416 0.154929 0.209719
H14   H     H_    0.283589 0.658920 0.222209 0.217626
H15   H     H_    0.346042 0.822979 0.281549 0.251567
C26   C     C_3   0.682446 0.765363 0.803137 -0.808248
H16   H     H_    0.761473 0.822389 0.845064 0.209721
H17   H     H_    0.716417 0.658901 0.777783 0.217624
H18   H     H_    0.653976 0.822966 0.718447 0.251567

loop_
_geom_bond_atom_site_label_1
_geom_bond_atom_site_label_2
_ccdc_geom_bond_type
Cu1   O2    S    
C10   O6    A    
C15   C18   A    
C6    C8    A    
C6    H10   S    
C9    O5    A    
C11   C25   S    
C8    N1    A    
C19   H1    S    
C11   C16   A    
C3    C23   A    
C19   C20   A    
C12   C15   A    
Cu2   O8    S    
C25   H15   S    
C21   C22   A    
C26   H17   S    
C7    H11   S    
Cu2   O4    S    
C13   C14   A    
Cu1   N1    S    
C21   H5    S    
Cu2   N2    S    
C22   H6    S    
Cu2   O7    S    
C2    O2    A    
C4    C24   A    
C5    H9    S    
C1    O1    A    
C17   C19   A    
C14   H4    S    
Cu2   O3    S    
C9    O7    A    
C18   C20   A    
C8    H12   S    
C10   O8    A    
C10   C18   S    
C4    H8    S    
C26   H18   S    
C15   C16   A    
C13   H3    S    
Cu1   O1    S    
C3    C4    A    
Cu1   O5    S    
C12   C14   A    
C11   C13   A    
C6    N2    A    
C1    C24   S    
C25   H13   S    
C21   C24   A    
C9    C17   S    
C2    C23   S    
C5    C7    A    
C3    H7    S    
C22   C23   A    
C7    N1    A    
C20   H2    S    
Cu1   Cu2   S    
C5    N2    A    
Cu1   O6    S    
C1    O3    A    
C12   C26   S    
C26   H16   S    
C2    O4    A    
C16   C17   A    
C25   H14   S    
