data_mof_unit_59655.cif
_audit_creation_date              2012-10-26T19:50:02-0400
_audit_creation_method            fapswitch 2.2
_symmetry_space_group_name_H-M    P1
_symmetry_Int_Tables_number       1
_space_group_crystal_system       triclinic
_cell_length_a                    15.069726
_cell_length_b                    13.905735
_cell_length_c                    10.928717
_cell_angle_alpha                 89.717365
_cell_angle_beta                  92.858399
_cell_angle_gamma                 89.743886
_cell_volume                      2287.2713269

loop_
_atom_site_label
_atom_site_type_symbol
_atom_type_description
_atom_site_fract_x
_atom_site_fract_y
_atom_site_fract_z
_atom_type_partial_charge
C1    C     C_R   0.330185 0.500197 0.501759 0.535221
C2    C     C_R   0.951490 0.501829 0.500340 0.054324
C3    C     C_R   0.530224 0.107460 0.603486 -0.147081
C4    C     C_R   0.470196 0.108968 0.395556 -0.153285
C5    C     C_R   0.531847 0.208571 0.600685 0.063398
C6    C     C_R   0.468469 0.210006 0.398849 0.066932
C7    C     C_R   0.500103 0.055745 0.499446 0.024332
C8    C     C_R   0.421402 0.894544 0.472750 -0.002877
C9    C     C_R   0.579459 0.893566 0.524098 -0.002927
C10   C     C_R   0.428395 0.793821 0.448924 0.152194
C11   C     C_R   0.572212 0.792896 0.549089 0.153100
C12   C     C_R   0.669817 0.499844 0.498464 0.534445
C13   C     C_R   0.500372 0.946931 0.498858 0.008033
C14   C     C_R   0.507463 0.500425 0.262704 0.600472
C15   C     C_R   0.494288 0.499831 0.737663 0.603123
C16   C     C_R   0.551759 0.676463 0.105348 0.248352
C17   C     C_R   0.444811 0.671900 0.887229 0.265939
C18   C     C_R   0.533909 0.763619 0.038923 -0.003643
C19   C     C_R   0.470287 0.762629 0.937780 0.006449
C20   C     C_R   0.482424 0.586555 0.938500 -0.051052
C21   C     C_R   0.516483 0.588517 0.059982 -0.050279
C22   C     C_R   0.516442 0.500963 0.128419 0.027690
C23   C     C_R   0.233849 0.500929 0.505548 -0.009480
C24   C     C_R   0.488812 0.499129 0.872459 0.024970
C25   C     C_R   0.511369 0.412520 0.065459 0.211017
C26   C     C_R   0.505654 0.412212 0.937106 0.210947
C27   C     C_R   0.092174 0.552156 0.409852 0.245463
C28   C     C_R   0.907246 0.549379 0.592627 0.245489
C29   C     C_R   0.185206 0.551188 0.413109 -0.163447
C30   C     C_R   0.814239 0.548046 0.589263 -0.161999
C31   C     C_3   0.330793 0.944405 0.474685 -0.281153
C32   C     C_3   0.308554 0.971247 0.604676 -0.431183
C33   C     C_3   0.670269 0.942424 0.525288 -0.278270
C34   C     C_R   0.766177 0.499863 0.495491 -0.009479
C35   C     C_3   0.691641 0.981699 0.399502 -0.428303
C36   C     C_3   0.357104 0.747521 0.365112 -0.240782
C37   C     C_3   0.341368 0.798640 0.241863 -0.493346
C38   C     C_3   0.641676 0.746714 0.637404 -0.237983
C39   C     C_3   0.657680 0.803171 0.756750 -0.479214
C40   C     C_3   0.586160 0.854262 0.071985 -0.282075
C41   C     C_3   0.537456 0.919618 0.158608 -0.463242
C42   C     C_3   0.431937 0.855970 0.882081 -0.289034
C43   C     C_3   0.335753 0.872227 0.915530 -0.441819
C44   C     C_R   0.189434 0.451573 0.598098 0.235941
C45   C     C_R   0.811157 0.452637 0.401975 0.235143
C46   C     C_R   0.096944 0.452309 0.593736 -0.055850
C47   C     C_R   0.903653 0.453784 0.406389 -0.055327
C48   C     C_R   0.048515 0.502152 0.500902 0.054164
Cu1   Cu    Cu3+1 0.500000 0.596430 0.500000 0.934294
Cu2   Cu    Cu3+1 0.500000 0.403570 0.500000 1.003134
H1    H     H_    0.219787 0.588239 0.342317 0.092834
H2    H     H_    0.557396 0.284715 0.921615 0.329168
H3    H     H_    0.300042 0.904536 0.658771 0.148401
H4    H     H_    0.361311 0.015961 0.649761 0.168073
H5    H     H_    0.245159 0.012365 0.602511 0.154888
H6    H     H_    0.275655 0.898274 0.439908 0.150009
H7    H     H_    0.327656 0.009063 0.415319 0.147067
H8    H     H_    0.690352 0.922567 0.331578 0.151777
H9    H     H_    0.644453 0.039049 0.368499 0.171038
H10   H     H_    0.759362 0.013053 0.404358 0.153891
H11   H     H_    0.725048 0.891751 0.549890 0.149909
H12   H     H_    0.779201 0.583396 0.660810 0.093608
H13   H     H_    0.674885 0.000588 0.594070 0.146070
H14   H     H_    0.329985 0.876938 0.249822 0.143240
H15   H     H_    0.399358 0.786855 0.185923 0.170915
H16   H     H_    0.282484 0.766936 0.192240 0.144932
H17   H     H_    0.376271 0.675587 0.337058 0.213198
H18   H     H_    0.293944 0.741897 0.412706 0.139569
H19   H     H_    0.711631 0.856407 0.749306 0.140680
H20   H     H_    0.596590 0.841458 0.780887 0.151612
H21   H     H_    0.678019 0.753390 0.833060 0.150221
H22   H     H_    0.620410 0.676159 0.667933 0.209619
H23   H     H_    0.062437 0.414386 0.663934 0.161721
H24   H     H_    0.705250 0.736532 0.591925 0.139269
H25   H     H_    0.607609 0.733308 0.251346 0.331044
H26   H     H_    0.371184 0.722204 0.747725 0.331742
H27   H     H_    0.532128 0.884083 0.248879 0.158483
H28   H     H_    0.574975 0.987538 0.171634 0.145363
H29   H     H_    0.469883 0.938317 0.121318 0.153363
H30   H     H_    0.652684 0.836056 0.114161 0.163582
H31   H     H_    0.602098 0.894897 0.988494 0.133472
H32   H     H_    0.292175 0.812241 0.884253 0.183307
H33   H     H_    0.332111 0.880020 0.015735 0.151289
H34   H     H_    0.938622 0.417634 0.335358 0.161812
H35   H     H_    0.310109 0.940014 0.872756 0.139353
H36   H     H_    0.469195 0.920544 0.911953 0.147035
H37   H     H_    0.436992 0.856290 0.781158 0.130016
H38   H     H_    0.083720 0.632984 0.263867 0.325699
H39   H     H_    0.914735 0.626773 0.740591 0.326760
H40   H     H_    0.296147 0.421889 0.700401 0.352563
H41   H     H_    0.704580 0.423537 0.299876 0.354395
H42   H     H_    0.552873 0.069865 0.686346 0.087975
H43   H     H_    0.447586 0.072558 0.312465 0.089447
H44   H     H_    0.558861 0.246627 0.679581 0.172432
H45   H     H_    0.441860 0.249141 0.319709 0.163209
H46   H     H_    0.479349 0.278014 0.083702 0.326672
N1    N     N_R   0.500000 0.258690 0.500000 -0.223832
N2    N     N_R   0.500000 0.741330 0.500000 -0.239102
O1    O     O_R   0.371460 0.581430 0.500010 -0.519342
O2    O     O_3   0.515186 0.327205 0.874209 -0.711170
O3    O     O_3   0.612688 0.673224 0.204014 -0.668876
O4    O     O_3   0.378785 0.662125 0.795376 -0.673879
O5    O     O_3   0.042778 0.601611 0.319918 -0.682701
O6    O     O_3   0.956047 0.596984 0.683765 -0.683451
O7    O     O_3   0.232746 0.403638 0.694905 -0.674708
O8    O     O_3   0.768437 0.406580 0.304115 -0.672130
O9    O     O_R   0.628540 0.581430 0.499990 -0.516187
O10   O     O_R   0.371470 0.418560 0.500010 -0.498341
O11   O     O_R   0.628530 0.418560 0.499990 -0.496938
O12   O     O_R   0.500000 0.581450 0.319650 -0.497239
O13   O     O_R   0.500000 0.581450 0.680350 -0.499448
O14   O     O_R   0.500010 0.418580 0.319650 -0.462600
O15   O     O_R   0.499990 0.418580 0.680350 -0.459677
O16   O     O_3   0.514928 0.326769 0.130019 -0.702535

loop_
_geom_bond_atom_site_label_1
_geom_bond_atom_site_label_2
_ccdc_geom_bond_type
C27   C48   A    
Cu2   O10   S    
C16   C21   A    
C27   C29   A    
C43   H33   S    
C1    O1    A    
C5    H44   S    
C36   H17   S    
Cu1   O9    S    
C44   O7    S    
C14   O14   A    
C8    C13   A    
C35   H8    S    
C23   C29   A    
C36   C37   S    
C24   C26   A    
C3    C7    A    
C41   H27   S    
C38   C39   S    
C17   C20   A    
C35   H9    S    
C18   C19   A    
C27   O5    S    
C10   N2    A    
C9    C13   A    
C18   C40   S    
C33   C35   S    
Cu1   N2    S    
C20   C24   A    
C22   C25   A    
C37   H15   S    
C15   O15   A    
C42   H36   S    
C31   H6    S    
C32   H5    S    
C19   C42   S    
Cu1   O13   S    
C21   C22   A    
C9    C33   S    
H41   O8    S    
H46   O16   S    
C4    C7    A    
C32   H4    S    
C12   O11   A    
C44   C46   A    
C46   C48   A    
C45   C47   A    
H26   O4    S    
C38   H22   S    
C30   C34   A    
C43   H35   S    
C6    N1    A    
C15   O13   A    
C4    C6    A    
C41   H28   S    
C2    C48   S    
C25   C26   A    
H2    O2    S    
Cu2   O11   S    
C23   C44   A    
C35   H10   S    
C11   C38   S    
C17   O4    S    
Cu1   O1    S    
C28   O6    S    
C31   C32   S    
C33   H13   S    
C37   H16   S    
C40   H30   S    
C39   H19   S    
C34   C45   A    
C47   H34   S    
C9    C11   A    
C16   C18   A    
C40   C41   S    
C5    N1    A    
C1    C23   S    
C11   N2    A    
H39   O6    S    
Cu1   Cu2   S    
C42   C43   S    
C12   C34   S    
C32   H3    S    
H38   O5    S    
C45   O8    S    
C29   H1    S    
C14   O12   A    
C15   C24   S    
Cu2   N1    S    
C8    C31   S    
C40   H31   S    
H40   O7    S    
C3    C5    A    
C41   H29   S    
C12   O9    A    
C10   C36   S    
C36   H18   S    
C2    C47   A    
Cu2   O15   S    
C14   C22   S    
C30   H12   S    
Cu2   O14   S    
C25   O16   S    
C31   H7    S    
C33   H11   S    
C28   C30   A    
C17   C19   A    
C39   H20   S    
C38   H24   S    
C1    O10   A    
C4    H43   S    
C16   O3    S    
C7    C13   S    
C20   C21   A    
C8    C10   A    
C6    H45   S    
H25   O3    S    
C43   H32   S    
C39   H21   S    
C3    H42   S    
C2    C28   A    
C42   H37   S    
C37   H14   S    
C46   H23   S    
C26   O2    S    
Cu1   O12   S    
