data_mof_unit_51987.cif
_audit_creation_date              2012-12-11T15:55:48-0500
_audit_creation_method            fapswitch 2.2
_symmetry_space_group_name_H-M    P1
_symmetry_Int_Tables_number       1
_space_group_crystal_system       triclinic
_cell_length_a                    7.020235
_cell_length_b                    14.557177
_cell_length_c                    16.065228
_cell_angle_alpha                 89.828645
_cell_angle_beta                  89.839178
_cell_angle_gamma                 90.071619
_cell_volume                      1641.76770864

loop_
_atom_site_label
_atom_site_type_symbol
_atom_type_description
_atom_site_fract_x
_atom_site_fract_y
_atom_site_fract_z
_atom_type_partial_charge
O1    O     O_R   0.505680 0.583900 0.413320 -0.519273
O2    O     O_R   0.176010 0.594950 0.586080 -0.506968
O3    O     O_R   0.005680 0.416100 0.586680 -0.527100
C1    C     C_R   0.344555 0.618186 0.613887 0.797628
O4    O     O_R   0.175960 0.594930 0.413930 -0.546302
O5    O     O_R   0.005640 0.416080 0.413300 -0.544468
C2    C     C_R   0.344862 0.615823 0.384502 0.732519
O6    O     O_R   0.505720 0.583920 0.586700 -0.518028
O7    O     O_3   0.339190 0.441320 0.500000 -0.401003
V1    V     V_3+5 0.064350 0.510890 0.500000 1.502219
O8    O     O_R   0.675920 0.405050 0.413920 -0.550149
C3    C     C_R   0.844908 0.382279 0.385981 0.731295
O9    O     O_R   0.675960 0.405070 0.586070 -0.553199
C4    C     C_R   0.844671 0.383529 0.615420 0.732604
V2    V     V_3+5 0.564340 0.489110 0.500000 1.465271
O10   O     O_3   0.839370 0.558680 0.500000 -0.349421
C5    C     C_R   0.985936 0.325921 0.749733 -0.136225
C6    C     C_R   0.854469 0.316266 0.685794 -0.288722
C7    C     C_R   0.695691 0.266400 0.712875 0.306393
C8    C     C_R   0.733968 0.183022 0.756229 0.524618
C9    C     C_R   0.877548 0.186036 0.817800 -0.217146
C10   C     C_R   0.994306 0.264276 0.817117 -0.226748
C11   C     C_3   0.206345 0.272131 0.819169 0.698028
C12   C     C_3   0.191901 0.341214 0.746104 0.738732
C13   C     C_R   0.037823 0.201888 0.235988 0.366259
C14   C     C_R   0.025120 0.266033 0.301516 -0.253952
H1    H     H_    0.147603 0.277436 0.341067 0.126516
C15   C     C_R   0.855326 0.313385 0.317831 -0.146569
C16   C     C_R   0.697387 0.296575 0.267002 -0.185570
H2    H     H_    0.564388 0.331815 0.278549 0.137395
C17   C     C_R   0.710683 0.239449 0.197312 0.298074
C18   C     C_R   0.880047 0.188146 0.182296 -0.177025
C19   C     C_R   0.188289 0.715978 0.725024 0.225509
C20   C     C_R   0.197660 0.788339 0.783265 0.362337
C21   C     C_R   0.376030 0.819663 0.812330 -0.248685
C22   C     C_R   0.539068 0.792084 0.768921 -0.330321
H3    H     H_    0.675807 0.818477 0.786572 0.213002
C23   C     C_R   0.526151 0.735172 0.698836 0.411090
C24   C     C_R   0.353160 0.690045 0.680286 -0.240891
C25   C     C_R   0.226199 0.755332 0.310633 -0.207944
H4    H     H_    0.119604 0.762749 0.359087 0.166635
C26   C     C_R   0.239220 0.823176 0.248947 0.338552
C27   C     C_R   0.379138 0.815867 0.184985 -0.308465
C28   C     C_R   0.505745 0.740063 0.186293 0.377777
C29   C     C_R   0.493568 0.673657 0.250201 0.409663
C30   C     C_R   0.354927 0.681999 0.313886 -0.278633
O11   O     O_R   0.229200 0.915950 0.913350 -0.514841
O12   O     O_R   0.559090 0.905000 0.086080 -0.513177
O13   O     O_R   0.729280 0.083880 0.086680 -0.541490
C31   C     C_R   0.390225 0.884424 0.115889 0.737856
O14   O     O_R   0.558920 0.904980 0.913920 -0.546865
O15   O     O_R   0.729110 0.083860 0.913300 -0.511419
C32   C     C_R   0.389831 0.884852 0.883762 0.764335
O16   O     O_R   0.229360 0.915970 0.086730 -0.536748
O17   O     O_3   0.395680 0.058580 0.000030 -0.364364
V3    V     V_3+5 0.670570 0.989070 0.999990 1.562968
O18   O     O_R   0.058820 0.094950 0.913870 -0.544865
C33   C     C_R   0.890359 0.115843 0.884569 0.724479
O19   O     O_R   0.058990 0.094970 0.086020 -0.510996
C34   C     C_R   0.890001 0.118180 0.113983 0.716380
V4    V     V_3+5 0.170560 0.010930 0.999930 1.559623
O20   O     O_3   0.895590 0.941310 0.999960 -0.363349
O21   O     O_3   0.564865 0.318440 0.754515 -0.595204
H5    H     H_    0.585361 0.384986 0.743510 0.321048
O22   O     O_3   0.556592 0.238013 0.144381 -0.622466
H6    H     H_    0.605742 0.235504 0.086577 0.296004
O23   O     O_3   0.018894 0.670945 0.710807 -0.605805
H7    H     H_    0.931737 0.682225 0.758334 0.328702
O24   O     O_3   0.030946 0.830179 0.808696 -0.552842
C35   C     C_3   0.000769 0.907379 0.756614 -0.211278
H8    H     H_    0.970862 0.885648 0.691660 0.134671
H9    H     H_    0.123537 0.955924 0.757217 0.118535
H10   H     H_    0.875402 0.945986 0.779747 0.156951
O25   O     O_3   0.685149 0.723332 0.649459 -0.516759
C36   C     C_3   0.680109 0.788999 0.584786 -0.141641
H11   H     H_    0.675520 0.860342 0.609543 0.091306
H12   H     H_    0.557126 0.776873 0.542630 0.091760
H13   H     H_    0.812127 0.782294 0.547187 0.155759
O26   O     O_3   0.116660 0.896851 0.255709 -0.627393
H14   H     H_    0.178596 0.951815 0.231337 0.307655
O27   O     O_3   0.651168 0.733196 0.128179 -0.519826
C37   C     C_3   0.581245 0.691264 0.055197 -0.150962
H15   H     H_    0.577530 0.615574 0.062730 0.134825
H16   H     H_    0.680948 0.706916 0.003342 0.154839
H17   H     H_    0.438292 0.716907 0.036206 0.074955
O28   O     O_3   0.620998 0.601276 0.249394 -0.530279
C38   C     C_3   0.527452 0.521851 0.219859 -0.190705
H18   H     H_    0.452416 0.486251 0.271552 0.123627
H19   H     H_    0.636356 0.474453 0.194429 0.163177
H20   H     H_    0.424012 0.536057 0.168921 0.103397
O29   O     O_3   0.614491 0.107272 0.752152 -0.533103
C39   C     C_3   0.577217 0.084869 0.668401 -0.316928
H21   H     H_    0.499003 0.018607 0.666973 0.157627
H22   H     H_    0.711630 0.075660 0.632395 0.106865
H23   H     H_    0.485207 0.137448 0.638389 0.175931
O30   O     O_3   0.299321 0.189034 0.800739 -0.590883
H24   H     H_    0.235006 0.159695 0.752647 0.282458
O31   O     O_3   0.273440 0.311085 0.893299 -0.624842
H25   H     H_    0.254408 0.264137 0.937480 0.299867
O32   O     O_3   0.264615 0.306203 0.670736 -0.664175
H26   H     H_    0.320016 0.358211 0.639042 0.327794
O33   O     O_3   0.258976 0.432275 0.764084 -0.565933
C40   C     C_3   0.129910 0.487279 0.809788 -0.218428
H27   H     H_    0.082759 0.453498 0.868362 0.162325
H28   H     H_    0.004563 0.505328 0.771078 0.159194
H29   H     H_    0.203066 0.551893 0.827307 0.159493
O34   O     O_3   0.202098 0.151179 0.224592 -0.623730
H30   H     H_    0.296231 0.167826 0.267936 0.297583

loop_
_geom_bond_atom_site_label_1
_geom_bond_atom_site_label_2
_ccdc_geom_bond_type
C38   H18   S    
C21   C32   S    
C4    C6    S    
C21   C22   A    
C1    O6    A    
O27   C37   S    
C29   C30   A    
C25   C30   A    
C13   O34   S    
C14   H1    S    
C19   C24   A    
O13   C34   A    
C3    C15   S    
C37   H17   S    
C15   C16   A    
C20   C21   A    
O5    C3    A    
C23   C24   A    
V2    O10   S    
O31   H25   S    
C11   O30   S    
O12   V3    S    
C6    C7    A    
O32   H26   S    
O8    V2    S    
C7    C8    A    
C7    O21   S    
O34   H30   S    
C35   H8    S    
O1    V2    S    
O7    V1    S    
V4    O20   S    
O11   C32   A    
C13   C18   A    
O12   C31   A    
O19   C34   A    
O1    C2    A    
O9    C4    A    
O33   C40   S    
C35   H10   S    
O4    V1    S    
C19   C20   A    
C8    O29   S    
O19   V4    S    
C5    C12   S    
O25   C36   S    
O23   H7    S    
C2    C30   S    
C28   O27   S    
O29   C39   S    
O4    C2    A    
O28   C38   S    
C13   C14   A    
C39   H23   S    
O21   H5    S    
O14   C32   A    
O2    C1    A    
C36   H11   S    
O11   V4    S    
C16   H2    S    
C17   C18   A    
C1    C24   S    
C11   C12   S    
O30   H24   S    
O17   V3    S    
C39   H22   S    
C5    C6    A    
C40   H28   S    
C31   O16   A    
C36   H12   S    
C20   O24   S    
O3    C4    A    
O15   C33   A    
C25   H4    S    
C37   H15   S    
O6    V2    S    
C37   H16   S    
O9    V2    S    
C27   C28   A    
V3    O20   S    
C26   C27   A    
C18   C34   S    
O2    V1    S    
C28   C29   A    
C19   O23   S    
C23   O25   S    
C17   O22   S    
C22   H3    S    
C12   O32   S    
O14   V3    S    
O5    V1    S    
O8    C3    A    
C27   C31   S    
O18   V4    S    
O16   V4    S    
O13   V3    S    
C14   C15   A    
C5    C10   A    
C22   C23   A    
C29   O28   S    
O7    V2    S    
C9    C33   S    
C16   C17   A    
O3    V1    S    
V1    O10   S    
O18   C33   A    
O17   V4    S    
C25   C26   A    
C39   H21   S    
C40   H29   S    
C12   O33   S    
O24   C35   S    
C36   H13   S    
O26   H14   S    
C26   O26   S    
C11   O31   S    
C8    C9    A    
O22   H6    S    
C38   H20   S    
C40   H27   S    
C38   H19   S    
C10   C11   S    
C35   H9    S    
C9    C10   A    
O15   V3    S    
