data_mof_unit_20994.cif
_audit_creation_date              2012-10-26T19:20:36-0400
_audit_creation_method            fapswitch 2.2
_symmetry_space_group_name_H-M    P1
_symmetry_Int_Tables_number       1
_space_group_crystal_system       triclinic
_cell_length_a                    10.801847
_cell_length_b                    11.092952
_cell_length_c                    9.805523
_cell_angle_alpha                 111.600876
_cell_angle_beta                  96.77374
_cell_angle_gamma                 90.777703
_cell_volume                      1082.73118318

loop_
_atom_site_label
_atom_site_type_symbol
_atom_type_description
_atom_site_fract_x
_atom_site_fract_y
_atom_site_fract_z
_atom_type_partial_charge
C1    C     C_R   0.493181 0.254557 0.440383 0.590490
C2    C     C_R   0.736671 0.494380 0.494995 0.601828
C3    C     C_R   0.131509 0.747817 0.596498 0.272242
C4    C     C_R   0.868489 0.252187 0.403489 0.272253
C5    C     C_R   0.066146 0.857057 0.600752 -0.106409
C6    C     C_R   0.933851 0.142942 0.399225 -0.106432
C7    C     C_R   0.937372 0.846650 0.566064 -0.177366
C8    C     C_R   0.062626 0.153349 0.433925 -0.177357
C9    C     C_R   0.872104 0.727875 0.530049 -0.124042
C10   C     C_R   0.127895 0.272125 0.469953 -0.124040
C11   C     C_R   0.935785 0.614503 0.519185 -0.045878
C12   C     C_R   0.506818 0.745443 0.559616 0.590491
C13   C     C_R   0.064215 0.385500 0.480819 -0.045880
C14   C     C_R   0.067605 0.622422 0.542539 0.009956
C15   C     C_R   0.932395 0.377582 0.457462 0.009982
C16   C     C_R   0.869686 0.494091 0.485085 -0.013116
C17   C     C_R   0.130315 0.505912 0.514918 -0.013149
C18   C     C_3   0.267540 0.809312 0.807532 -0.102136
C19   C     C_3   0.732462 0.190586 0.192438 -0.102154
C20   C     C_3   0.360905 0.869811 0.378266 -0.354477
C21   C     C_3   0.639101 0.130179 0.621715 -0.354487
C22   C     C_2   0.481046 0.116189 0.407532 -0.081876
C23   C     C_2   0.518949 0.883811 0.592466 -0.081860
C24   C     C_2   0.527595 0.063757 0.505357 -0.008429
C25   C     C_2   0.472403 0.936240 0.494636 -0.008417
C26   C     C_2   0.510441 0.510100 0.080918 -0.033415
C27   C     C_2   0.489558 0.489900 0.919082 -0.033425
C28   C     C_R   0.263329 0.505623 0.505006 0.601815
Cu1   Cu    Cu3+1 0.521920 0.521810 0.644910 0.936055
Cu2   Cu    Cu3+1 0.478080 0.478190 0.355090 0.936079
H1    H     H_    0.112321 0.068193 0.428871 0.110540
H2    H     H_    0.582723 0.581437 0.153135 0.148464
H3    H     H_    0.622872 0.621821 0.933566 0.200690
H4    H     H_    0.377128 0.378178 0.066433 0.200690
H5    H     H_    0.222126 0.737136 0.843244 0.121176
H6    H     H_    0.228256 0.905834 0.856218 0.094986
H7    H     H_    0.367856 0.820721 0.852749 0.154732
H8    H     H_    0.632135 0.179427 0.147240 0.154816
H9    H     H_    0.771511 0.093901 0.143841 0.095031
H10   H     H_    0.778115 0.262578 0.156611 0.121038
H11   H     H_    0.288848 0.940383 0.380303 0.094229
H12   H     H_    0.887676 0.931803 0.571116 0.110539
H13   H     H_    0.391383 0.830180 0.266710 0.123415
H14   H     H_    0.312149 0.790985 0.399086 0.191669
H15   H     H_    0.711154 0.059602 0.619660 0.094232
H16   H     H_    0.687853 0.209007 0.600897 0.191658
H17   H     H_    0.608636 0.169804 0.733278 0.123421
H18   H     H_    0.115643 0.951262 0.635805 0.118025
H19   H     H_    0.884353 0.048737 0.364164 0.117992
H20   H     H_    0.771449 0.725487 0.507882 0.124313
H21   H     H_    0.228550 0.274513 0.492128 0.124319
H22   H     H_    0.581070 0.939555 0.691990 0.068532
H23   H     H_    0.418921 0.060449 0.308012 0.068538
H24   H     H_    0.417276 0.418564 0.846866 0.148462
N1    N     N_2   0.445130 0.445420 0.137360 -0.362195
N2    N     N_2   0.554870 0.554580 0.862640 -0.362190
O1    O     O_R   0.511700 0.332340 0.577400 -0.503507
O2    O     O_3   0.743298 0.233760 0.348266 -0.576653
O3    O     O_R   0.488300 0.667660 0.422600 -0.503517
O4    O     O_R   0.474680 0.295500 0.332650 -0.490005
O5    O     O_R   0.525320 0.704500 0.667350 -0.490000
O6    O     O_R   0.338170 0.518410 0.622370 -0.486091
O7    O     O_R   0.661830 0.481590 0.377630 -0.486037
O8    O     O_R   0.301150 0.481570 0.377630 -0.495731
O9    O     O_R   0.698850 0.518430 0.622370 -0.495745
O10   O     O_3   0.256701 0.766260 0.651717 -0.576681

loop_
_geom_bond_atom_site_label_1
_geom_bond_atom_site_label_2
_ccdc_geom_bond_type
C12   O3    A    
C26   H2    S    
Cu1   Cu2   S    
C19   H8    S    
Cu2   O8    S    
C18   O10   S    
C2    C16   S    
C18   H5    S    
C9    H20   S    
C14   C17   A    
C13   C17   A    
C3    C5    A    
C2    O9    A    
C26   N1    D    
H3    N2    S    
C13   C15   A    
C20   H11   S    
C26   C27   S    
C27   H24   S    
H4    N1    S    
C6    H19   S    
C1    O1    A    
C2    O7    A    
C12   O5    A    
C9    C11   A    
C12   C23   S    
C23   H22   S    
C3    C14   A    
C19   H9    S    
C4    C15   A    
Cu1   O9    S    
C10   H21   S    
C28   O8    A    
C22   C24   D    
C4    C6    A    
Cu1   N2    S    
C18   H7    S    
Cu1   O1    S    
C22   H23   S    
C21   H15   S    
C23   C25   D    
C19   O2    S    
C5    H18   S    
Cu1   O5    S    
C7    H12   S    
C3    O10   S    
C19   H10   S    
C21   C24   S    
C15   C16   A    
C7    C9    A    
C1    C22   S    
C20   H13   S    
C24   C25   S    
C20   C25   S    
C8    C10   A    
C21   H16   S    
Cu2   N1    S    
C1    O4    A    
C4    O2    S    
C11   C14   A    
C5    C7    A    
Cu2   O3    S    
Cu1   O6    S    
C6    C8    A    
C20   H14   S    
C27   N2    D    
C17   C28   S    
C18   H6    S    
C11   C16   A    
C8    H1    S    
Cu2   O7    S    
Cu2   O4    S    
C21   H17   S    
C10   C13   A    
C28   O6    A    
