data_mof_unit_43889.cif
_audit_creation_date              2012-12-10T16:50:55-0500
_audit_creation_method            fapswitch 2.2
_symmetry_space_group_name_H-M    P1
_symmetry_Int_Tables_number       1
_space_group_crystal_system       triclinic
_cell_length_a                    7.896087
_cell_length_b                    8.665881
_cell_length_c                    10.586802
_cell_angle_alpha                 93.828674
_cell_angle_beta                  84.085829
_cell_angle_gamma                 93.662003
_cell_volume                      717.768019262

loop_
_atom_site_label
_atom_site_type_symbol
_atom_type_description
_atom_site_fract_x
_atom_site_fract_y
_atom_site_fract_z
_atom_type_partial_charge
C1    C     C_R   0.544398 0.792377 0.486197 0.910144
C2    C     C_R   0.950084 0.426979 0.008684 -0.137238
C3    C     C_R   0.039958 0.542781 0.078182 -0.080566
C4    C     C_R   0.970072 0.529972 0.910250 -0.151620
C5    C     C_R   0.181416 0.493088 0.128721 -0.139039
C6    C     C_R   0.823641 0.577713 0.864966 -0.165684
C7    C     C_R   0.346063 0.518817 0.068515 0.098793
C8    C     C_R   0.662128 0.542428 0.926754 0.143570
C9    C     C_R   0.364220 0.590861 0.953352 0.063800
C10   C     C_R   0.646756 0.466605 0.039676 -0.011187
C11   C     C_R   0.492801 0.473941 0.119178 -0.238426
C12   C     C_R   0.455493 0.205886 0.492074 0.907375
C13   C     C_R   0.514616 0.573390 0.873921 -0.182801
C14   C     C_2   0.273217 0.825398 0.853050 0.964540
C15   C     C_2   0.763918 0.241302 0.137953 0.968214
C16   C     C_2   0.740767 0.995700 0.396061 1.046698
C17   C     C_2   0.251161 0.981529 0.468344 0.975014
C18   C     C_2   0.567607 0.950944 0.455937 -0.293098
C19   C     C_2   0.431381 0.042203 0.470055 -0.268559
C20   C     C_R   0.504985 0.530011 0.738421 0.896886
C21   C     C_R   0.497382 0.485101 0.258082 0.888405
C22   C     C_R   0.232372 0.680970 0.923673 -0.136432
C23   C     C_R   0.785452 0.382348 0.064092 -0.133543
C24   C     C_R   0.064732 0.644535 0.978534 -0.208254
H1    H     H_    0.044827 0.483206 0.825447 0.200206
H2    H     H_    0.530730 0.171969 0.083066 0.315165
H3    H     H_    0.965705 0.114390 0.407833 0.358362
H4    H     H_    0.029323 0.932476 0.573213 0.351001
H5    H     H_    0.961270 0.590969 0.160644 0.207408
H6    H     H_    0.998973 0.750866 0.002820 0.197104
H7    H     H_    0.020504 0.322873 0.984040 0.189954
H8    H     H_    0.156349 0.412008 0.202541 0.172926
H9    H     H_    0.837499 0.650086 0.784821 0.132672
H10   H     H_    0.012266 0.378745 0.404570 0.200396
H11   H     H_    0.989411 0.625386 0.592221 0.167960
H12   H     H_    0.028700 0.859358 0.819905 0.295480
N1    N     N_2   0.950330 0.457950 0.466250 -0.144779
N2    N     N_2   0.049670 0.542050 0.533750 -0.170354
O1    O     O_R   0.389250 0.738570 0.508280 -0.594544
O2    O     O_R   0.146678 0.911961 0.814078 -0.729715
O3    O     O_2   0.883056 0.205253 0.192238 -0.610508
O4    O     O_R   0.613800 0.145888 0.144056 -0.765818
O5    O     O_2   0.789694 0.932146 0.293309 -0.549028
O6    O     O_R   0.853797 0.093561 0.461210 -0.762669
O7    O     O_2   0.204881 0.910109 0.373085 -0.597237
O8    O     O_R   0.138169 0.000299 0.577738 -0.718100
O9    O     O_R   0.610750 0.261430 0.491720 -0.558196
O10   O     O_R   0.678390 0.711630 0.486650 -0.633272
O11   O     O_R   0.321610 0.288370 0.513350 -0.604346
O12   O     O_R   0.355430 0.513480 0.694040 -0.624750
O13   O     O_R   0.644570 0.486520 0.305960 -0.620637
O14   O     O_R   0.644570 0.486540 0.672410 -0.609809
O15   O     O_R   0.355430 0.513460 0.327590 -0.623105
O16   O     O_2   0.421303 0.874550 0.832688 -0.593741
Zn1   Zn    Zn3+2 0.306940 0.517990 0.514440 0.994423
Zn2   Zn    Zn3+2 0.693060 0.482010 0.485560 1.010562

loop_
_geom_bond_atom_site_label_1
_geom_bond_atom_site_label_2
_ccdc_geom_bond_type
C2    C4    A    
C1    O10   A    
C8    C13   A    
C10   C23   A    
H10   N1    S    
C5    C7    A    
C16   O6    S    
C7    C11   A    
O12   Zn1   S    
C6    H9    S    
H12   O2    S    
C5    H8    S    
C7    C9    A    
C14   C22   S    
C15   C23   S    
C12   O11   A    
C3    C24   A    
C20   O14   A    
C21   O15   A    
C16   O5    D    
H4    O8    S    
C1    C18   S    
N1    N2    D    
C12   O9    A    
C6    C8    A    
C12   C19   S    
C8    C10   A    
C17   C19   S    
C17   O7    D    
C2    C3    A    
C22   C24   A    
O15   Zn1   S    
H2    O4    S    
C4    C24   A    
C24   H6    S    
C9    C22   A    
C4    C6    A    
C10   C11   A    
C1    O1    A    
C14   O2    S    
C4    H1    S    
C21   O13   A    
C3    H5    S    
C17   O8    S    
C15   O3    D    
C16   C18   S    
C18   C19   D    
C2    C23   A    
O10   Zn2   S    
C9    C13   A    
H11   N2    S    
O9    Zn2   S    
C20   O12   A    
C13   C20   S    
C14   O16   D    
O11   Zn1   S    
N1    Zn2   S    
H3    O6    S    
C11   C21   S    
O1    Zn1   S    
N2    Zn1   S    
O14   Zn2   S    
C15   O4    S    
C2    H7    S    
C3    C5    A    
O13   Zn2   S    
