data_mof_unit_68423.cif
_audit_creation_date              2012-12-10T20:28:41-0500
_audit_creation_method            fapswitch 2.2
_symmetry_space_group_name_H-M    P1
_symmetry_Int_Tables_number       1
_space_group_crystal_system       triclinic
_cell_length_a                    10.884428
_cell_length_b                    10.839921
_cell_length_c                    9.998275
_cell_angle_alpha                 90.63285
_cell_angle_beta                  93.416798
_cell_angle_gamma                 99.18605
_cell_volume                      1162.20781701

loop_
_atom_site_label
_atom_site_type_symbol
_atom_type_description
_atom_site_fract_x
_atom_site_fract_y
_atom_site_fract_z
_atom_type_partial_charge
C1    C     C_R   0.489851 0.259649 0.499050 0.880432
C2    C     C_R   0.087690 0.587172 0.589033 0.048628
C3    C     C_R   0.130835 0.513940 0.492174 -0.161806
C4    C     C_R   0.047891 0.444736 0.396736 0.123353
C5    C     C_R   0.920786 0.422010 0.418094 0.140013
C6    C     C_R   0.874375 0.499025 0.509597 -0.196287
C7    C     C_R   0.453735 0.059178 0.616239 -0.051011
C8    C     C_R   0.462094 0.125499 0.497285 -0.152925
C9    C     C_R   0.449841 0.058119 0.374793 -0.339738
C10   C     C_R   0.448755 0.928015 0.372563 0.544097
C11   C     C_R   0.476455 0.869671 0.494795 -0.207535
C12   C     C_R   0.261068 0.502531 0.496637 0.882586
C13   C     C_R   0.476275 0.938329 0.612883 -0.122252
C14   C     C_3   0.558472 0.956577 0.739560 0.380682
C15   C     C_3   0.512600 0.079806 0.757576 0.024228
C16   C     C_R   0.397043 0.445046 0.062947 -0.012170
C17   C     C_R   0.599401 0.558739 0.079165 0.428953
C18   C     C_R   0.599246 0.557127 0.936136 0.421033
C19   C     C_R   0.397113 0.447327 0.920866 0.034335
C20   C     C_3   0.339243 0.315310 0.901282 0.302865
C21   C     C_3   0.343029 0.307819 0.054258 -0.048827
C22   C     C_R   0.497135 0.740140 0.499465 0.852862
C23   C     C_R   0.740325 0.499959 0.503635 0.937603
C24   C     C_R   0.169578 0.675272 0.673029 -0.157368
C25   C     C_R   0.123200 0.729776 0.781425 -0.272296
C26   C     C_R   0.995190 0.704606 0.794755 0.158184
C27   C     C_R   0.920204 0.673051 0.675726 0.296685
C28   C     C_R   0.958196 0.581248 0.595753 -0.018909
H1    H     H_    0.439971 0.072209 0.832153 0.062095
H2    H     H_    0.403858 0.262760 0.853004 0.102812
H3    H     H_    0.409657 0.248826 0.097437 0.105798
H4    H     H_    0.268567 0.696709 0.662104 0.172675
H5    H     H_    0.186656 0.771256 0.863156 0.131861
H6    H     H_    0.450806 0.106842 0.281020 0.172154
H7    H     H_    0.524329 0.890178 0.817184 0.043677
N1    N     N_R   0.499160 0.499140 0.142800 -0.174021
N2    N     N_R   0.499160 0.499180 0.857150 -0.191888
O1    O     O_R   0.500020 0.316790 0.614690 -0.617895
O2    O     O_R   0.500000 0.316760 0.385350 -0.624824
O3    O     O_R   0.316770 0.500020 0.614690 -0.599389
O4    O     O_R   0.316760 0.499980 0.385350 -0.577690
O5    O     O_R   0.500000 0.683240 0.614650 -0.646855
O6    O     O_R   0.499980 0.683210 0.385310 -0.569972
O7    O     O_R   0.683240 0.500020 0.614650 -0.592751
O8    O     O_R   0.683230 0.499980 0.385310 -0.555537
Zn1   Zn    Zn3+2 0.500010 0.500020 0.653130 0.979215
Zn2   Zn    Zn3+2 0.499990 0.499980 0.346870 0.996939
N3    N     N_2   0.087613 0.427315 0.266707 -0.263815
H8    H     H_    0.029908 0.359182 0.210733 0.235532
C29   C     C_3   0.110666 0.544186 0.195868 -0.757737
H9    H     H_    0.145478 0.528710 0.096376 0.235903
H10   H     H_    0.182294 0.614012 0.250308 0.262757
H11   H     H_    0.023719 0.585360 0.186377 0.233657
O9    O     O_3   0.690918 0.973738 0.728916 -0.631969
C30   C     C_3   0.733390 0.008715 0.601018 -0.342264
H12   H     H_    0.691143 0.084824 0.554249 0.169244
H13   H     H_    0.717039 0.927026 0.531437 0.181594
H14   H     H_    0.834970 0.043785 0.612482 0.179000
N4    N     N_2   0.610196 0.187591 0.783973 -0.233289
H15   H     H_    0.673653 0.212746 0.713111 0.264356
C31   C     C_3   0.663117 0.202673 0.920220 -0.789411
H16   H     H_    0.726438 0.133413 0.940783 0.267426
H17   H     H_    0.588668 0.190723 0.992336 0.208332
H18   H     H_    0.716933 0.298237 0.934829 0.235049
O10   O     O_3   0.707817 0.608479 0.152699 -0.593363
C32   C     C_3   0.704581 0.733197 0.192603 -0.213104
H19   H     H_    0.719284 0.741837 0.303080 0.195633
H20   H     H_    0.616825 0.768706 0.162242 0.182660
H21   H     H_    0.783305 0.794958 0.150014 0.140142
O11   O     O_3   0.703815 0.611375 0.877151 -0.582286
C33   C     C_3   0.700734 0.739775 0.866571 -0.156257
H22   H     H_    0.793622 0.793815 0.895765 0.172334
H23   H     H_    0.634768 0.777151 0.930964 0.088891
H24   H     H_    0.678326 0.756737 0.760683 0.231309
O12   O     O_3   0.218649 0.308015 0.837104 -0.586427
C34   C     C_3   0.191050 0.199750 0.754614 -0.293554
H25   H     H_    0.092171 0.189485 0.716032 0.182723
H26   H     H_    0.203119 0.114168 0.811078 0.139447
H27   H     H_    0.249762 0.208600 0.666942 0.173019
N5    N     N_2   0.220584 0.281408 0.107060 -0.225578
H28   H     H_    0.152517 0.319962 0.054371 0.279011
C35   C     C_3   0.179291 0.152849 0.140870 -0.819053
H29   H     H_    0.240085 0.125681 0.224500 0.245968
H30   H     H_    0.179965 0.090186 0.052427 0.230781
H31   H     H_    0.082842 0.142168 0.174592 0.226437
N6    N     N_2   0.955102 0.650721 0.916339 -0.267304
H32   H     H_    0.005722 0.692167 0.999799 0.208848
C36   C     C_3   0.938404 0.514874 0.914851 -0.653597
H33   H     H_    0.902876 0.479233 0.010446 0.229833
H34   H     H_    0.027875 0.481724 0.898463 0.234366
H35   H     H_    0.868758 0.474373 0.834164 0.262107
N7    N     N_2   0.873790 0.772894 0.608077 -0.328486
H36   H     H_    0.866771 0.844540 0.673770 0.245531
C37   C     C_3   0.939079 0.820188 0.491347 -0.884687
H37   H     H_    0.931582 0.746713 0.411736 0.263654
H38   H     H_    0.038956 0.854622 0.520193 0.254965
H39   H     H_    0.898149 0.898877 0.447471 0.222857
N8    N     N_2   0.843835 0.311798 0.363328 -0.322863
H40   H     H_    0.881653 0.231275 0.378565 0.203683
C38   C     C_3   0.786074 0.317776 0.229980 -0.750237
H41   H     H_    0.684710 0.282952 0.231399 0.265478
H42   H     H_    0.826336 0.257501 0.159550 0.198073
H43   H     H_    0.799764 0.414382 0.192991 0.290754
O13   O     O_3   0.441135 0.862057 0.251752 -0.606687
C39   C     C_3   0.334927 0.880310 0.171146 -0.393809
H44   H     H_    0.355474 0.966938 0.112831 0.166436
H45   H     H_    0.251397 0.881594 0.230185 0.166891
H46   H     H_    0.311842 0.801145 0.097931 0.189287

loop_
_geom_bond_atom_site_label_1
_geom_bond_atom_site_label_2
_ccdc_geom_bond_type
C18   O11   S    
C32   H20   S    
C30   H12   S    
C16   C21   S    
C23   O8    A    
C1    C8    S    
C19   C20   S    
C34   H27   S    
C7    C8    A    
C20   H2    S    
O3    Zn1   S    
C39   H45   S    
C26   C27   A    
C18   N2    A    
C34   H26   S    
C5    C6    A    
N6    C36   S    
C5    N8    S    
C32   H21   S    
N8    H40   S    
N1    Zn2   S    
O5    Zn1   S    
C31   H17   S    
N7    H36   S    
C3    C12   S    
C19   N2    A    
C6    C28   A    
C8    C9    A    
C29   H10   S    
O11   C33   S    
C17   N1    A    
C9    C10   A    
C36   H33   S    
N3    C29   S    
C32   H19   S    
N4    H15   S    
C13   C14   S    
C37   H37   S    
C38   H42   S    
O13   C39   S    
O7    Zn1   S    
C15   H1    S    
O8    Zn2   S    
C39   H46   S    
N4    C31   S    
C29   H11   S    
C24   C25   A    
N5    C35   S    
C14   H7    S    
C33   H23   S    
N6    H32   S    
N5    H28   S    
C37   H39   S    
C29   H9    S    
C25   C26   A    
C38   H43   S    
C23   O7    A    
C20   O12   S    
C12   O3    A    
C31   H18   S    
O12   C34   S    
C24   H4    S    
C12   O4    A    
C21   H3    S    
C22   O6    A    
C36   H35   S    
C26   N6    S    
N7    C37   S    
C17   C18   A    
O4    Zn2   S    
C27   N7    S    
C34   H25   S    
C37   H38   S    
C1    O1    A    
N3    H8    S    
C14   O9    S    
C36   H34   S    
O10   C32   S    
C35   H30   S    
C30   H13   S    
C2    C24   A    
C9    H6    S    
C3    C4    A    
O2    Zn2   S    
C4    N3    S    
O9    C30   S    
C15   N4    S    
C4    C5    A    
C33   H24   S    
C35   H31   S    
C39   H44   S    
C11   C22   S    
C17   O10   S    
C10   O13   S    
C2    C3    A    
C33   H22   S    
C16   N1    A    
C11   C13   A    
C22   O5    A    
C16   C19   A    
C6    C23   S    
C21   N5    S    
C7    C15   S    
C38   H41   S    
C31   H16   S    
N8    C38   S    
O1    Zn1   S    
C10   C11   A    
C1    O2    A    
C7    C13   A    
C20   C21   S    
C35   H29   S    
C30   H14   S    
C27   C28   A    
C14   C15   S    
C2    C28   A    
N2    Zn1   S    
O6    Zn2   S    
C25   H5    S    
