data_mof_unit_12542.cif
_audit_creation_date              2012-10-26T19:20:35-0400
_audit_creation_method            fapswitch 2.2
_symmetry_space_group_name_H-M    P1
_symmetry_Int_Tables_number       1
_space_group_crystal_system       triclinic
_cell_length_a                    10.772694
_cell_length_b                    11.023745
_cell_length_c                    9.835747
_cell_angle_alpha                 111.039257
_cell_angle_beta                  97.933485
_cell_angle_gamma                 91.24715
_cell_volume                      1076.52780205

loop_
_atom_site_label
_atom_site_type_symbol
_atom_type_description
_atom_site_fract_x
_atom_site_fract_y
_atom_site_fract_z
_atom_type_partial_charge
C1    C     C_R   0.490690 0.254164 0.440716 0.534926
C2    C     C_R   0.736902 0.500500 0.498677 0.529504
C3    C     C_R   0.144728 0.739610 0.575616 -0.099222
C4    C     C_R   0.855272 0.260391 0.424384 -0.099222
C5    C     C_R   0.087135 0.856890 0.608603 0.000979
C6    C     C_R   0.912866 0.143110 0.391399 0.000979
C7    C     C_R   0.957335 0.856493 0.604255 -0.105360
C8    C     C_R   0.042665 0.143507 0.395747 -0.105360
C9    C     C_R   0.885156 0.739367 0.566906 -0.098792
C10   C     C_R   0.114844 0.260633 0.433095 -0.098792
C11   C     C_R   0.941872 0.619479 0.533546 0.003343
C12   C     C_R   0.509309 0.745836 0.559284 0.534926
C13   C     C_R   0.058128 0.380520 0.466455 0.003343
C14   C     C_R   0.073024 0.619600 0.537885 -0.003806
C15   C     C_R   0.926976 0.380400 0.462115 -0.003806
C16   C     C_R   0.870363 0.499911 0.495909 -0.005507
C17   C     C_R   0.129637 0.500089 0.504091 -0.005507
C18   C     C_1   0.161814 0.977933 0.647555 0.181038
C19   C     C_1   0.838186 0.022068 0.352448 0.181038
C20   C     C_2   0.485888 0.114788 0.407326 -0.128377
C21   C     C_2   0.514112 0.885212 0.592674 -0.128377
C22   C     C_2   0.502162 0.069571 0.516554 -0.135859
C23   C     C_2   0.497838 0.930429 0.483446 -0.135859
C24   C     C_2   0.510689 0.510711 0.081153 -0.015963
C25   C     C_2   0.489311 0.489289 0.918847 -0.015963
C26   C     C_R   0.263098 0.499500 0.501323 0.529504
Cu1   Cu    Cu3+1 0.521920 0.521810 0.644910 0.947401
Cu2   Cu    Cu3+1 0.478080 0.478190 0.355090 0.947401
H1    H     H_    0.088357 0.053100 0.370281 0.131203
H2    H     H_    0.469239 0.048682 0.292710 0.115300
H3    H     H_    0.416357 0.416520 0.846213 0.159630
H4    H     H_    0.583642 0.583480 0.153787 0.159630
H5    H     H_    0.623483 0.623101 0.934145 0.216498
H6    H     H_    0.376517 0.376899 0.065855 0.216498
H7    H     H_    0.911643 0.946900 0.629722 0.131203
H8    H     H_    0.245722 0.743360 0.580241 0.126267
H9    H     H_    0.754278 0.256640 0.419759 0.126267
H10   H     H_    0.784699 0.743881 0.564269 0.129155
H11   H     H_    0.215301 0.256120 0.435732 0.129155
H12   H     H_    0.481217 0.864630 0.368627 0.165890
H13   H     H_    0.518783 0.135370 0.631373 0.165890
H14   H     H_    0.530761 0.951318 0.707289 0.115300
N1    N     N_2   0.445130 0.445420 0.137360 -0.349002
N2    N     N_2   0.554870 0.554580 0.862640 -0.349002
N3    N     N_1   0.221920 0.075117 0.678929 -0.325892
N4    N     N_1   0.778080 0.924884 0.321074 -0.325892
O1    O     O_R   0.511700 0.332340 0.577400 -0.497448
O2    O     O_R   0.488300 0.667660 0.422600 -0.497448
O3    O     O_R   0.474680 0.295500 0.332650 -0.491432
O4    O     O_R   0.525320 0.704500 0.667350 -0.491432
O5    O     O_R   0.338170 0.518410 0.622370 -0.496159
O6    O     O_R   0.661830 0.481590 0.377630 -0.496159
O7    O     O_R   0.301150 0.481570 0.377630 -0.488316
O8    O     O_R   0.698850 0.518430 0.622370 -0.488316

loop_
_geom_bond_atom_site_label_1
_geom_bond_atom_site_label_2
_ccdc_geom_bond_type
C25   H3    S    
C12   O4    A    
Cu2   O7    S    
C24   H4    S    
C2    C16   S    
Cu2   O3    S    
Cu2   N1    S    
Cu1   O4    S    
C13   C17   A    
C12   O2    A    
C4    C15   A    
C21   C23   D    
Cu1   O8    S    
C20   H2    S    
C26   O5    A    
C24   C25   S    
C6    C19   S    
Cu2   O6    S    
C14   C17   A    
C3    C14   A    
C2    O6    A    
C3    H8    S    
C17   C26   S    
C12   C21   S    
C25   N2    D    
C4    C6    A    
C9    H10   S    
Cu1   O5    S    
C9    C11   A    
C13   C15   A    
C2    O8    A    
C11   C14   A    
C19   N4    T    
C22   H13   S    
C15   C16   A    
C8    H1    S    
C21   H14   S    
C18   N3    T    
C7    C9    A    
C26   O7    A    
C4    H9    S    
C8    C10   A    
C11   C16   A    
Cu1   O1    S    
Cu1   Cu2   S    
C5    C7    A    
C24   N1    D    
C22   C23   S    
C1    O1    A    
C1    C20   S    
C6    C8    A    
C5    C18   S    
H5    N2    S    
C7    H7    S    
Cu1   N2    S    
Cu2   O2    S    
H6    N1    S    
C23   H12   S    
C20   C22   D    
C10   H11   S    
C3    C5    A    
C10   C13   A    
C1    O3    A    
