data_mof_unit_64915.cif
_audit_creation_date              2012-12-10T19:06:12-0500
_audit_creation_method            fapswitch 2.2
_symmetry_space_group_name_H-M    P1
_symmetry_Int_Tables_number       1
_space_group_crystal_system       triclinic
_cell_length_a                    13.060435
_cell_length_b                    13.639105
_cell_length_c                    15.730694
_cell_angle_alpha                 90.034352
_cell_angle_beta                  92.553627
_cell_angle_gamma                 85.702393
_cell_volume                      2791.48583069

loop_
_atom_site_label
_atom_site_type_symbol
_atom_type_description
_atom_site_fract_x
_atom_site_fract_y
_atom_site_fract_z
_atom_type_partial_charge
C1    C     C_R   0.481196 0.685096 0.499094 0.900658
C2    C     C_1   0.145316 0.480435 0.482727 0.166099
C3    C     C_R   0.499283 0.499995 0.662393 0.902945
C4    C     C_R   0.500717 0.500005 0.337607 0.902945
C5    C     C_3   0.440007 0.577376 0.026487 -0.159367
C6    C     C_3   0.559993 0.422624 0.973513 -0.159367
C7    C     C_3   0.535611 0.583839 0.972736 -0.158747
C8    C     C_3   0.464388 0.416161 0.027264 -0.158747
C9    C     C_1   0.497816 0.499910 0.751277 -0.167496
C10   C     C_1   0.502184 0.500090 0.248723 -0.167496
C11   C     C_3   0.402985 0.493470 0.969403 -0.158084
C12   C     C_R   0.518804 0.314904 0.500906 0.900658
C13   C     C_3   0.597015 0.506530 0.030597 -0.158084
C14   C     C_3   0.498595 0.499934 0.917447 0.196375
C15   C     C_3   0.501405 0.500066 0.082553 0.196375
C16   C     C_1   0.497626 0.499892 0.826567 -0.067125
C17   C     C_1   0.502374 0.500108 0.173432 -0.067125
C18   C     C_1   0.533766 0.211857 0.501640 -0.161378
C19   C     C_1   0.466234 0.788143 0.498360 -0.161378
C20   C     C_2   0.544489 0.020843 0.502165 0.474528
C21   C     C_2   0.455511 0.979157 0.497835 0.474528
C22   C     C_1   0.457426 0.875474 0.497929 0.024459
C23   C     C_1   0.542573 0.124525 0.502071 0.024459
C24   C     C_2   0.033311 0.472946 0.476066 -0.232857
C25   C     C_2   0.966689 0.527054 0.523934 -0.232858
C26   C     C_1   0.854684 0.519565 0.517272 0.166099
F1    F     F_    0.363620 0.033506 0.493365 -0.661610
F2    F     F_    0.636380 0.966494 0.506635 -0.661610
H1    H     H_    0.564627 0.652384 0.948249 0.144961
H2    H     H_    0.435373 0.347616 0.051751 0.144961
H3    H     H_    0.391056 0.640647 0.050338 0.144693
H4    H     H_    0.608944 0.359353 0.949662 0.144693
H5    H     H_    0.676310 0.511865 0.057782 0.144424
H6    H     H_    0.323690 0.488135 0.942218 0.144424
H7    H     H_    0.996190 0.578739 0.569696 0.172227
H8    H     H_    0.003810 0.421261 0.430304 0.172227
N1    N     N_1   0.234530 0.484780 0.486590 -0.087215
N2    N     N_1   0.765470 0.515220 0.513410 -0.087215
O1    O     O_R   0.402510 0.634760 0.495090 -0.609784
O2    O     O_R   0.597490 0.365240 0.504910 -0.609784
O3    O     O_R   0.572960 0.644530 0.503700 -0.590523
O4    O     O_R   0.427040 0.355470 0.496300 -0.590523
O5    O     O_R   0.414790 0.495120 0.618920 -0.609312
O6    O     O_R   0.585210 0.504880 0.381080 -0.609312
O7    O     O_R   0.585240 0.504900 0.627530 -0.608304
O8    O     O_R   0.414760 0.495100 0.372470 -0.608304
Zn1   Zn    Zn3+2 0.386190 0.493480 0.494250 1.000434
Zn2   Zn    Zn3+2 0.613810 0.506520 0.505750 1.000434

loop_
_geom_bond_atom_site_label_1
_geom_bond_atom_site_label_2
_ccdc_geom_bond_type
C12   O2    A    
C6    H4    S    
C13   H5    S    
C3    C9    S    
N1    Zn1   S    
C4    O6    A    
N2    Zn2   S    
C20   C23   S    
C8    H2    S    
C21   F1    S    
C6    C14   S    
C4    O8    A    
C21   C22   S    
C20   C21   D    
C6    C13   S    
C2    N1    T    
C3    O5    A    
C24   H8    S    
C12   O4    A    
C25   H7    S    
C8    C11   S    
C7    H1    S    
C1    O3    A    
O3    Zn2   S    
C3    O7    A    
C5    C11   S    
C8    C15   S    
O4    Zn1   S    
C13   C15   S    
C2    C24   S    
C11   C14   S    
C14   C16   S    
C5    C15   S    
C1    C19   S    
C1    O1    A    
C10   C17   T    
C4    C10   S    
C18   C23   T    
C7    C13   S    
C19   C22   T    
C24   C25   D    
O1    Zn1   S    
O7    Zn2   S    
C12   C18   S    
C5    C7    S    
O2    Zn2   S    
O8    Zn1   S    
C26   N2    T    
C6    C8    S    
C20   F2    S    
C25   C26   S    
C15   C17   S    
O5    Zn1   S    
C9    C16   T    
C11   H6    S    
C7    C14   S    
O6    Zn2   S    
C5    H3    S    
