data_mof_unit_57804.cif
_audit_creation_date              2012-12-10T21:07:45-0500
_audit_creation_method            fapswitch 2.2
_symmetry_space_group_name_H-M    P1
_symmetry_Int_Tables_number       1
_space_group_crystal_system       triclinic
_cell_length_a                    8.57546
_cell_length_b                    17.576044
_cell_length_c                    16.919787
_cell_angle_alpha                 90.130405
_cell_angle_beta                  97.909604
_cell_angle_gamma                 91.483219
_cell_volume                      2525.04362414

loop_
_atom_site_label
_atom_site_type_symbol
_atom_type_description
_atom_site_fract_x
_atom_site_fract_y
_atom_site_fract_z
_atom_type_partial_charge
C1    C     C_R   0.498035 0.353394 0.499747 0.932488
C2    C     C_R   0.502169 0.646609 0.500268 0.932867
C3    C     C_1   0.516752 0.966818 0.502166 0.030503
C4    C     C_1   0.492309 0.033139 0.498727 0.029777
C5    C     C_R   0.381713 0.460453 0.824886 -0.143910
C6    C     C_R   0.618179 0.539582 0.175094 -0.143907
C7    C     C_R   0.384783 0.460193 0.740453 0.050447
C8    C     C_R   0.615193 0.539812 0.259534 0.050571
C9    C     C_R   0.610087 0.542944 0.756120 0.055197
C10   C     C_R   0.389920 0.457041 0.243892 0.055022
C11   C     C_R   0.608493 0.547153 0.840270 -0.108572
C12   C     C_R   0.391426 0.452866 0.159733 -0.108660
C13   C     C_R   0.494635 0.504263 0.875585 0.002439
C14   C     C_R   0.505232 0.495780 0.124403 0.002557
C15   C     C_1   0.498479 0.501413 0.963641 0.053187
C16   C     C_1   0.501355 0.498637 0.036346 0.053258
C17   C     C_R   0.201753 0.496607 0.480090 0.943262
C18   C     C_R   0.798246 0.503399 0.519910 0.942993
C19   C     C_2   0.039707 0.480456 0.474952 -0.189221
C20   C     C_2   0.960290 0.519556 0.525049 -0.189081
C21   C     C_R   0.511787 0.847650 0.575167 -0.072821
C22   C     C_R   0.495062 0.152323 0.425530 -0.072900
C23   C     C_R   0.497235 0.768593 0.571973 -0.062553
C24   C     C_R   0.506615 0.231460 0.428396 -0.061712
C25   C     C_R   0.514047 0.729227 0.501849 -0.068691
C26   C     C_R   0.488023 0.270752 0.498311 -0.067952
C27   C     C_R   0.550916 0.768629 0.434900 -0.278376
C28   C     C_R   0.452245 0.231173 0.565355 -0.278383
C29   C     C_R   0.567659 0.847527 0.436618 0.033695
C30   C     C_R   0.438366 0.152182 0.563955 0.033799
C31   C     C_R   0.540180 0.887131 0.505891 0.032213
C32   C     C_R   0.467649 0.112725 0.494902 0.031987
H1    H     H_    0.569412 0.737856 0.381525 0.151645
H2    H     H_    0.432439 0.261864 0.618564 0.151631
N1    N     N_R   0.500040 0.500030 0.707230 -0.158642
N2    N     N_R   0.499960 0.499970 0.292770 -0.158568
O1    O     O_R   0.500000 0.389130 0.566570 -0.659825
O2    O     O_R   0.500000 0.610870 0.433430 -0.659675
O3    O     O_R   0.499990 0.389100 0.433480 -0.574426
O4    O     O_R   0.500010 0.610900 0.566520 -0.574572
O5    O     O_R   0.271750 0.500010 0.550980 -0.612178
O6    O     O_R   0.728250 0.499990 0.449020 -0.612432
O7    O     O_R   0.271740 0.499980 0.417890 -0.636506
O8    O     O_R   0.728260 0.500020 0.582110 -0.636619
Zn1   Zn    Zn3+2 0.500010 0.500020 0.588860 0.993780
Zn2   Zn    Zn3+2 0.499990 0.499980 0.411140 0.993830
C33   C     C_2   0.984692 0.407034 0.433788 0.412115
H3    H     H_    0.045024 0.385722 0.386560 0.092065
O9    O     O_2   0.879773 0.367202 0.455366 -0.546088
C34   C     C_2   0.015293 0.592979 0.566216 0.411959
H4    H     H_    0.954883 0.614312 0.613406 0.092090
O10   O     O_2   0.120291 0.632789 0.544682 -0.545780
C35   C     C_2   0.498791 0.888083 0.651147 0.522521
H5    H     H_    0.534462 0.947541 0.658619 0.100475
O11   O     O_2   0.450502 0.855136 0.706828 -0.509153
C36   C     C_2   0.510067 0.111938 0.349770 0.520087
H6    H     H_    0.476551 0.052221 0.342450 0.101280
O12   O     O_2   0.557633 0.145205 0.294086 -0.509478
H7    H     H_    0.472234 0.737647 0.624285 0.231948
H8    H     H_    0.530808 0.262530 0.376013 0.231649
C37   C     C_2   0.615339 0.885627 0.365189 0.414430
H9    H     H_    0.597512 0.856373 0.307943 0.095072
O13   O     O_2   0.681949 0.947999 0.369986 -0.554417
C38   C     C_2   0.391630 0.113852 0.635472 0.414785
H10   H     H_    0.408321 0.143314 0.692603 0.094892
O14   O     O_2   0.326989 0.051019 0.630871 -0.554746
C39   C     C_2   0.262156 0.414481 0.861292 0.533259
H11   H     H_    0.214150 0.436424 0.912571 0.082901
O15   O     O_2   0.220080 0.351002 0.836136 -0.515106
C40   C     C_2   0.737676 0.585581 0.138675 0.533505
H12   H     H_    0.785672 0.563655 0.087386 0.082845
O16   O     O_2   0.779713 0.649063 0.163835 -0.515029
C41   C     C_2   0.258424 0.419209 0.687628 0.541993
H13   H     H_    0.285974 0.380697 0.642123 0.069329
O17   O     O_2   0.120236 0.429231 0.693877 -0.579428
C42   C     C_2   0.741650 0.580741 0.312352 0.541583
H14   H     H_    0.714214 0.619153 0.357968 0.069344
O18   O     O_2   0.879804 0.570763 0.305991 -0.579373
C43   C     C_2   0.731658 0.586336 0.721108 0.432050
H15   H     H_    0.843235 0.560240 0.716653 0.056414
O19   O     O_2   0.711722 0.652625 0.702029 -0.565896
C44   C     C_2   0.268512 0.413557 0.278933 0.432659
H16   H     H_    0.156739 0.439513 0.283253 0.055922
O20   O     O_2   0.288824 0.347334 0.298184 -0.565383
C45   C     C_2   0.727051 0.596953 0.889967 0.448540
H17   H     H_    0.842749 0.607214 0.872420 0.062898
O21   O     O_2   0.694854 0.629522 0.949172 -0.538333
C46   C     C_2   0.272852 0.403065 0.110047 0.448206
H18   H     H_    0.157201 0.392764 0.127635 0.062826
O22   O     O_2   0.304983 0.370540 0.050802 -0.538397

loop_
_geom_bond_atom_site_label_1
_geom_bond_atom_site_label_2
_ccdc_geom_bond_type
C30   C32   A    
C30   C38   S    
C27   C29   A    
C41   H13   S    
C46   O22   D    
C19   C20   D    
C5    C39   S    
C7    C41   S    
C35   H5    S    
C27   H1    S    
C23   H7    S    
C21   C31   A    
C22   C32   A    
C24   C26   A    
C18   O6    A    
O6    Zn2   S    
C19   C33   S    
C15   C16   T    
C8    C42   S    
C36   H6    S    
C18   C20   S    
C9    C43   S    
C37   O13   D    
C20   C34   S    
C34   O10   D    
N2    Zn2   S    
C40   H12   S    
C5    C13   A    
C1    O1    A    
C45   O21   D    
C28   H2    S    
C41   O17   D    
C35   O11   D    
C21   C23   A    
O4    Zn1   S    
C29   C37   S    
C40   O16   D    
C12   C46   S    
C39   H11   S    
C42   H14   S    
C33   O9    D    
C5    C7    A    
C22   C36   S    
C45   H17   S    
C10   C44   S    
C39   O15   D    
C38   O14   D    
C17   O7    A    
C18   O8    A    
C6    C14   A    
C2    O2    A    
C33   H3    S    
C24   H8    S    
C34   H4    S    
C3    C31   S    
C9    C11   A    
C4    C32   S    
C10   C12   A    
O3    Zn2   S    
C12   C14   A    
C44   O20   D    
C13   C15   S    
C1    C26   S    
C14   C16   S    
O1    Zn1   S    
C3    C4    T    
N1    Zn1   S    
O8    Zn1   S    
C43   O19   D    
C6    C40   S    
C7    N1    A    
C42   O18   D    
C6    C8    A    
C8    N2    A    
C25   C27   A    
C26   C28   A    
C38   H10   S    
C28   C30   A    
C29   C31   A    
C21   C35   S    
C11   C13   A    
C11   C45   S    
C17   C19   S    
C36   O12   D    
C2    C25   S    
C22   C24   A    
C23   C25   A    
C37   H9    S    
O7    Zn2   S    
C17   O5    A    
O2    Zn2   S    
C1    O3    A    
C43   H15   S    
C2    O4    A    
C46   H18   S    
C44   H16   S    
C9    N1    A    
O5    Zn1   S    
C10   N2    A    
