data_mof_unit_9368.cif
_audit_creation_date              2013-03-05T16:04:54-0500
_audit_creation_method            fapswitch 2.2
_symmetry_space_group_name_H-M    P1
_symmetry_Int_Tables_number       1
_space_group_crystal_system       triclinic
_cell_length_a                    8.356
_cell_length_b                    14.592777
_cell_length_c                    18.954968
_cell_angle_alpha                 97.373783
_cell_angle_beta                  91.348949
_cell_angle_gamma                 92.604353
_cell_volume                      2288.82773901

loop_
_atom_site_label
_atom_site_type_symbol
_atom_site_description
_atom_site_fract_x
_atom_site_fract_y
_atom_site_fract_z
_atom_type_partial_charge
P1    P     P_3+3 0.061800 0.409390 0.339760 0.504902
O1    O     O_2   0.887710 0.436190 0.327560 -0.367677
O2    O     O_3   0.135370 0.443490 0.416520 -0.368841
O3    O     O_3   0.634420 0.609440 0.364670 -0.325184
O4    O     O_2   0.721514 0.521041 0.243558 -0.351444
O5    O     O_3   0.010347 0.291945 0.311433 -0.637640
O6    O     O_3   0.693547 0.696948 0.238385 -0.508506
C1    C     C_3   0.623227 0.839474 0.189404 -0.389987
P2    P     P_3+3 0.622760 0.718740 0.547830 0.483303
P3    P     P_3+3 0.072804 0.779254 0.400202 0.551007
O7    O     O_2   0.795290 0.730930 0.525800 -0.368992
O8    O     O_3   0.044470 0.660110 0.398750 -0.345819
O9    O     O_2   0.940103 0.825679 0.445222 -0.334304
O10   O     O_3   0.630247 0.751618 0.639892 -0.590171
O11   O     O_3   0.037994 0.811806 0.315172 -0.514469
C2    C     C_3   0.131793 0.762282 0.263533 0.863716
H1    H     H_    0.240803 0.736486 0.287630 -0.087984
C3    C     C_3   0.186449 0.825886 0.209301 -0.889325
H2    H     H_    0.248543 0.786317 0.164943 0.210403
H3    H     H_    0.084162 0.858342 0.185867 0.261688
C4    C     C_3   0.194869 0.746574 0.613183 0.473706
H4    H     H_    0.297759 0.709584 0.590026 0.082460
H5    H     H_    0.093188 0.739893 0.573826 0.087343
C5    C     C_3   0.244765 0.848646 0.632751 -1.011619
H6    H     H_    0.356306 0.856228 0.666393 0.270207
H7    H     H_    0.265048 0.882163 0.584576 0.196698
H8    H     H_    0.149424 0.885714 0.662241 0.298217
Ba1   Ba    Ba6+2 0.843240 0.541620 0.463500 1.637523
C6    C     C_3   0.127947 0.229357 0.319364 0.548997
H9    H     H_    0.247358 0.264691 0.330594 0.038140
C7    C     C_3   0.134365 0.157329 0.249550 0.290145
C8    C     C_3   0.721912 0.693179 0.675447 0.261873
H10   H     H_    0.837133 0.680387 0.649264 0.091543
H11   H     H_    0.653065 0.626109 0.675230 0.067384
C9    C     C_3   0.754026 0.737495 0.753435 0.007374
H12   H     H_    0.765786 0.679697 0.785450 0.047726
P4    P     P_3+3 0.127890 0.590690 0.660240 0.471305
O12   O     O_2   0.301980 0.563840 0.672490 -0.363595
O13   O     O_3   0.054330 0.556590 0.583490 -0.422821
O14   O     O_3   0.555270 0.390630 0.635330 -0.377157
O15   O     O_3   0.148185 0.711487 0.675063 -0.522283
P5    P     P_3+3 0.125122 0.220185 0.602086 0.525836
O16   O     O_3   0.637720 0.384870 0.467990 -0.408479
O17   O     O_3   0.145220 0.339960 0.601250 -0.322881
O18   O     O_2   0.265894 0.178499 0.559865 -0.363449
O19   O     O_3   0.175436 0.196180 0.687815 -0.504427
Ba2   Ba    Ba6+2 0.346570 0.458460 0.536510 1.613838
P6    P     P_3+3 0.609720 0.597875 0.271427 0.530291
C10   C     C_3   0.580861 0.766605 0.240663 0.749921
H13   H     H_    0.461700 0.735274 0.222925 -0.154299
H14   H     H_    0.519615 0.884047 0.186249 0.214611
O20   O     O_3   0.551980 0.615210 0.532020 -0.393789
C11   C     C_3   0.627356 0.281593 0.313516 0.440271
H15   H     H_    0.747449 0.290579 0.338651 0.170779
C12   C     C_3   0.636831 0.221048 0.242522 -0.787503
H16   H     H_    0.676006 0.151657 0.251170 0.263217
H17   H     H_    0.518738 0.211990 0.214685 0.301251
H18   H     H_    0.719720 0.254023 0.207874 0.181961
P7    P     P_3+3 0.569920 0.267836 0.445946 0.451995
O21   O     O_2   0.394410 0.269100 0.474240 -0.290326
O22   O     O_3   0.523238 0.236684 0.355413 -0.585462
H19   H     H_    0.270398 0.880951 0.234863 0.302104
C13   C     C_3   0.039461 0.197072 0.729997 0.192290
H20   H     H_    0.004988 0.269729 0.744324 0.067825
H21   H     H_    0.937486 0.155415 0.701860 0.016963
C14   C     C_3   0.078721 0.153260 0.797953 0.122243
P8    P     P_3+3 0.563856 0.396675 0.726884 0.520601
C15   C     C_3   0.613979 0.221719 0.730173 0.500621
H22   H     H_    0.719213 0.243771 0.766151 0.091804
O23   O     O_2   0.428475 0.460414 0.751943 -0.331174
O24   O     O_3   0.492448 0.285697 0.742157 -0.431353
H23   H     H_    0.649103 0.076857 0.738048 0.214853
C16   C     C_3   0.552195 0.126532 0.745726 -0.793249
H24   H     H_    0.451094 0.100630 0.708430 0.233325
H25   H     H_    0.511728 0.128779 0.801082 0.288562
C17   C     C_R   0.997973 0.456195 0.051346 0.056441
C18   C     C_R   0.905834 0.415234 0.101463 0.111176
C19   C     C_R   0.751086 0.379928 0.082435 -0.192587
C20   C     C_R   0.689803 0.382392 0.014150 -0.052272
C21   C     C_R   0.783475 0.417436 0.961350 0.016154
C22   C     C_R   0.937325 0.456597 0.980436 -0.020298
C23   C     C_R   0.723352 0.413355 0.890724 0.321900
C24   C     C_R   0.815740 0.451668 0.837121 -0.202333
C25   C     C_R   0.968900 0.496262 0.857899 0.006785
C26   C     C_R   0.028641 0.497366 0.929747 0.000480
C27   C     C_R   0.764310 0.447135 0.763925 0.133047
C28   C     C_R   0.864262 0.486479 0.714729 -0.487229
C29   C     C_R   0.011779 0.534998 0.733946 0.231285
C30   C     C_R   0.063785 0.539715 0.807611 0.004533
C31   C     C_R   0.149988 0.496410 0.072346 0.034100
C32   C     C_R   0.206724 0.499010 0.144322 0.060469
C33   C     C_R   0.112304 0.458164 0.194910 0.072707
C34   C     C_R   0.966301 0.412348 0.170730 -0.076390
H26   H     H_    0.675113 0.352117 0.120848 0.151339
H27   H     H_    0.566906 0.356904 0.003889 0.192738
H28   H     H_    0.823293 0.482006 0.659798 0.168125
H29   H     H_    0.894874 0.376612 0.205910 0.155331
C35   C     C_R   0.210361 0.585012 0.832634 -0.070871
C36   C     C_R   0.273561 0.580330 0.902050 0.118694
C37   C     C_R   0.181638 0.537895 0.951165 0.025844
C38   C     C_R   0.243425 0.535804 0.021795 0.030547
C39   C     C_R   0.431978 0.612828 0.921528 0.039821
C40   C     C_R   0.498099 0.605473 0.990157 -0.049617
C41   C     C_R   0.399671 0.571849 0.041745 0.092035
C42   C     C_R   0.357937 0.542171 0.165394 0.004640
C43   C     C_R   0.455075 0.573852 0.113022 -0.278027
C44   C     C_R   0.407080 0.552678 0.238332 0.122074
C45   C     C_R   0.307299 0.518787 0.288361 -0.488753
C46   C     C_R   0.165448 0.466826 0.268159 0.314748
H30   H     H_    0.279329 0.622200 0.797190 0.177545
H31   H     H_    0.573734 0.602258 0.128137 0.178484
H32   H     H_    0.347207 0.526791 0.343630 0.157706
C47   C     C_R   0.694789 0.944292 0.543304 0.003899
C48   C     C_R   0.513094 0.801780 0.502208 0.338603
C49   C     C_R   0.373471 0.765318 0.464673 -0.472090
C50   C     C_R   0.265531 0.823643 0.439697 0.198663
C51   C     C_R   0.302019 0.917189 0.445028 -0.193978
C52   C     C_R   0.451816 0.955011 0.472793 0.050708
C53   C     C_R   0.555308 0.899497 0.507294 0.007858
H33   H     H_    0.342498 0.691867 0.459462 0.147479
C54   C     C_R   0.642637 0.089515 0.494551 0.013712
C55   C     C_R   0.742746 0.036482 0.533655 0.064067
C56   C     C_R   0.689514 0.184372 0.489899 0.177220
C57   C     C_R   0.834427 0.221563 0.522714 -0.296421
C58   C     C_R   0.935218 0.168173 0.558801 0.278599
C59   C     C_R   0.890317 0.076545 0.563457 -0.322795
C60   C     C_R   0.499127 0.046475 0.463385 0.010046
H34   H     H_    0.213157 0.958418 0.423886 0.185044
H35   H     H_    0.971978 0.038227 0.592047 0.132982
H36   H     H_    0.868923 0.293630 0.520941 0.163160
N1    N     N_R   0.572351 0.814489 0.312740 0.194358
O25   O     O_R   0.484779 0.885683 0.323817 -0.496654
O26   O     O_R   0.675063 0.799535 0.361892 -0.318734
N2    N     N_R   0.080851 0.184737 0.380423 0.202415
O27   O     O_R   0.961490 0.123410 0.373946 -0.410458
O28   O     O_R   0.104509 0.234186 0.441707 -0.393845
N3    N     N_3   0.971184 0.124172 0.225608 -0.179812
H37   H     H_    0.926907 0.169422 0.192366 0.122687
H38   H     H_    0.975402 0.060874 0.192921 0.167152
N4    N     N_R   0.224224 0.077572 0.264952 0.203963
O29   O     O_R   0.361056 0.060555 0.235763 -0.399742
O30   O     O_R   0.155405 0.014947 0.298637 -0.422170
N5    N     N_R   0.210726 0.198431 0.190784 0.218219
O31   O     O_R   0.255715 0.285409 0.196849 -0.515254
O32   O     O_R   0.222066 0.148513 0.129173 -0.337781
N6    N     N_3   0.762235 0.900276 0.214532 -0.165695
H39   H     H_    0.846746 0.860972 0.235867 0.217273
H40   H     H_    0.728589 0.949842 0.255648 0.204923
N7    N     N_R   0.904008 0.793930 0.762387 0.268889
O33   O     O_R   0.015273 0.774049 0.806358 -0.387309
O34   O     O_R   0.914683 0.873080 0.738000 -0.431755
N8    N     N_3   0.620903 0.793249 0.780201 -0.190254
H41   H     H_    0.608128 0.848244 0.750495 0.183793
H42   H     H_    0.653301 0.825156 0.831422 0.141574
N9    N     N_3   0.567010 0.370531 0.301276 -0.177461
H43   H     H_    0.445703 0.360748 0.287447 0.121811
H44   H     H_    0.574955 0.415672 0.348639 0.161069
N10   N     N_3   0.649625 0.796693 0.117268 -0.175206
H45   H     H_    0.543201 0.761159 0.097698 0.129464
H46   H     H_    0.740108 0.749869 0.118546 0.211730
N11   N     N_3   0.223706 0.199707 0.833782 -0.149702
H47   H     H_    0.241715 0.174659 0.882513 0.160520
H48   H     H_    0.206806 0.270610 0.845236 0.213056
N12   N     N_R   0.943505 0.162917 0.846133 0.232081
O35   O     O_R   0.853742 0.091233 0.857341 -0.352212
O36   O     O_R   0.916650 0.243172 0.880889 -0.420017
N13   N     N_3   0.106170 0.054652 0.778002 -0.157226
H49   H     H_    0.204609 0.047585 0.745146 0.130076
H50   H     H_    0.136371 0.025399 0.823820 0.179394
N14   N     N_3   0.662499 0.211884 0.656639 -0.242970
H51   H     H_    0.743232 0.266920 0.650839 0.022735
H52   H     H_    0.561657 0.214791 0.623454 0.189050
N15   N     N_R   0.036123 0.683338 0.227429 0.215506
O37   O     O_R   0.981549 0.621236 0.264631 -0.332912
O38   O     O_R   0.000485 0.674618 0.159553 -0.463556
N16   N     N_R   0.572712 0.363576 0.875110 0.234675
O39   O     O_R   0.442484 0.408491 0.883170 -0.429858
O40   O     O_R   0.564187 0.276005 0.882191 -0.390927
N17   N     N_3   0.527547 0.650055 0.869853 -0.211744
H53   H     H_    0.619414 0.605126 0.857555 0.111230
H54   H     H_    0.575361 0.714329 0.893247 0.116442
N18   N     N_3   0.663062 0.634367 0.008733 -0.220706
H55   H     H_    0.730629 0.646197 0.965056 0.114436
H56   H     H_    0.718077 0.580774 0.029663 0.131830
N19   N     N_3   0.778190 0.901084 0.595782 -0.151761
H57   H     H_    0.775425 0.944080 0.644217 0.146690
H58   H     H_    0.896852 0.892250 0.581259 0.159378
N20   N     N_3   0.410695 0.090885 0.413890 -0.147401
H59   H     H_    0.413417 0.050413 0.364740 0.237910
H60   H     H_    0.294248 0.098320 0.431043 0.185055

loop_
_geom_bond_atom_site_label_1
_geom_bond_atom_site_label_2
_geom_bond_distance
_ccdc_geom_bond_type
C2    N15   1.456965 S    
O14   Ba2   2.829935 S    
C28   C29   1.409525 A    
C13   H21   1.108319 S    
Ba1   Ba2   4.566794 S    
C35   H30   1.077668 S    
N9    H44   1.041994 S    
C40   N18   1.445017 S    
C16   H24   1.109319 S    
C32   C42   1.411418 A    
P4    C29   1.958909 S    
C9    H12   1.106987 S    
C5    H8    1.105563 S    
C12   H16   1.108869 S    
C1    N10   1.454514 S    
C41   C43   1.414098 A    
C48   C49   1.399214 A    
C31   C32   1.429044 A    
C56   C57   1.402092 A    
N13   H50   1.046340 S    
C18   C19   1.391891 A    
C50   C51   1.375496 A    
C10   N1    1.457359 S    
N12   O36   1.299528 A    
P4    O12   1.543639 D    
C14   N13   1.469898 S    
O8    Ba1   2.775100 S    
P4    O15   1.748851 S    
P2    C48   1.840802 S    
N12   O35   1.302003 A    
C5    H7    1.102817 S    
C54   C60   1.408699 A    
P3    O11   1.759266 S    
N7    O34   1.298204 A    
C21   C22   1.403005 A    
C33   C46   1.435877 A    
N19   H58   1.044461 S    
P6    C44   1.854176 S    
C2    H1    1.111647 S    
N14   H51   1.043602 S    
C49   C50   1.383880 A    
C35   C36   1.417206 A    
C45   C46   1.396047 A    
N20   H60   1.039087 S    
P1    O1    1.543258 D    
P5    O19   1.751399 S    
C18   C34   1.402074 A    
C52   C53   1.415921 A    
C37   C38   1.428015 A    
C40   C41   1.413412 A    
P5    C58   1.853837 S    
O3    Ba1   2.830619 S    
Ba2   O21   2.911036 S    
C47   C53   1.424910 A    
C11   O22   1.389754 S    
C47   C55   1.421792 A    
C36   C37   1.406623 A    
C15   H22   1.109764 S    
O14   P8    1.725926 S    
P1    Ba1   3.452567 S    
C44   C45   1.399707 A    
N8    H42   1.045395 S    
C5    H6    1.110000 S    
C7    N3    1.467600 S    
P8    O24   1.761594 S    
C48   C53   1.443783 A    
O17   Ba2   2.775681 S    
O16   P7    1.769191 S    
N3    H37   1.043066 S    
P1    C46   1.891023 S    
C11   C12   1.517876 S    
C6    N2    1.452567 S    
C13   C14   1.544722 S    
P7    O21   1.573447 D    
C4    H4    1.105584 S    
N10   H46   1.043761 S    
C39   N17   1.423458 S    
C16   H25   1.106925 S    
P2    O20   1.586295 S    
P5    O17   1.750417 S    
N11   H48   1.046281 S    
N11   H47   1.046211 S    
C11   N9    1.457319 S    
N6    H40   1.045810 S    
C43   H31   1.075083 S    
N15   O38   1.302564 A    
P7    C56   1.872998 S    
P4    O13   1.576749 S    
O4    P6    1.541179 D    
P7    O22   1.748074 S    
C57   H36   1.082667 S    
P1    O5    1.759654 S    
C8    C9    1.547775 S    
N4    O29   1.302066 A    
O6    C10   1.413985 S    
C21   C23   1.411824 A    
C15   N14   1.452001 S    
C32   C33   1.427163 A    
C19   C20   1.386088 A    
C3    H2    1.110288 S    
N2    O28   1.292383 A    
C59   H35   1.080270 S    
C15   C16   1.526432 S    
N15   O37   1.291541 A    
N17   H53   1.043266 S    
C14   N11   1.468625 S    
N20   H59   1.038397 S    
P1    O2    1.576945 S    
P5    O18   1.542258 D    
C8    H11   1.112006 S    
C52   C60   1.409254 A    
C55   C59   1.413635 A    
P2    O10   1.748278 S    
C31   C38   1.412095 A    
C20   H27   1.080770 S    
C6    H9    1.105374 S    
C42   C44   1.420100 A    
C24   C25   1.432225 A    
C47   N19   1.428635 S    
C28   H28   1.081345 S    
C36   C39   1.410135 A    
C60   N20   1.418843 S    
O12   Ba2   2.868271 S    
C14   N12   1.469864 S    
C25   C26   1.437289 A    
N18   H55   1.041067 S    
P2    O7    1.519375 D    
C1    H14   1.111285 S    
C54   C55   1.423003 A    
Ba2   O20   2.808135 S    
P3    O8    1.740602 S    
C4    O15   1.395585 S    
N16   O39   1.297702 A    
C23   N16   1.429644 S    
C10   H13   1.103149 S    
C38   C41   1.409799 A    
C12   H17   1.102437 S    
C58   C59   1.386602 A    
C20   C21   1.416941 A    
C12   H18   1.102200 S    
P4    Ba2   3.453021 S    
C25   C30   1.443724 A    
N1    O25   1.295844 A    
C34   H29   1.073572 S    
N13   H49   1.044243 S    
P3    C50   1.815884 S    
C27   C28   1.423837 A    
O13   Ba2   2.983220 S    
N6    H39   1.036388 S    
O3    P6    1.760096 S    
N5    O32   1.302534 A    
O2    Ba1   2.982440 S    
P8    C27   1.881652 S    
N3    H38   1.046619 S    
C1    N6    1.461199 S    
O10   C8    1.396687 S    
H23   C16   1.110937 S    
N1    O26   1.297623 A    
P3    O9    1.543091 D    
C17   C22   1.426072 A    
O1    Ba1   2.867776 S    
C49   H33   1.082601 S    
C11   H15   1.095762 S    
N2    O27   1.302176 A    
N4    O30   1.301093 A    
C42   C43   1.407013 A    
O19   C13   1.404229 S    
Ba1   O16   2.808663 S    
Ba1   O13   2.824967 S    
C30   C35   1.407339 A    
P8    O23   1.542071 D    
C8    H10   1.105968 S    
C24   C27   1.435189 A    
C4    H5    1.109910 S    
N5    O31   1.297190 A    
C6    C7    1.584395 S    
C26   C37   1.412175 A    
C51   C52   1.407122 A    
O6    P6    1.770350 S    
C17   C18   1.410964 A    
Ba1   O20   2.965072 S    
N19   H57   1.044767 S    
N10   H45   1.044266 S    
N14   H52   1.045294 S    
O7    Ba1   2.910716 S    
C19   H26   1.082628 S    
C15   O24   1.413185 S    
O2    Ba2   2.825521 S    
C33   C34   1.402278 A    
C3    H3    1.106832 S    
C7    N5    1.475741 S    
C39   C40   1.420010 A    
C51   H34   1.078153 S    
N18   H56   1.041180 S    
C54   C56   1.435608 A    
C13   H20   1.112836 S    
C45   H32   1.082104 S    
O5    C6    1.390053 S    
C29   C30   1.444753 A    
C2    C3    1.534686 S    
C23   C24   1.443755 A    
C9    N8    1.469565 S    
C4    C5    1.524632 S    
N9    H43   1.039851 S    
C57   C58   1.397693 A    
C3    H19   1.097886 S    
N8    H41   1.045681 S    
C9    N7    1.462181 S    
C7    N4    1.469673 S    
N7    O33   1.301291 A    
O16   Ba2   2.964295 S    
C1    C10   1.564382 S    
C22   C26   1.413975 A    
O11   C2    1.414452 S    
P2    Ba1   3.484355 S    
C17   C31   1.401724 A    
N16   O40   1.300892 A    
N17   H54   1.042518 S    
