data_mof_unit_66462.cif
_audit_creation_date              2012-12-10T21:32:04-0500
_audit_creation_method            fapswitch 2.2
_symmetry_space_group_name_H-M    P1
_symmetry_Int_Tables_number       1
_space_group_crystal_system       triclinic
_cell_length_a                    15.449714
_cell_length_b                    16.194713
_cell_length_c                    16.827422
_cell_angle_alpha                 91.964509
_cell_angle_beta                  90.260148
_cell_angle_gamma                 111.126327
_cell_volume                      3924.34857041

loop_
_atom_site_label
_atom_site_type_symbol
_atom_type_description
_atom_site_fract_x
_atom_site_fract_y
_atom_site_fract_z
_atom_type_partial_charge
C1    C     C_R   0.500626 0.489724 0.347758 1.053350
C2    C     C_R   0.495453 0.508760 0.653429 0.993986
C3    C     C_R   0.896246 0.402372 0.521618 -0.162103
C4    C     C_R   0.105324 0.600659 0.489989 -0.114786
C5    C     C_R   0.932711 0.335352 0.525783 0.123978
C6    C     C_R   0.068664 0.667331 0.483473 0.094395
C7    C     C_R   0.504128 0.487878 0.262398 -0.336405
C8    C     C_R   0.496869 0.512660 0.741200 -0.382610
C9    C     C_R   0.583727 0.546384 0.226890 0.269748
C10   C     C_R   0.494042 0.436670 0.782527 0.317881
C11   C     C_R   0.580765 0.564091 0.146665 0.339729
C12   C     C_R   0.524117 0.445971 0.861460 0.314952
C13   C     C_R   0.498783 0.519236 0.101493 0.032072
C14   C     C_R   0.548849 0.528109 0.901579 0.024525
C15   C     C_R   0.419801 0.460800 0.137424 0.333972
C16   C     C_R   0.540335 0.601129 0.864614 0.313635
C17   C     C_R   0.421873 0.445608 0.218274 0.287023
C18   C     C_R   0.511329 0.592915 0.784954 0.307879
C19   C     C_R   0.549344 0.780528 0.537582 0.423929
C20   C     C_R   0.453827 0.220012 0.459970 0.395889
C21   C     C_R   0.553227 0.868600 0.532851 0.231291
C22   C     C_R   0.448440 0.131658 0.466001 0.225126
C23   C     C_R   0.326022 0.444386 0.506732 0.976639
C24   C     C_R   0.673951 0.555527 0.492795 0.972487
C25   C     C_R   0.492365 0.888122 0.480086 0.040337
C26   C     C_R   0.506494 0.111464 0.521212 0.038901
C27   C     C_R   0.432657 0.818632 0.431079 0.221495
C28   C     C_R   0.564908 0.180759 0.571146 0.228028
C29   C     C_R   0.431446 0.731600 0.437400 0.360324
C30   C     C_R   0.566853 0.267991 0.564080 0.391245
C31   C     C_R   0.224632 0.408833 0.519234 -0.235787
C32   C     C_R   0.775562 0.591177 0.481013 -0.260534
C33   C     C_R   0.071140 0.291559 0.517375 0.039337
C34   C     C_R   0.927823 0.709783 0.481488 0.042388
C35   C     C_R   0.168572 0.317831 0.512825 0.336807
C36   C     C_R   0.830473 0.682323 0.482183 0.418454
C37   C     C_R   0.182270 0.470078 0.537444 0.282029
C38   C     C_R   0.819278 0.530127 0.468138 0.305132
C39   C     C_R   0.087472 0.447573 0.521502 -0.049444
C40   C     C_R   0.913870 0.554480 0.486441 -0.037995
C41   C     C_R   0.029577 0.356750 0.520601 0.072314
C42   C     C_R   0.971254 0.645637 0.485108 0.014408
C43   C     C_R   0.049209 0.513289 0.506928 0.089223
C44   C     C_R   0.952355 0.489579 0.503684 0.092769
H1    H     H_    0.822809 0.384615 0.531666 0.210224
H2    H     H_    0.178993 0.618767 0.481071 0.209607
N1    N     N_2   0.493033 0.528723 0.019152 -0.029189
N2    N     N_2   0.564098 0.530848 0.983683 -0.010071
N3    N     N_R   0.489120 0.713640 0.490430 -0.198825
N4    N     N_R   0.510880 0.286360 0.509570 -0.199626
N5    N     N_2   0.494620 0.976476 0.469381 -0.002055
N6    N     N_2   0.504153 0.023042 0.532047 0.001025
O1    O     O_R   0.503890 0.423710 0.387290 -0.553439
O2    O     O_R   0.496110 0.576290 0.612710 -0.543690
O3    O     O_R   0.496910 0.560910 0.381140 -0.572048
O4    O     O_R   0.503090 0.439090 0.618860 -0.554544
O5    O     O_R   0.373240 0.392210 0.504830 -0.552202
O6    O     O_R   0.626760 0.607790 0.495170 -0.554069
O7    O     O_R   0.366260 0.529410 0.498680 -0.555216
O8    O     O_R   0.633740 0.470590 0.501320 -0.559753
Zn1   Zn    Zn3+2 0.504660 0.408390 0.504100 1.139943
Zn2   Zn    Zn3+2 0.495340 0.591610 0.495900 1.138334
N7    N     N_3   0.870534 0.246697 0.538013 -0.369337
H3    H     H_    0.836083 0.246796 0.591324 0.258390
H4    H     H_    0.820943 0.228048 0.491835 0.234915
N8    N     N_3   0.131821 0.755603 0.471681 -0.442897
H5    H     H_    0.167963 0.754970 0.419443 0.267944
H6    H     H_    0.179802 0.774451 0.519086 0.236016
Cl1   Cl    Cl    0.385731 0.244089 0.387033 -0.324419
Cl2   Cl    Cl    0.626141 0.757806 0.603063 -0.351305
Cl3   Cl    Cl    0.362447 0.047537 0.409334 -0.343536
Cl4   Cl    Cl    0.640856 0.953517 0.587319 -0.337575
Cl5   Cl    Cl    0.360647 0.841073 0.359968 -0.382711
Cl6   Cl    Cl    0.635038 0.157919 0.643772 -0.364595
Cl7   Cl    Cl    0.356766 0.646403 0.374406 -0.459380
Cl8   Cl    Cl    0.642558 0.353393 0.626265 -0.464415
Cl9   Cl    Cl    0.763903 0.435648 0.403942 -0.505029
Cl10  Cl    Cl    0.240497 0.562099 0.603393 -0.517991
Cl11  Cl    Cl    0.781070 0.764383 0.473404 -0.409253
Cl12  Cl    Cl    0.217009 0.234439 0.506440 -0.463432
N9    N     N_3   0.014711 0.199049 0.514628 -0.361896
H7    H     H_    0.027437 0.169958 0.461711 0.261788
H8    H     H_    0.033382 0.169313 0.562658 0.259669
N10   N     N_3   0.979527 0.803180 0.479872 -0.339793
H9    H     H_    0.016902 0.817342 0.427305 0.259913
H10   H     H_    0.023477 0.823306 0.529893 0.239915
Cl13  Cl    Cl    0.443740 0.327343 0.740640 -0.371939
Cl14  Cl    Cl    0.686094 0.601275 0.284255 -0.428544
Cl15  Cl    Cl    0.526174 0.353276 0.913077 -0.331430
Cl16  Cl    Cl    0.677021 0.647660 0.105854 -0.326684
Cl17  Cl    Cl    0.317643 0.406863 0.079986 -0.335366
Cl18  Cl    Cl    0.564395 0.702151 0.919562 -0.311413
Cl19  Cl    Cl    0.319392 0.379288 0.265220 -0.376657
Cl20  Cl    Cl    0.482812 0.679799 0.745605 -0.339369

loop_
_geom_bond_atom_site_label_1
_geom_bond_atom_site_label_2
_ccdc_geom_bond_type
O6    Zn2   S    
N8    H6    S    
N7    H4    S    
C27   C29   A    
C34   C42   A    
C28   Cl6   S    
C24   C32   S    
N9    H7    S    
C39   C41   A    
C29   N3    A    
C23   O7    A    
C21   C25   A    
C32   C36   A    
C19   C21   A    
N10   H10   S    
C9    Cl14  S    
C4    H2    S    
O3    Zn2   S    
C35   Cl12  S    
C5    N7    S    
C15   C17   A    
C1    O1    A    
C20   N4    A    
O1    Zn1   S    
C7    C17   A    
C32   C38   A    
C34   C36   A    
C40   C42   A    
N8    H5    S    
C30   N4    A    
C34   N10   S    
N9    H8    S    
C3    C44   A    
C10   Cl13  S    
C21   Cl4   S    
N5    N6    D    
C12   Cl15  S    
N10   H9    S    
C4    C6    A    
C2    O2    A    
C13   N1    S    
C39   C43   A    
O2    Zn2   S    
C3    H1    S    
C8    C18   A    
C31   C37   A    
O8    Zn1   S    
C23   C31   S    
C43   C44   A    
C25   N5    S    
C26   N6    S    
C30   Cl8   S    
C19   N3    A    
N1    N2    D    
C40   C44   A    
C24   O8    A    
C16   C18   A    
C9    C11   A    
C10   C12   A    
C8    C10   A    
C4    C43   A    
C20   C22   A    
C16   Cl18  S    
C13   C15   A    
C22   C26   A    
C18   Cl20  S    
C31   C35   A    
C20   Cl1   S    
C17   Cl19  S    
C22   Cl3   S    
C23   O5    A    
C5    C41   A    
O7    Zn2   S    
N3    Zn2   S    
C1    C7    S    
C2    C8    S    
C12   C14   A    
C3    C5    A    
C36   Cl11  S    
C14   N2    S    
O5    Zn1   S    
C29   Cl7   S    
C38   Cl9   S    
C25   C27   A    
C37   Cl10  S    
C26   C28   A    
C33   C41   A    
C28   C30   A    
C1    O3    A    
C37   C39   A    
C2    O4    A    
C38   C40   A    
C11   C13   A    
C11   Cl16  S    
C33   C35   A    
C14   C16   A    
C15   Cl17  S    
N7    H3    S    
C7    C9    A    
C6    N8    S    
C24   O6    A    
C6    C42   A    
N4    Zn1   S    
O4    Zn1   S    
C19   Cl2   S    
C27   Cl5   S    
C33   N9    S    
