data_mof_unit_26934.cif
_audit_creation_date              2012-12-10T17:57:27-0500
_audit_creation_method            fapswitch 2.2
_symmetry_space_group_name_H-M    P1
_symmetry_Int_Tables_number       1
_space_group_crystal_system       triclinic
_cell_length_a                    9.651587
_cell_length_b                    10.92965
_cell_length_c                    13.476278
_cell_angle_alpha                 94.261749
_cell_angle_beta                  71.778725
_cell_angle_gamma                 87.653333
_cell_volume                      1343.47926984

loop_
_atom_site_label
_atom_site_type_symbol
_atom_type_description
_atom_site_fract_x
_atom_site_fract_y
_atom_site_fract_z
_atom_type_partial_charge
C1    C     C_R   0.498556 0.737717 0.497484 0.818828
C2    C     C_R   0.442639 0.527137 0.977527 0.085112
C3    C     C_R   0.471669 0.476810 0.871906 0.033725
C4    C     C_R   0.549262 0.500942 0.027342 0.025591
C5    C     C_R   0.692390 0.456062 0.966454 0.112497
C6    C     C_R   0.717261 0.401547 0.863934 0.186711
C7    C     C_R   0.601543 0.402180 0.822520 -0.137459
C8    C     C_R   0.516407 0.510344 0.136317 -0.248782
C9    C     C_R   0.774146 0.502759 0.118242 0.159610
C10   C     C_R   0.374090 0.506967 0.816001 -0.073171
C11   C     C_R   0.633892 0.927306 0.460881 -0.021424
C12   C     C_R   0.421370 0.496729 0.700019 0.770571
C13   C     C_R   0.637993 0.053673 0.487306 0.073228
C14   C     C_R   0.506838 0.129262 0.508969 -0.114347
C15   C     C_R   0.373727 0.075370 0.530538 -0.162614
C16   C     C_R   0.366496 0.949128 0.528510 0.149717
C17   C     C_R   0.497834 0.872478 0.492650 -0.140304
C18   C     C_R   0.890072 0.575345 0.571773 0.096928
C19   C     C_R   0.037921 0.575458 0.571962 0.211699
C20   C     C_R   0.108237 0.420809 0.431147 0.011093
C21   C     C_R   0.962520 0.426487 0.425968 -0.031468
C22   C     C_R   0.501954 0.262871 0.503745 0.836760
C23   C     C_R   0.579427 0.504690 0.299814 0.861980
C24   C     C_R   0.805412 0.466357 0.011073 -0.202253
C25   C     C_R   0.626507 0.507326 0.184012 -0.052429
C26   C     C_R   0.241533 0.572824 0.869188 -0.255471
C27   C     C_R   0.214216 0.625347 0.970444 -0.159490
C28   C     C_R   0.315098 0.609374 0.024348 0.211961
Cu1   Cu    Cu3+1 0.359340 0.499980 0.500000 0.962441
Cu2   Cu    Cu3+1 0.640660 0.500020 0.500000 1.003095
H1    H     H_    0.272751 0.133038 0.555118 0.196690
H2    H     H_    0.918571 0.451088 0.962259 0.155518
H3    H     H_    0.403504 0.516081 0.184328 0.226005
H4    H     H_    0.165228 0.596330 0.828933 0.161933
H5    H     H_    0.118403 0.688108 0.003500 0.152788
H6    H     H_    0.617290 0.349377 0.748246 0.146313
N1    N     N_R   0.147940 0.499970 0.499970 -0.212411
N2    N     N_R   0.852060 0.500060 0.499990 -0.262056
O1    O     O_R   0.381250 0.680340 0.500010 -0.595635
O2    O     O_R   0.618820 0.680370 0.500010 -0.556173
O3    O     O_R   0.323240 0.499950 0.650980 -0.598947
O4    O     O_R   0.560810 0.499980 0.650980 -0.573467
O5    O     O_R   0.381180 0.319630 0.499990 -0.585625
O6    O     O_R   0.618750 0.319660 0.499990 -0.546159
O7    O     O_R   0.439190 0.500020 0.349020 -0.564154
O8    O     O_R   0.676760 0.500050 0.349020 -0.557457
C29   C     C_3   0.897282 0.553570 0.151444 -0.756958
H7    H     H_    0.882472 0.559784 0.235777 0.275087
H8    H     H_    0.001115 0.498354 0.110385 0.239067
H9    H     H_    0.909478 0.648645 0.128233 0.235727
C30   C     C_3   0.777292 0.099548 0.501618 -0.682196
H10   H     H_    0.760348 0.185672 0.553502 0.218904
H11   H     H_    0.822162 0.033422 0.544262 0.248792
H12   H     H_    0.860472 0.107630 0.424648 0.273311
C31   C     C_3   0.217239 0.902648 0.570442 -0.787147
H13   H     H_    0.194658 0.836961 0.511515 0.275307
H14   H     H_    0.212017 0.862297 0.644205 0.211250
H15   H     H_    0.128527 0.977221 0.590927 0.229649
C32   C     C_2   0.779405 0.662934 0.647764 0.905430
O9    O     O_2   0.721516 0.636552 0.737169 -0.611675
O10   O     O_R   0.757667 0.781932 0.621744 -0.755853
H16   H     H_    0.684021 0.835187 0.681282 0.317015
C33   C     C_3   0.065487 0.653732 0.659372 -0.823408
H17   H     H_    0.180430 0.664729 0.648545 0.278759
H18   H     H_    0.013951 0.747749 0.666329 0.217881
H19   H     H_    0.014575 0.613450 0.734216 0.212124
C34   C     C_2   0.207926 0.314267 0.373416 0.949180
O11   O     O_2   0.186941 0.212942 0.405871 -0.633277
O12   O     O_R   0.314336 0.325653 0.277513 -0.736256
H20   H     H_    0.371946 0.244964 0.245210 0.328405
C35   C     C_2   0.939471 0.356702 0.333411 0.846204
O13   O     O_2   0.832551 0.298463 0.341629 -0.566937
O14   O     O_R   0.047471 0.352319 0.235516 -0.782081
H21   H     H_    0.023889 0.297764 0.179507 0.334403
C36   C     C_3   0.862932 0.338119 0.799365 -0.869540
H22   H     H_    0.860122 0.295802 0.722511 0.230054
H23   H     H_    0.948333 0.405517 0.783281 0.235846
H24   H     H_    0.893584 0.264256 0.842390 0.231432
C37   C     C_3   0.290783 0.696436 0.121907 -0.871582
H25   H     H_    0.223856 0.654409 0.192221 0.237811
H26   H     H_    0.395685 0.724498 0.130866 0.248074
H27   H     H_    0.230178 0.783365 0.117196 0.236740
C38   C     C_2   0.767952 0.856000 0.389679 0.915726
O15   O     O_2   0.759464 0.792730 0.313358 -0.637019
O16   O     O_R   0.902042 0.859786 0.408824 -0.744426
H28   H     H_    0.982655 0.805822 0.354742 0.326680

loop_
_geom_bond_atom_site_label_1
_geom_bond_atom_site_label_2
_ccdc_geom_bond_type
C31   H13   S    
C33   H18   S    
C23   O7    A    
O14   H21   S    
C20   C34   S    
C4    C8    A    
C9    C25   A    
C6    C36   S    
C29   H8    S    
O16   H28   S    
C26   C27   A    
Cu1   Cu2   S    
C21   C35   S    
C3    C7    A    
C5    C6    A    
C15   C16   A    
Cu2   N2    S    
C18   C19   A    
C7    H6    S    
C28   C37   S    
C12   O4    A    
C19   N1    A    
C1    O2    A    
C13   C30   S    
C26   H4    S    
C22   O6    A    
C21   N2    A    
C29   H7    S    
C19   C33   S    
C16   C17   A    
C10   C26   A    
C33   H19   S    
C32   O9    D    
C23   O8    A    
C13   C14   A    
Cu1   O5    S    
C8    C25   A    
Cu2   O6    S    
O12   H20   S    
C29   H9    S    
C32   O10   S    
C30   H10   S    
C37   H25   S    
C35   O14   S    
C27   H5    S    
C34   O11   D    
Cu1   O7    S    
C30   H11   S    
C2    C4    A    
C36   H22   S    
C24   H2    S    
C12   O3    A    
C38   O15   D    
Cu1   O1    S    
Cu2   O2    S    
C36   H23   S    
C10   C12   S    
C38   O16   S    
C9    C29   S    
C31   H14   S    
C37   H26   S    
C11   C17   A    
Cu1   O3    S    
Cu2   O8    S    
C4    C5    A    
C37   H27   S    
C9    C24   A    
C15   H1    S    
C6    C7    A    
C1    C17   S    
C30   H12   S    
C11   C38   S    
C14   C22   S    
C2    C3    A    
C18   N2    A    
C16   C31   S    
C35   O13   D    
C3    C10   A    
C20   N1    A    
C11   C13   A    
C5    C24   A    
C8    H3    S    
C23   C25   S    
O10   H16   S    
C36   H24   S    
C1    O1    A    
C33   H17   S    
C18   C32   S    
C20   C21   A    
C31   H15   S    
Cu1   N1    S    
C27   C28   A    
C14   C15   A    
Cu2   O4    S    
C2    C28   A    
C34   O12   S    
C22   O5    A    
