data_mof_unit_50998.cif
_audit_creation_date              2012-12-11T17:17:01-0500
_audit_creation_method            fapswitch 2.2
_symmetry_space_group_name_H-M    P1
_symmetry_Int_Tables_number       1
_space_group_crystal_system       triclinic
_cell_length_a                    6.940299
_cell_length_b                    13.376033
_cell_length_c                    14.684182
_cell_angle_alpha                 98.90307
_cell_angle_beta                  89.848125
_cell_angle_gamma                 90.21602
_cell_volume                      1346.74971255

loop_
_atom_site_label
_atom_site_type_symbol
_atom_type_description
_atom_site_fract_x
_atom_site_fract_y
_atom_site_fract_z
_atom_type_partial_charge
O1    O     O_R   0.354890 0.151580 0.148210 -0.533883
O2    O     O_R   0.645110 0.848420 0.851790 -0.533883
O3    O     O_R   0.682370 0.152980 0.336770 -0.542354
O4    O     O_R   0.317630 0.847020 0.663230 -0.542353
O5    O     O_R   0.854980 0.348430 0.351800 -0.538050
O6    O     O_R   0.145020 0.651570 0.648200 -0.538049
C1    C     C_R   0.513415 0.131307 0.366285 0.690810
C2    C     C_R   0.486585 0.868693 0.633715 0.690809
O7    O     O_R   0.684450 0.139580 0.148000 -0.535406
O8    O     O_R   0.315550 0.860420 0.852000 -0.535406
O9    O     O_R   0.857080 0.334940 0.161680 -0.540101
O10   O     O_R   0.142920 0.665060 0.838320 -0.540101
C3    C     C_R   0.515535 0.112681 0.114010 0.754422
C4    C     C_R   0.484465 0.887319 0.885990 0.754423
O11   O     O_R   0.352790 0.165070 0.338330 -0.540993
O12   O     O_R   0.647210 0.834930 0.661670 -0.540992
O13   O     O_3   0.522170 0.314120 0.254710 -0.372831
O14   O     O_3   0.477830 0.685880 0.745290 -0.372830
V1    V     V_3+5 0.796120 0.238110 0.249130 1.455134
V2    V     V_3+5 0.203880 0.761890 0.750870 1.455134
O15   O     O_R   0.186930 0.347040 0.163240 -0.542288
O16   O     O_R   0.813070 0.652960 0.836760 -0.542288
C5    C     C_R   0.018269 0.368647 0.133649 0.695051
C6    C     C_R   0.981731 0.631353 0.866351 0.695050
O17   O     O_R   0.184850 0.360440 0.352010 -0.540245
O18   O     O_R   0.815150 0.639560 0.647990 -0.540245
C7    C     C_R   0.015822 0.387331 0.385988 0.727274
C8    C     C_R   0.984178 0.612669 0.614012 0.727273
V3    V     V_3+5 0.296410 0.261900 0.250880 1.446501
V4    V     V_3+5 0.703590 0.738100 0.749120 1.446500
O19   O     O_3   0.020490 0.185890 0.245290 -0.366271
O20   O     O_3   0.979510 0.814110 0.754710 -0.366270
C9    C     C_1   0.005134 0.466909 0.466344 -0.184645
C10   C     C_1   0.994866 0.533091 0.533656 -0.184645
C11   C     C_3   0.177573 0.536708 0.986999 -0.149782
C12   C     C_3   0.822427 0.463292 0.013001 -0.149782
C13   C     C_3   0.066165 0.551650 0.080235 -0.170181
C14   C     C_3   0.933835 0.448350 0.919765 -0.170181
H1    H     H_    0.324265 0.566028 0.975787 0.130399
H2    H     H_    0.675735 0.433972 0.024213 0.130400
C15   C     C_3   0.008373 0.438649 0.063016 -0.063084
C16   C     C_3   0.991627 0.561351 0.936984 -0.063084
C17   C     C_3   0.117804 0.424145 0.971019 -0.001062
C18   C     C_3   0.882196 0.575855 0.028981 -0.001062
C19   C     C_3   0.318141 0.020983 0.476667 -0.154459
C20   C     C_3   0.681859 0.979017 0.523333 -0.154459
C21   C     C_3   0.408309 0.913377 0.465343 -0.177974
C22   C     C_3   0.591691 0.086623 0.534657 -0.177974
H3    H     H_    0.334401 0.841661 0.436708 0.119247
H4    H     H_    0.665599 0.158339 0.563292 0.119247
H5    H     H_    0.168430 0.038741 0.458119 0.122648
H6    H     H_    0.831570 0.961259 0.541881 0.122649
C23   C     C_3   0.495615 0.938532 0.562991 -0.054597
C24   C     C_3   0.504385 0.061468 0.437009 -0.054596
C25   C     C_3   0.406915 0.044612 0.573892 0.002454
C26   C     C_3   0.593084 0.955388 0.426108 0.002454
C27   C     C_1   0.504945 0.033099 0.033657 -0.141623
C28   C     C_1   0.495055 0.966900 0.966343 -0.141623
H7    H     H_    0.119118 0.594191 0.146422 0.127606
H8    H     H_    0.880882 0.405809 0.853578 0.127606
C29   C     C_1   0.250071 0.340578 0.939435 0.284095
N1    N     N_1   0.354735 0.274746 0.914797 -0.345521
C30   C     C_1   0.749929 0.659422 0.060565 0.284095
N2    N     N_1   0.645265 0.725254 0.085203 -0.345521
C31   C     C_1   0.302953 0.094027 0.655618 0.273396
N3    N     N_1   0.220651 0.132875 0.720045 -0.333689
C32   C     C_1   0.697047 0.905973 0.344382 0.273396
N4    N     N_1   0.779349 0.867124 0.279955 -0.333689

loop_
_geom_bond_atom_site_label_1
_geom_bond_atom_site_label_2
_ccdc_geom_bond_type
C22   C25   S    
C6    C16   S    
O4    C2    A    
V1    O19   S    
C21   H3    S    
C7    C9    S    
C22   C24   S    
O9    V1    S    
C11   C13   S    
C14   C16   S    
O3    C1    A    
C3    C27   S    
C19   H5    S    
O12   V4    S    
C20   H6    S    
O13   V3    S    
C19   C21   S    
O9    C5    A    
C11   C16   S    
O7    C3    A    
O5    C7    A    
O7    V1    S    
O6    C8    A    
O8    V2    S    
O3    V1    S    
O14   V4    S    
C11   C17   S    
C21   C23   S    
C22   H4    S    
C8    C10   S    
C2    O12   A    
C15   C17   S    
C12   C15   S    
C16   C18   S    
C25   C31   S    
O11   V3    S    
C20   C22   S    
C23   C25   S    
C18   C30   S    
O17   V3    S    
C4    C28   S    
C24   C26   S    
C32   N4    T    
C12   H2    S    
O8    C4    A    
O15   V3    S    
C11   H1    S    
O10   V2    S    
O1    V3    S    
C9    C10   T    
C13   H7    S    
C14   H8    S    
C19   C24   S    
O18   V4    S    
O15   C5    A    
O16   C6    A    
C12   C18   S    
O1    C3    A    
C17   C29   S    
V2    O20   S    
O16   V4    S    
C2    C23   S    
O5    V1    S    
O17   C7    A    
C26   C32   S    
O6    V2    S    
O10   C6    A    
O18   C8    A    
C5    C15   S    
O2    V4    S    
C13   C18   S    
C12   C14   S    
C14   C17   S    
V3    O19   S    
V4    O20   S    
C27   C28   T    
C20   C23   S    
C1    O11   A    
O13   V1    S    
O14   V2    S    
C13   C15   S    
C29   N1    T    
O2    C4    A    
C30   N2    T    
O4    V2    S    
C19   C25   S    
C31   N3    T    
C20   C26   S    
C1    C24   S    
C21   C26   S    
