data_mof_unit_48146.cif
_audit_creation_date              2012-12-10T17:44:28-0500
_audit_creation_method            fapswitch 2.2
_symmetry_space_group_name_H-M    P1
_symmetry_Int_Tables_number       1
_space_group_crystal_system       triclinic
_cell_length_a                    9.969924
_cell_length_b                    10.735898
_cell_length_c                    15.621084
_cell_angle_alpha                 91.326994
_cell_angle_beta                  68.055638
_cell_angle_gamma                 88.929525
_cell_volume                      1549.78737284

loop_
_atom_site_label
_atom_site_type_symbol
_atom_type_description
_atom_site_fract_x
_atom_site_fract_y
_atom_site_fract_z
_atom_type_partial_charge
C1    C     C_R   0.506195 0.738138 0.487412 0.905880
C2    C     C_R   0.701198 0.367507 0.046850 0.144197
C3    C     C_R   0.571993 0.440385 0.093380 0.067541
C4    C     C_R   0.409732 0.488249 0.674694 0.867042
C5    C     C_R   0.797427 0.339676 0.092936 -0.023264
C6    C     C_R   0.767875 0.390912 0.181684 -0.284555
C7    C     C_R   0.556102 0.497207 0.177884 -0.242674
C8    C     C_R   0.294173 0.899947 0.434244 0.057918
C9    C     C_R   0.157756 0.958834 0.460867 -0.075216
C10   C     C_R   0.123030 0.060169 0.523312 -0.089546
C11   C     C_R   0.230836 0.112751 0.547843 -0.121467
C12   C     C_R   0.408651 0.444580 0.913020 0.101721
C13   C     C_R   0.373121 0.060615 0.513147 0.071378
C14   C     C_R   0.393862 0.941360 0.472584 0.088154
C15   C     C_R   0.515090 0.870827 0.470786 -0.168967
C16   C     C_R   0.497328 0.259795 0.506923 0.876383
C17   C     C_R   0.635643 0.930503 0.474486 -0.169686
C18   C     C_R   0.629846 0.057025 0.492976 0.007399
C19   C     C_R   0.497242 0.124440 0.511965 -0.216564
C20   C     C_R   0.772677 0.612845 0.652971 0.044478
C21   C     C_R   0.790462 0.612233 0.737081 -0.254426
C22   C     C_R   0.928167 0.614351 0.737064 -0.268549
C23   C     C_R   0.261597 0.469931 0.965736 0.158252
C24   C     C_R   0.046104 0.610111 0.653358 0.044155
C25   C     C_R   0.029072 0.560091 0.572476 0.132695
C26   C     C_R   0.884668 0.560647 0.572307 0.088273
C27   C     C_R   0.968260 0.436369 0.434746 -0.087525
C28   C     C_R   0.590930 0.496045 0.324408 0.874361
C29   C     C_R   0.110183 0.434479 0.435892 -0.060397
C30   C     C_R   0.353839 0.462664 0.774129 -0.069389
C31   C     C_R   0.645728 0.467857 0.224692 -0.054769
C32   C     C_R   0.159982 0.469775 0.924005 -0.282257
C33   C     C_R   0.204933 0.453089 0.828680 -0.007399
C34   C     C_R   0.505963 0.421158 0.957954 0.056252
C35   C     C_R   0.454089 0.448464 0.816832 -0.291728
C36   C     C_2   0.924630 0.252261 0.055540 0.369430
C37   C     C_1   0.343405 0.822312 0.352077 0.172995
C38   C     C_2   0.763256 0.112338 0.495455 0.406301
C39   C     C_1   0.674823 0.712632 0.652011 0.266685
C40   C     C_2   0.147286 0.707787 0.651853 0.516419
C41   C     C_2   0.095009 0.411479 0.793088 0.402851
C42   C     C_1   0.250854 0.535767 0.197815 0.148497
C43   C     C_R   0.464504 0.454743 0.053265 0.019949
C44   C     C_R   0.315737 0.494403 0.102827 -0.004533
C45   C     C_R   0.216628 0.493125 0.059567 -0.275957
C46   C     C_R   0.639819 0.358586 0.910760 -0.230937
C47   C     C_R   0.732224 0.328108 0.955278 -0.194596
H1    H     H_    0.102972 0.515811 0.098982 0.154396
H2    H     H_    0.195293 0.380623 0.383129 0.158248
H3    H     H_    0.835603 0.364995 0.219333 0.156123
H4    H     H_    0.830515 0.276675 0.915220 0.205520
H5    H     H_    0.045391 0.476463 0.966149 0.124651
H6    H     H_    0.567947 0.445538 0.774815 0.169630
H7    H     H_    0.671156 0.324296 0.840183 0.163318
H8    H     H_    0.016271 0.264897 0.076131 0.082687
H9    H     H_    0.758721 0.175036 0.552049 0.080014
H10   H     H_    0.211603 0.702545 0.694440 0.045657
H11   H     H_    0.981910 0.432796 0.832813 0.057816
H12   H     H_    0.733194 0.877595 0.467506 0.190576
H13   H     H_    0.079409 0.926281 0.433298 0.175297
H14   H     H_    0.015719 0.102811 0.548490 0.161153
H15   H     H_    0.202128 0.194113 0.593188 0.220914
H16   H     H_    0.947781 0.384737 0.380792 0.158021
H17   H     H_    0.701834 0.640608 0.800599 0.170376
H18   H     H_    0.475228 0.566956 0.209306 0.189095
H19   H     H_    0.940380 0.645572 0.800277 0.142523
N1    N     N_R   0.856800 0.501200 0.500850 -0.126992
N2    N     N_R   0.142390 0.501280 0.500880 -0.121671
N3    N     N_1   0.385272 0.764213 0.283816 -0.209756
N4    N     N_1   0.595725 0.795236 0.656864 -0.222930
N5    N     N_1   0.194889 0.572996 0.273061 -0.197662
O1    O     O_R   0.385310 0.683220 0.500000 -0.604012
O2    O     O_2   0.879544 0.088864 0.433152 -0.614644
O3    O     O_2   0.143201 0.804703 0.614073 -0.591673
O4    O     O_2   0.127076 0.344450 0.723960 -0.583574
O5    O     O_R   0.614640 0.683250 0.500010 -0.623616
O6    O     O_R   0.319840 0.499980 0.632240 -0.609994
O7    O     O_R   0.549160 0.500000 0.632250 -0.633844
O8    O     O_R   0.385360 0.316750 0.499990 -0.608141
O9    O     O_R   0.614690 0.316780 0.500000 -0.631454
O10   O     O_R   0.450840 0.500000 0.367750 -0.610418
O11   O     O_R   0.680160 0.500020 0.367760 -0.617752
O12   O     O_2   0.925476 0.161450 0.006883 -0.552210
Zn1   Zn    Zn3+2 0.346880 0.499980 0.499990 0.987286
Zn2   Zn    Zn3+2 0.653120 0.500020 0.500010 0.952240

loop_
_geom_bond_atom_site_label_1
_geom_bond_atom_site_label_2
_ccdc_geom_bond_type
C23   C45   A    
C37   N3    T    
C35   H6    S    
C11   H15   S    
C29   H2    S    
C12   C23   A    
C3    C43   A    
C30   C35   A    
C26   N1    A    
C41   H11   S    
C3    C7    A    
O8    Zn1   S    
C7    H18   S    
C36   O12   D    
C5    C36   S    
C27   C29   A    
C18   C19   A    
C32   H5    S    
C21   H17   S    
C22   H19   S    
C8    C9    A    
C34   C46   A    
C9    C10   A    
C6    C31   A    
C13   C14   A    
C25   N2    A    
C42   C44   S    
N1    Zn2   S    
C1    O1    A    
C7    C31   A    
C13   C19   A    
C28   O11   A    
N2    Zn1   S    
C24   C25   A    
C20   C39   S    
C47   H4    S    
O6    Zn1   S    
C25   C26   A    
C16   O9    A    
C43   C44   A    
C4    O7    A    
O9    Zn2   S    
C41   O4    D    
C29   N2    A    
C46   H7    S    
C17   C18   A    
C6    H3    S    
C12   C35   A    
O1    Zn1   S    
C27   H16   S    
C17   H12   S    
C1    C15   S    
O7    Zn2   S    
C22   C24   A    
C10   H14   S    
C8    C37   S    
C12   C34   A    
O10   Zn1   S    
C44   C45   A    
C45   H1    S    
C15   C17   A    
C46   C47   A    
C8    C14   A    
C40   H10   S    
C30   C33   A    
C28   O10   A    
C1    O5    A    
C28   C31   S    
C34   C43   A    
C2    C47   A    
O11   Zn2   S    
C9    H13   S    
C33   C41   S    
C23   C32   A    
C16   O8    A    
C2    C3    A    
C18   C38   S    
C4    O6    A    
C36   H8    S    
C32   C33   A    
C11   C13   A    
C5    C6    A    
C20   C26   A    
C16   C19   S    
C42   N5    T    
C24   C40   S    
C39   N4    T    
C40   O3    D    
C27   N1    A    
C10   C11   A    
C2    C5    A    
C38   H9    S    
C20   C21   A    
C14   C15   A    
C21   C22   A    
O5    Zn2   S    
C4    C30   S    
C38   O2    D    
