data_mof_unit_12505.cif
_audit_creation_date              2012-10-26T17:56:55-0400
_audit_creation_method            fapswitch 2.2
_symmetry_space_group_name_H-M    P1
_symmetry_Int_Tables_number       1
_space_group_crystal_system       triclinic
_cell_length_a                    19.204583
_cell_length_b                    18.377337
_cell_length_c                    19.310858
_cell_angle_alpha                 108.901989
_cell_angle_beta                  111.69215
_cell_angle_gamma                 107.83388
_cell_volume                      5240.75256531

loop_
_atom_site_label
_atom_site_type_symbol
_atom_type_description
_atom_site_fract_x
_atom_site_fract_y
_atom_site_fract_z
_atom_type_partial_charge
C1    C     C_R   0.619890 0.621585 0.502115 0.509370
C2    C     C_3   0.809180 0.811319 0.501635 -0.061785
C3    C     C_3   0.727063 0.825877 0.481694 0.082524
C4    C     C_R   0.379577 0.500063 0.380716 0.530474
C5    C     C_3   0.845777 0.814608 0.591498 0.083168
C6    C     C_3   0.681902 0.393956 0.645461 0.067474
C7    C     C_3   0.747682 0.385222 0.718998 0.062143
C8    C     C_3   0.779910 0.559967 0.709776 -0.021227
C9    C     C_3   0.682971 0.505370 0.767809 0.098099
C10   C     C_3   0.687760 0.491158 0.684779 -0.092615
C11   C     C_3   0.814489 0.482343 0.796874 -0.122743
C12   C     C_3   0.186670 0.417493 0.194786 -0.097417
C13   C     C_3   0.847228 0.534252 0.752816 0.094377
C14   C     C_3   0.766043 0.518994 0.834860 -0.202794
C15   C     C_3   0.237600 0.226240 0.396439 0.088419
C16   C     C_R   0.374926 0.379473 0.493045 0.593378
C17   C     C_3   0.177155 0.149657 0.401196 0.332485
C18   C     C_3   0.346796 0.278455 0.555787 0.058089
C19   C     C_3   0.250915 0.345243 0.516594 -0.311805
C20   C     C_3   0.305542 0.308152 0.490143 -0.077297
C21   C     C_3   0.186853 0.188265 0.494916 -0.056627
C22   C     C_3   0.279611 0.218164 0.567505 0.020336
C23   C     C_3   0.217057 0.465418 0.291255 -0.133495
C24   C     C_3   0.181639 0.275656 0.517244 -0.259505
C25   C     C_R   0.005578 0.620146 0.123840 0.585325
C26   C     C_R   0.120677 0.500187 0.121332 0.590429
C27   C     C_R   0.999748 0.379494 0.882044 0.567379
C28   C     C_R   0.620624 0.498934 0.619404 0.611370
C29   C     C_R   0.883341 0.489350 0.872315 0.567355
C30   C     C_R   0.001618 0.879933 0.381089 0.650258
C31   C     C_R   0.879576 0.880082 0.500813 0.580173
C32   C     C_R   0.997510 0.118188 0.620260 0.579923
C33   C     C_R   0.119386 0.120072 0.498741 0.649346
C34   C     C_3   0.310507 0.500594 0.313270 -0.014358
C35   C     C_3   0.938348 0.642232 0.215022 0.062446
C36   C     C_3   0.927154 0.714910 0.271880 0.118090
C37   C     C_3   0.094989 0.740037 0.284871 0.067397
C38   C     C_3   0.982703 0.754289 0.163462 0.273849
C39   C     C_3   0.007923 0.689292 0.194334 -0.071898
C40   C     C_3   0.313488 0.583746 0.309711 -0.103089
C41   C     C_3   0.003265 0.808391 0.314610 -0.108272
C42   C     C_3   0.087947 0.804020 0.354411 -0.210902
C43   C     C_3   0.996434 0.829515 0.241681 -0.238764
C44   C     C_3   0.988973 0.227577 0.831475 0.106927
C45   C     C_3   0.712589 0.649759 0.443013 -0.282213
C46   C     C_3   0.987351 0.154571 0.758158 0.057592
C47   C     C_3   0.921931 0.276215 0.727673 -0.287134
C48   C     C_3   0.079968 0.348299 0.813627 -0.172195
C49   C     C_3   0.998129 0.307919 0.815647 -0.121607
C50   C     C_3   0.999246 0.187596 0.692765 -0.078041
C51   C     C_3   0.916885 0.202337 0.655193 0.080775
C52   C     C_3   0.218707 0.548416 0.286172 -0.136926
C53   C     C_3   0.087527 0.280459 0.748578 0.354672
C54   C     C_3   0.189142 0.500443 0.190520 0.026632
C55   C     C_3   0.282747 0.535208 0.213986 0.257139
C56   C     C_3   0.775562 0.716043 0.435109 -0.187086
C57   C     C_3   0.281083 0.452505 0.217836 -0.066749
C58   C     C_3   0.654453 0.751400 0.476022 -0.195477
C59   C     C_3   0.770753 0.759025 0.598407 0.108343
C60   C     C_3   0.688094 0.695041 0.506402 -0.073313
Cu1   Cu    Cu3+1 0.500160 0.437540 0.437660 1.162670
Cu2   Cu    Cu3+1 0.499840 0.562460 0.562340 1.206368
Cu3   Cu    Cu3+1 0.938720 0.437560 0.001120 1.213301
Cu4   Cu    Cu3+1 0.063680 0.562470 0.001100 1.265200
Cu5   Cu    Cu3+1 0.062620 0.000040 0.562660 1.266102
Cu6   Cu    Cu3+1 0.937380 0.999960 0.437350 1.256385
H1    H     H_    0.192251 0.587660 0.313475 0.194628
H2    H     H_    0.196649 0.250832 0.364798 0.143021
H3    H     H_    0.372395 0.240016 0.527084 0.197715
H4    H     H_    0.291023 0.405260 0.580450 0.230595
H5    H     H_    0.219721 0.366712 0.472012 0.128297
H6    H     H_    0.117653 0.265540 0.476562 0.220105
H7    H     H_    0.307139 0.413394 0.189585 0.201815
H8    H     H_    0.194467 0.306794 0.582774 0.252610
H9    H     H_    0.875019 0.597846 0.154756 0.208116
H10   H     H_    0.871756 0.714919 0.228145 0.195403
H11   H     H_    0.099665 0.690007 0.302968 0.207126
H12   H     H_    0.785713 0.715354 0.621560 0.176933
H13   H     H_    0.090236 0.782153 0.402142 0.218726
H14   H     H_    0.055539 0.888708 0.268761 0.260515
H15   H     H_    0.860863 0.252000 0.727003 0.171067
H16   H     H_    0.861327 0.141601 0.636064 0.142778
H17   H     H_    0.136759 0.385744 0.879467 0.222220
H18   H     H_    0.929843 0.333961 0.718048 0.218969
H19   H     H_    0.654312 0.602783 0.377867 0.182072
H20   H     H_    0.828914 0.701676 0.444053 0.236974
H21   H     H_    0.740104 0.704228 0.369411 0.257845
H22   H     H_    0.598967 0.706813 0.409103 0.189620
H23   H     H_    0.875606 0.883843 0.640008 0.209275
H24   H     H_    0.659693 0.795609 0.262222 0.385198
H25   H     H_    0.782543 0.967532 0.728183 0.393549
H26   H     H_    0.932940 0.659578 0.590035 0.403693
H27   H     H_    0.629406 0.780620 0.514474 0.195143
H28   H     H_    0.366331 0.652076 0.357132 0.166542
H29   H     H_    0.484662 0.191755 0.565080 0.378249
H30   H     H_    0.749549 0.248193 0.825873 0.370345
H31   H     H_    0.776318 0.551866 0.648602 0.090650
H32   H     H_    0.841955 0.484047 0.697318 0.111862
H33   H     H_    0.700140 0.719737 0.901000 0.378349
H34   H     H_    0.748957 0.889050 0.536390 0.183790
H35   H     H_    0.878965 0.695375 0.706341 0.379175
H36   H     H_    0.460716 0.634244 0.187975 0.399059
H37   H     H_    0.074686 0.595203 0.829672 0.375511
H38   H     H_    0.375139 0.173580 0.316149 0.380060
H39   H     H_    0.945523 0.988046 0.244404 0.367546
H40   H     H_    0.317382 0.054274 0.456060 0.379675
H41   H     H_    0.287558 0.159008 0.556676 0.149762
H42   H     H_    0.459862 0.273172 0.695304 0.376608
H43   H     H_    0.288656 0.144603 0.692684 0.361390
H44   H     H_    0.011976 0.572936 0.378829 0.381401
H45   H     H_    0.707912 0.396037 0.602946 0.111300
H46   H     H_    0.945637 0.677557 0.445392 0.388089
H47   H     H_    0.169119 0.866478 0.142726 0.392979
H48   H     H_    0.134294 0.348971 0.147825 0.226514
H49   H     H_    0.859884 0.799563 0.045128 0.373904
H50   H     H_    0.943975 0.845603 0.220204 0.184697
H51   H     H_    0.320303 0.797154 0.386172 0.386111
H52   H     H_    0.144545 0.869404 0.391714 0.230274
H53   H     H_    0.923179 0.197372 0.820300 0.118309
H54   H     H_    0.950129 0.197350 0.959504 0.359496
H55   H     H_    0.000064 0.007278 0.847155 0.419378
H56   H     H_    0.783658 0.359956 0.693280 0.130815
H57   H     H_    0.919465 0.101616 0.718769 0.092285
H58   H     H_    0.190944 0.436523 0.324268 0.156067
H59   H     H_    0.081305 0.402674 0.799874 0.200309
H60   H     H_    0.323262 0.365080 0.881416 0.399958
H61   H     H_    0.056128 0.396034 0.622291 0.390843
H62   H     H_    0.749769 0.119504 0.434216 0.389072
H63   H     H_    0.739776 0.609897 0.463377 0.208293
H64   H     H_    0.633883 0.441125 0.750381 0.237561
H65   H     H_    0.748727 0.487465 0.870589 0.228288
H66   H     H_    0.809370 0.588888 0.882515 0.264703
O1    O     O_R   0.591300 0.538410 0.447360 -0.535343
O2    O     O_R   0.947410 0.908840 0.356190 -0.484322
O3    O     O_R   0.961720 0.908880 0.552900 -0.427613
O4    O     O_R   0.591030 0.643900 0.552660 -0.460839
O5    O     O_R   0.855960 0.908820 0.447080 -0.437345
O6    O     O_R   0.052590 0.091170 0.643810 -0.429347
O7    O     O_R   0.946830 0.091100 0.537990 -0.445551
O8    O     O_R   0.144040 0.091190 0.552920 -0.497604
O9    O     O_R   0.038280 0.091120 0.447100 -0.439578
O10   O     O_R   0.408770 0.447260 0.356000 -0.488904
O11   O     O_R   0.408500 0.552750 0.461290 -0.534790
O12   O     O_R   0.053760 0.643910 0.092060 -0.426666
O13   O     O_R   0.408970 0.356100 0.447340 -0.407136
O14   O     O_R   0.408700 0.461590 0.552640 -0.476935
O15   O     O_R   0.591500 0.447250 0.538710 -0.490755
O16   O     O_R   0.591230 0.552740 0.644000 -0.394557
O17   O     O_R   0.948230 0.538430 0.092080 -0.467796
O18   O     O_2   0.586272 0.812929 0.359751 -0.234887
O19   O     O_2   0.723837 0.935117 0.415171 -0.210354
O20   O     O_3   0.684281 0.779962 0.306506 -0.490559
O21   O     O_2   0.682066 0.793060 0.681107 -0.198349
O22   O     O_2   0.837431 0.865362 0.766785 -0.154084
O23   O     O_R   0.039800 0.447260 0.092470 -0.460925
O24   O     O_3   0.768699 0.923799 0.672126 -0.582596
O25   O     O_2   0.990514 0.805441 0.591428 -0.214017
O26   O     O_2   0.982536 0.828692 0.717692 -0.153568
O27   O     O_3   0.885268 0.672942 0.582200 -0.611330
O28   O     O_2   0.522587 0.292470 0.491034 -0.200632
O29   O     O_2   0.606485 0.223396 0.529491 -0.200896
O30   O     O_3   0.526693 0.254250 0.608410 -0.453201
O31   O     O_2   0.654865 0.324899 0.787847 -0.232187
O32   O     O_2   0.643493 0.211781 0.667668 -0.171156
O33   O     O_3   0.778791 0.287982 0.809438 -0.518427
O34   O     O_R   0.145330 0.552750 0.092450 -0.449731
O35   O     O_2   0.568485 0.570997 0.764111 -0.166193
O36   O     O_2   0.645354 0.561441 0.888976 -0.168408
O37   O     O_3   0.723329 0.688471 0.871672 -0.393236
O38   O     O_2   0.741800 0.694573 0.745276 -0.175636
O39   O     O_2   0.858776 0.708037 0.866889 -0.102053
O40   O     O_3   0.888486 0.737004 0.760159 -0.371242
O41   O     O_2   0.286354 0.521184 0.072298 -0.210421
O42   O     O_2   0.331526 0.668183 0.182160 -0.208694
O43   O     O_3   0.435018 0.603169 0.212863 -0.501374
O44   O     O_2   0.964521 0.628600 0.725636 -0.265487
O45   O     O_R   0.948640 0.356110 0.910160 -0.461586
O46   O     O_2   0.999086 0.689186 0.874450 -0.132171
O47   O     O_3   0.014807 0.551827 0.806056 -0.504949
O48   O     O_2   0.202853 0.108758 0.237286 -0.125532
O49   O     O_2   0.288481 0.262489 0.291568 -0.282676
O50   O     O_3   0.358949 0.184166 0.360131 -0.401397
O51   O     O_2   0.028694 0.162490 0.333856 -0.304158
O52   O     O_2   0.065625 0.097153 0.232208 -0.171868
O53   O     O_3   0.003046 0.004527 0.289365 -0.499816
O54   O     O_2   0.166480 0.007336 0.417410 -0.394142
O55   O     O_2   0.167119 0.002774 0.290427 -0.113646
O56   O     O_R   0.054170 0.461590 0.910140 -0.515787
O57   O     O_3   0.309579 0.093995 0.433054 -0.507984
O58   O     O_2   0.505457 0.395637 0.631335 -0.278969
O59   O     O_2   0.425576 0.440864 0.691191 -0.160477
O60   O     O_3   0.480774 0.336920 0.728137 -0.369803
O61   O     O_2   0.350738 0.354040 0.739256 -0.089978
O62   O     O_2   0.212046 0.237244 0.671356 -0.205388
O63   O     O_3   0.337041 0.204383 0.720846 -0.472041
O64   O     O_2   0.871262 0.494072 0.225223 -0.178808
O65   O     O_2   0.004132 0.527266 0.226042 -0.295646
O66   O     O_3   0.014550 0.619984 0.363809 -0.510792
O67   O     O_R   0.857070 0.447280 0.909760 -0.453808
O68   O     O_2   0.847488 0.753109 0.345182 -0.319619
O69   O     O_2   0.819749 0.601765 0.293886 -0.225468
O70   O     O_3   0.966535 0.726373 0.434212 -0.460899
O71   O     O_2   0.005897 0.738602 0.028801 -0.161414
O72   O     O_2   0.030016 0.881302 0.121441 -0.190071
O73   O     O_3   0.147482 0.839763 0.172568 -0.396461
O74   O     O_2   0.841693 0.603825 0.021457 -0.294122
O75   O     O_2   0.806223 0.702232 0.101898 -0.296005
O76   O     O_3   0.862180 0.746323 0.014311 -0.372246
O77   O     O_2   0.205600 0.739195 0.225200 -0.202300
O78   O     O_R   0.962600 0.552760 0.909740 -0.427088
O79   O     O_2   0.237269 0.883044 0.329118 -0.175296
O80   O     O_3   0.264474 0.777852 0.382875 -0.542048
O81   O     O_2   0.092315 0.204648 0.963797 -0.142345
O82   O     O_2   0.127313 0.353659 0.993446 -0.253193
O83   O     O_3   0.991804 0.260267 0.986903 -0.511063
O84   O     O_2   0.007492 0.007176 0.710865 -0.269728
O85   O     O_2   0.122410 0.129400 0.849970 -0.109782
O86   O     O_3   0.975974 0.043774 0.830907 -0.469901
O87   O     O_2   0.194878 0.294173 0.900827 -0.203564
O88   O     O_2   0.192042 0.199822 0.778073 -0.172111
O89   O     O_R   0.053170 0.908900 0.462020 -0.478946
O90   O     O_3   0.274081 0.367592 0.842620 -0.391204
O91   O     O_2   0.194909 0.394054 0.722753 -0.191868
O92   O     O_2   0.078595 0.253260 0.597194 -0.285346
O93   O     O_3   0.043157 0.374056 0.658976 -0.491658
O94   O     O_2   0.850449 0.280832 0.568968 -0.252630
O95   O     O_2   0.922726 0.212943 0.514199 -0.170601
O96   O     O_3   0.776309 0.112452 0.484680 -0.449473
S1    S     S_3+6 0.678880 0.839729 0.389259 0.039295
S2    S     S_3+6 0.270753 0.193747 0.318178 0.122713
S3    S     S_3+6 0.067172 0.105004 0.312603 0.077531
S4    S     S_3+6 0.204097 0.060722 0.383830 0.064491
S5    S     S_3+6 0.441192 0.366295 0.654537 0.111020
S6    S     S_3+6 0.295518 0.257636 0.676812 0.092152
S7    S     S_3+6 0.956493 0.567581 0.256306 0.044250
S8    S     S_3+6 0.887851 0.695515 0.336957 0.027578
S9    S     S_3+6 0.042230 0.803985 0.120404 0.146026
S10   S     S_3+6 0.869948 0.698560 0.075446 0.025006
S11   S     S_3+6 0.201559 0.786912 0.301839 0.048393
S12   S     S_3+6 0.762584 0.834408 0.681162 0.043212
S13   S     S_3+6 0.054874 0.261380 0.945281 0.086131
S14   S     S_3+6 0.028039 0.084391 0.787447 0.111330
S15   S     S_3+6 0.186534 0.281339 0.816830 0.148115
S16   S     S_3+6 0.103532 0.325414 0.680428 0.069118
S17   S     S_3+6 0.870041 0.205890 0.555154 0.095582
S18   S     S_3+6 0.929732 0.782399 0.621572 0.026528
S19   S     S_3+6 0.581892 0.290198 0.565716 0.118956
S20   S     S_3+6 0.702477 0.301400 0.745501 0.069533
S21   S     S_3+6 0.652803 0.581751 0.821801 0.152604
S22   S     S_3+6 0.815125 0.675970 0.772705 0.128229
S23   S     S_3+6 0.332964 0.583252 0.166953 0.082356
S24   S     S_3+6 0.958837 0.606053 0.792124 0.088765

loop_
_geom_bond_atom_site_label_1
_geom_bond_atom_site_label_2
_ccdc_geom_bond_type
C44   C49   S    
H38   O50   S    
C45   C60   S    
C45   H63   S    
C8    C13   S    
C12   C57   S    
H44   O66   S    
C53   S15   S    
C6    H45   S    
C19   H5    S    
C35   C36   S    
C53   S16   S    
H46   O70   S    
C5    S18   S    
C8    H31   S    
C3    S1    S    
C4    O11   A    
Cu5   O89   S    
C17   S3    S    
C18   S5    S    
Cu1   O1    S    
O60   S5    S    
C47   C49   S    
Cu6   O9    S    
C14   H66   S    
C9    H64   S    
O24   S12   S    
O93   S16   S    
C7    C11   S    
O36   S21   D    
C12   C23   S    
C8    S22   S    
O18   S1    D    
H26   O27   S    
C34   C40   S    
C25   O17   A    
C51   S17   S    
C58   H27   S    
O29   S19   D    
C2    C3    S    
O66   S7    S    
C4    O10   A    
C38   C39   S    
C11   C14   S    
O42   S23   D    
C37   S11   S    
O54   S4    D    
O30   S19   S    
C33   O8    A    
C58   C60   S    
C22   H41   S    
O22   S12   D    
C13   H32   S    
O38   S22   D    
H35   O40   S    
C16   O14   A    
H55   O86   S    
C57   H7    S    
C37   C42   S    
O74   S10   D    
Cu1   O13   S    
O85   S14   D    
Cu3   O17   S    
Cu4   O34   S    
C36   H10   S    
O75   S10   D    
C48   H59   S    
C22   S6    S    
Cu5   O8    S    
O43   S23   S    
C3    H34   S    
O50   S2    S    
Cu6   O7    S    
C19   C20   S    
C45   C56   S    
C52   C54   S    
C30   O2    A    
C34   C57   S    
C30   C41   S    
C31   O5    A    
C1    O4    A    
C59   C60   S    
C9    C10   S    
O49   S2    D    
H37   O47   S    
H62   O96   S    
C23   C34   S    
C18   H3    S    
O86   S14   S    
C41   C42   S    
C42   H13   S    
Cu2   O16   S    
H49   O76   S    
O84   S14   D    
C41   C43   S    
Cu4   O78   S    
C36   C41   S    
C15   C20   S    
O33   S20   S    
O62   S6    D    
C1    O1    A    
C26   C54   S    
C59   H12   S    
C26   O23   A    
C17   S4    S    
C44   C46   S    
C44   S13   S    
C30   O89   A    
C12   H48   S    
C14   H65   S    
O65   S7    D    
C48   C53   S    
O53   S3    S    
O88   S15   D    
C4    C34   S    
O83   S13   S    
C50   C53   S    
C28   O16   A    
C5    C59   S    
O68   S8    D    
C6    S19   S    
C29   O78   A    
O57   S4    S    
C32   O7    A    
C31   O3    A    
C1    C60   S    
O37   S21   S    
C42   H52   S    
O69   S8    D    
C47   C51   S    
O96   S17   S    
Cu4   O12   S    
C44   H53   S    
C33   O9    A    
C43   H14   S    
C40   C52   S    
C37   H11   S    
C7    S20   S    
O41   S23   D    
Cu3   O45   S    
C15   H2    S    
C2    C31   S    
H54   O83   S    
H47   O73   S    
C45   H19   S    
C9    C14   S    
O27   S18   S    
C32   O6    A    
O31   S20   D    
C43   H50   S    
C38   S10   S    
C56   H20   S    
O39   S22   D    
O91   S16   D    
C16   C20   S    
C40   C55   S    
O48   S2    D    
C50   C51   S    
O46   S24   D    
O63   S6    S    
O58   S5    D    
Cu5   O3    S    
C47   H18   S    
O73   S9    S    
C51   H16   S    
C32   C50   S    
Cu4   O56   S    
C52   H1    S    
H42   O60   S    
C35   H9    S    
O55   S4    D    
H24   O20   S    
C48   C49   S    
O82   S13   D    
C15   S2    S    
O79   S11   D    
C55   S23   S    
C46   H57   S    
H29   O30   S    
C2    C5    S    
C35   S7    S    
Cu5   O6    S    
O28   S19   D    
O76   S10   S    
O51   S3    D    
O61   S6    D    
C24   H6    S    
O94   S17   D    
C27   O45   A    
O20   S1    S    
O25   S18   D    
C10   C28   S    
C15   C17   S    
C13   S24   S    
C54   C55   S    
C26   O34   A    
C28   O15   A    
O21   S12   D    
C18   C22   S    
O95   S17   D    
H51   O80   S    
O92   S16   D    
O77   S11   D    
O52   S3    D    
C40   H28   S    
O72   S9    D    
C56   H21   S    
C58   H22   S    
O44   S24   D    
O90   S15   S    
H60   O90   S    
C6    C7    S    
H33   O37   S    
O64   S7    D    
O59   S5    D    
O26   S18   D    
C36   S8    S    
C46   C50   S    
H39   O53   S    
O35   S21   D    
C48   H17   S    
C9    S21   S    
O40   S22   S    
C55   C57   S    
C19   C24   S    
H36   O43   S    
Cu3   O23   S    
H25   O24   S    
C37   C39   S    
C2    C56   S    
C25   C39   S    
C38   S9    S    
Cu2   O4    S    
O47   S24   S    
C11   C13   S    
C29   O67   A    
C24   H8    S    
C23   C52   S    
O19   S1    D    
Cu6   O5    S    
C35   C39   S    
O81   S13   D    
Cu3   O67   S    
H43   O63   S    
C18   C20   S    
C27   O56   A    
C47   H15   S    
Cu1   O15   S    
Cu1   Cu2   S    
O32   S20   D    
C12   C54   S    
O71   S9    D    
O80   S11   S    
C6    C10   S    
O70   S8    S    
Cu3   Cu4   S    
C25   O12   A    
C3    C58   S    
Cu1   O10   S    
C38   C43   S    
C21   C33   S    
Cu2   O11   S    
C11   C29   S    
C8    C10   S    
Cu5   Cu6   S    
Cu2   O14   S    
C21   C24   S    
C59   S12   S    
H61   O93   S    
C46   S14   S    
H30   O33   S    
C16   O13   A    
C19   H4    S    
C7    H56   S    
H40   O57   S    
O87   S15   D    
Cu6   O2    S    
C21   C22   S    
C23   H58   S    
C5    H23   S    
C27   C49   S    
C17   C21   S    
