data_mof_unit_42016.cif
_audit_creation_date              2012-12-10T19:04:13-0500
_audit_creation_method            fapswitch 2.2
_symmetry_space_group_name_H-M    P1
_symmetry_Int_Tables_number       1
_space_group_crystal_system       triclinic
_cell_length_a                    10.6828
_cell_length_b                    10.827813
_cell_length_c                    9.620737
_cell_angle_alpha                 90.555771
_cell_angle_beta                  91.465049
_cell_angle_gamma                 91.119055
_cell_volume                      1112.20986589

loop_
_atom_site_label
_atom_site_type_symbol
_atom_type_description
_atom_site_fract_x
_atom_site_fract_y
_atom_site_fract_z
_atom_type_partial_charge
C1    C     C_R   0.501178 0.262652 0.499650 0.871500
C2    C     C_3   0.955807 0.581448 0.404202 -0.211574
C3    C     C_3   0.034441 0.467685 0.370884 -0.061724
C4    C     C_3   0.122959 0.500788 0.494022 -0.051196
C5    C     C_R   0.528079 0.065336 0.622893 0.098758
C6    C     C_R   0.510887 0.129635 0.498959 -0.053231
C7    C     C_R   0.508946 0.063240 0.372826 -0.194129
C8    C     C_R   0.505644 0.934714 0.373210 -0.160980
C9    C     C_R   0.506470 0.870864 0.499808 -0.065036
C10   C     C_R   0.523451 0.938278 0.623381 0.032326
C11   C     C_3   0.456950 0.934790 0.758674 -0.216924
C12   C     C_R   0.259642 0.500257 0.498140 0.828218
C13   C     C_3   0.464685 0.075681 0.759056 -0.427887
C14   C     C_R   0.556332 0.594958 0.076577 0.168303
C15   C     C_R   0.434863 0.411453 0.068177 0.056319
C16   C     C_R   0.432428 0.415551 0.920536 -0.033931
C17   C     C_R   0.565082 0.587986 0.930332 0.230858
C18   C     C_3   0.704646 0.610296 0.939184 -0.327798
C19   C     C_3   0.689955 0.636602 0.094053 -0.302010
C20   C     C_R   0.499576 0.737390 0.500338 0.792510
C21   C     C_R   0.740496 0.501471 0.501273 0.862740
C22   C     C_3   0.044662 0.421020 0.592284 -0.185635
C23   C     C_3   0.955366 0.388067 0.467982 -0.058260
C24   C     C_3   0.877436 0.501236 0.502014 -0.087585
C25   C     C_3   0.965685 0.535687 0.625531 -0.120569
C26   C     C_3   0.046069 0.614945 0.527663 -0.133903
Cu1   Cu    Cu3+1 0.499990 0.499980 0.640670 1.005767
Cu2   Cu    Cu3+1 0.500010 0.500020 0.359330 1.028583
H1    H     H_    0.746386 0.576787 0.163085 0.185486
H2    H     H_    0.938169 0.571788 0.727369 0.184288
H3    H     H_    0.497258 0.886078 0.274575 0.199730
N1    N     N_R   0.500800 0.500930 0.147930 -0.225589
N2    N     N_R   0.500800 0.500890 0.852020 -0.169963
O1    O     O_R   0.500000 0.319640 0.618810 -0.580774
O2    O     O_R   0.500010 0.319680 0.381230 -0.560691
O3    O     O_R   0.316850 0.499950 0.618770 -0.585614
O4    O     O_R   0.316860 0.499990 0.381190 -0.527730
O5    O     O_R   0.499990 0.680320 0.618770 -0.589155
O6    O     O_R   0.500000 0.680360 0.381190 -0.582210
O7    O     O_R   0.683140 0.500010 0.618810 -0.566401
O8    O     O_R   0.683150 0.500050 0.381230 -0.582625
C27   C     C_2   0.911454 0.258246 0.436762 0.886678
O9    O     O_2   0.988462 0.177286 0.423070 -0.544869
O10   O     O_R   0.783841 0.230193 0.422508 -0.779128
H4    H     H_    0.767278 0.139633 0.399913 0.329271
H5    H     H_    0.514703 0.892682 0.842582 0.199314
H6    H     H_    0.373191 0.122715 0.750128 0.222763
H7    H     H_    0.529302 0.114139 0.841657 0.238181
C28   C     C_2   0.369742 0.302169 0.126106 0.846877
O11   O     O_2   0.302464 0.311237 0.225626 -0.546934
O12   O     O_R   0.378123 0.187928 0.058116 -0.807704
H8    H     H_    0.325578 0.120692 0.102335 0.351479
H9    H     H_    0.378965 0.347146 0.859989 0.152750
C29   C     C_2   0.782337 0.495679 0.921064 0.869289
O13   O     O_2   0.892564 0.499256 0.958400 -0.601667
O14   O     O_R   0.729104 0.385255 0.868455 -0.716839
H10   H     H_    0.791942 0.316523 0.862994 0.338790
H11   H     H_    0.736736 0.690345 0.876881 0.154440
C30   C     C_2   0.701784 0.771711 0.133987 0.880727
O15   O     O_2   0.654746 0.850674 0.060303 -0.623337
O16   O     O_R   0.765936 0.806246 0.256982 -0.777393
H12   H     H_    0.768178 0.898959 0.273003 0.341985
H13   H     H_    0.082512 0.355076 0.669639 0.168884
H14   H     H_    0.085666 0.708348 0.551096 0.158596
H15   H     H_    0.920384 0.647240 0.326055 0.213123
C31   C     C_2   0.067498 0.438841 0.223866 0.969059
O17   O     O_2   0.034055 0.340594 0.169955 -0.542263
O18   O     O_R   0.134550 0.526264 0.148180 -0.717207
H16   H     H_    0.151451 0.496904 0.050164 0.343768
H17   H     H_    0.505394 0.109910 0.274182 0.201819
C32   C     C_2   0.324590 0.884070 0.747117 0.902056
O19   O     O_2   0.291655 0.800844 0.823811 -0.577749
O20   O     O_R   0.239731 0.932879 0.650121 -0.747786
H18   H     H_    0.152474 0.895654 0.657578 0.330763

loop_
_geom_bond_atom_site_label_1
_geom_bond_atom_site_label_2
_ccdc_geom_bond_type
C31   O18   S    
O20   H18   S    
C3    C23   S    
C2    H15   S    
C7    H17   S    
C7    C8    A    
Cu1   N2    S    
C23   C27   S    
C17   N2    A    
C5    C6    A    
C11   C32   S    
Cu1   O5    S    
C15   C16   A    
Cu2   O8    S    
C4    C22   S    
O14   H10   S    
C18   C19   S    
C12   O4    A    
C26   H14   S    
C16   H9    S    
C22   H13   S    
C18   H11   S    
Cu2   O2    S    
C8    C9    A    
C28   O12   S    
C22   C25   S    
C23   C24   S    
C12   O3    A    
C9    C10   A    
C5    C13   S    
C31   O17   D    
C30   O15   D    
C14   C17   A    
C27   O10   S    
C1    O1    A    
Cu1   O1    S    
C29   O14   S    
C30   O16   S    
O12   H8    S    
Cu2   N1    S    
C24   C25   S    
C13   H6    S    
C20   O6    A    
O18   H16   S    
Cu2   O6    S    
C19   C30   S    
C25   C26   S    
C1    C6    S    
C16   N2    A    
C20   O5    A    
C9    C20   S    
Cu1   O7    S    
C17   C18   S    
C2    C26   S    
C21   O8    A    
C2    C24   S    
C3    C31   S    
C4    C12   S    
C27   O9    D    
C3    C4    S    
C19   H1    S    
O10   H4    S    
C1    O2    A    
C32   O20   S    
C25   H2    S    
C29   O13   D    
C8    H3    S    
C14   C19   S    
C14   N1    A    
C15   N1    A    
C13   H7    S    
C4    C26   S    
C6    C7    A    
Cu1   O3    S    
C2    C3    S    
C32   O19   D    
C11   C13   S    
C21   O7    A    
Cu2   O4    S    
C15   C28   S    
O16   H12   S    
C10   C11   S    
C18   C29   S    
C5    C10   A    
C28   O11   D    
C21   C24   S    
Cu1   Cu2   S    
C22   C23   S    
C11   H5    S    
