data_mof_unit_7689.cif
_audit_creation_date              2012-12-11T15:44:58-0500
_audit_creation_method            fapswitch 2.2
_symmetry_space_group_name_H-M    P1
_symmetry_Int_Tables_number       1
_space_group_crystal_system       triclinic
_cell_length_a                    6.935518
_cell_length_b                    16.78366
_cell_length_c                    17.072286
_cell_angle_alpha                 100.268014
_cell_angle_beta                  89.435399
_cell_angle_gamma                 90.436069
_cell_volume                      1955.31542921

loop_
_atom_site_label
_atom_site_type_symbol
_atom_type_description
_atom_site_fract_x
_atom_site_fract_y
_atom_site_fract_z
_atom_type_partial_charge
O1    O     O_R   0.494370 0.415690 0.413450 -0.545782
O2    O     O_R   0.819420 0.429360 0.578420 -0.539203
O3    O     O_R   0.994280 0.584310 0.586550 -0.522691
C1    C     C_R   0.651594 0.413863 0.605385 0.744918
O4    O     O_R   0.823790 0.406230 0.413570 -0.546218
O5    O     O_R   0.998670 0.561000 0.420530 -0.538616
C2    C     C_R   0.655022 0.383097 0.384874 0.670359
O6    O     O_R   0.489970 0.439000 0.579470 -0.531311
O7    O     O_3   0.662300 0.550810 0.502470 -0.357450
V1    V     V_3+5 0.935380 0.490570 0.499540 1.432394
O8    O     O_R   0.328650 0.570640 0.421580 -0.545145
C3    C     C_R   0.162270 0.585973 0.394491 0.701465
O9    O     O_R   0.324290 0.593770 0.586430 -0.531594
C4    C     C_R   0.154503 0.615415 0.616555 0.730052
V2    V     V_3+5 0.435930 0.509430 0.500460 1.438288
O10   O     O_3   0.159140 0.449190 0.497530 -0.374726
C5    C     C_R   0.294623 0.738461 0.702824 -0.155112
H1    H     H_    0.421923 0.732611 0.665040 0.147503
C6    C     C_R   0.285755 0.803032 0.767287 -0.140803
H2    H     H_    0.406662 0.844694 0.777619 0.123679
C7    C     C_R   0.121519 0.814620 0.816789 -0.083898
C8    C     C_R   0.968440 0.759323 0.801374 -0.166585
H3    H     H_    0.842354 0.766157 0.839888 0.147117
C9    C     C_R   0.977369 0.693372 0.738320 0.147367
C10   C     C_R   0.141088 0.682752 0.686669 -0.084539
C11   C     C_R   0.168156 0.636880 0.331352 -0.110857
C12   C     C_R   0.098538 0.861069 0.166865 -0.056748
C13   C     C_R   0.919924 0.812091 0.272755 -0.177283
C14   C     C_R   0.940004 0.865692 0.219397 -0.172126
C15   C     C_R   0.238464 0.801516 0.169210 -0.241969
C16   C     C_R   0.218580 0.745169 0.222040 0.092662
C17   C     C_R   0.056149 0.751235 0.274297 0.147980
C18   C     C_R   0.031761 0.697070 0.327983 -0.255743
C19   C     C_R   0.326810 0.629814 0.278609 -0.155289
C20   C     C_R   0.355079 0.682677 0.223598 0.116275
H4    H     H_    0.909906 0.703397 0.368857 0.128173
H5    H     H_    0.429446 0.582427 0.281800 0.135502
H6    H     H_    0.795327 0.817491 0.312128 0.119422
H7    H     H_    0.829397 0.910797 0.218709 0.122627
H8    H     H_    0.357957 0.798164 0.127616 0.118722
C21   C     C_R   0.655562 0.363470 0.668826 -0.063849
C22   C     C_R   0.609182 0.136243 0.830964 -0.068433
C23   C     C_R   0.422435 0.181446 0.726182 -0.188940
C24   C     C_R   0.450844 0.127740 0.778789 -0.160836
C25   C     C_R   0.742397 0.199076 0.827924 -0.236812
C26   C     C_R   0.713279 0.254157 0.775439 0.153016
C27   C     C_R   0.551235 0.245649 0.724459 0.159087
C28   C     C_R   0.522118 0.300745 0.671980 -0.246375
C29   C     C_R   0.814095 0.371862 0.720912 -0.129952
C30   C     C_R   0.842244 0.318276 0.773638 -0.190820
H9    H     H_    0.401226 0.292729 0.631500 0.118215
H10   H     H_    0.919881 0.419467 0.719670 0.146983
H11   H     H_    0.297948 0.173350 0.687638 0.120271
H12   H     H_    0.966807 0.326338 0.812141 0.127032
H13   H     H_    0.345471 0.079941 0.779888 0.121719
H14   H     H_    0.863217 0.207135 0.868442 0.121750
C31   C     C_R   0.811691 0.276029 0.282056 -0.156546
H15   H     H_    0.952322 0.294966 0.305682 0.115331
C32   C     C_R   0.800390 0.212252 0.216972 -0.152655
H16   H     H_    0.932950 0.183934 0.192647 0.118252
C33   C     C_R   0.620917 0.185361 0.183926 -0.046865
C34   C     C_R   0.453078 0.224108 0.217864 -0.156242
H17   H     H_    0.312451 0.205179 0.194229 0.116370
C35   C     C_R   0.464380 0.287889 0.282948 -0.153915
H18   H     H_    0.331827 0.316221 0.307263 0.117297
C36   C     C_R   0.643845 0.314733 0.316032 -0.043860
O11   O     O_R   0.774880 0.061150 0.920630 -0.537058
O12   O     O_R   0.440980 0.093710 0.086500 -0.543082
O13   O     O_R   0.266190 0.938890 0.079390 -0.537539
C37   C     C_R   0.609745 0.116912 0.115156 0.684402
O14   O     O_R   0.445420 0.070740 0.921670 -0.541269
O15   O     O_R   0.270660 0.915760 0.913380 -0.539752
C38   C     C_R   0.613168 0.085806 0.894355 0.700914
O16   O     O_R   0.770400 0.084270 0.086640 -0.542157
O17   O     O_3   0.602590 0.949210 0.997500 -0.366777
V3    V     V_3+5 0.329470 0.009420 0.000470 1.406124
O18   O     O_R   0.940650 0.906250 0.913470 -0.542613
C39   C     C_R   0.110112 0.883391 0.884826 0.697623
O19   O     O_R   0.936210 0.929220 0.078300 -0.541322
C40   C     C_R   0.102749 0.913516 0.105082 0.699496
V4    V     V_3+5 0.828930 0.990510 0.999490 1.407158
O20   O     O_3   0.105680 0.050790 0.002500 -0.369453
I1    I     I_    0.740010 0.611640 0.733050 -0.449010
C41   C     C_3   0.528678 0.673962 0.166985 -0.363194
C42   C     C_3   0.668858 0.605469 0.173336 -0.748013
H19   H     H_    0.730665 0.613417 0.233953 0.228459
H20   H     H_    0.595063 0.545773 0.158691 0.222522
H21   H     H_    0.789578 0.606583 0.130309 0.228471
H22   H     H_    0.475347 0.663949 0.104799 0.186522
H23   H     H_    0.612331 0.731496 0.177575 0.189501

loop_
_geom_bond_atom_site_label_1
_geom_bond_atom_site_label_2
_ccdc_geom_bond_type
C33   C37   S    
C12   C14   A    
C19   H5    S    
C6    H2    S    
C31   C36   A    
O17   V3    S    
V4    O20   S    
O18   C39   A    
C30   H12   S    
C22   C24   A    
C13   C14   A    
C6    C7    A    
C9    I1    S    
O5    C3    A    
O14   V3    S    
C31   C32   A    
C1    C21   S    
V2    O10   S    
C18   H4    S    
O13   V3    S    
C19   C20   A    
C34   C35   A    
O8    V2    S    
C11   C19   A    
C28   H9    S    
C27   C28   A    
C25   H14   S    
C7    C39   S    
C37   O16   A    
O15   C39   A    
O11   C38   A    
C13   H6    S    
O7    V1    S    
C1    O6    A    
C32   H16   S    
O9    C4    A    
C12   C15   A    
C41   H23   S    
C21   C29   A    
C23   H11   S    
C42   H20   S    
C32   C33   A    
C13   C17   A    
C9    C10   A    
C12   C40   S    
V3    O20   S    
O4    C2    A    
O17   V4    S    
C42   H19   S    
C3    C11   S    
C22   C25   A    
C35   C36   A    
O2    C1    A    
C23   C24   A    
C34   H17   S    
C11   C18   A    
C16   C17   A    
O18   V4    S    
O8    C3    A    
C29   H10   S    
C14   H7    S    
C5    H1    S    
C15   H8    S    
O15   V3    S    
C41   C42   S    
O3    C4    A    
O1    V2    S    
O11   V4    S    
O6    V2    S    
O9    V2    S    
C16   C20   A    
C41   H22   S    
O16   V4    S    
O2    V1    S    
O19   V4    S    
C42   H21   S    
C26   C27   A    
C22   C38   S    
O1    C2    A    
O5    V1    S    
C20   C41   S    
O12   V3    S    
C26   C30   A    
C5    C10   A    
C17   C18   A    
O7    V2    S    
O4    V1    S    
O3    V1    S    
V1    O10   S    
C35   H18   S    
C2    C36   S    
C24   H13   S    
C31   H15   S    
C15   C16   A    
C5    C6    A    
C21   C28   A    
C8    C9    A    
C4    C10   S    
C33   C34   A    
O19   C40   A    
C25   C26   A    
O12   C37   A    
C29   C30   A    
O14   C38   A    
C8    H3    S    
O13   C40   A    
C7    C8    A    
C23   C27   A    
