data_mof_unit_61243.cif
_audit_creation_date              2013-03-05T16:33:17-0500
_audit_creation_method            fapswitch 2.2
_symmetry_space_group_name_H-M    P1
_symmetry_Int_Tables_number       1
_space_group_crystal_system       triclinic
_cell_length_a                    35.709998
_cell_length_b                    35.683239
_cell_length_c                    55.747653
_cell_angle_alpha                 90.181682
_cell_angle_beta                  90.130647
_cell_angle_gamma                 89.970528
_cell_volume                      71035.8063269

loop_
_atom_site_label
_atom_site_type_symbol
_atom_site_description
_atom_site_fract_x
_atom_site_fract_y
_atom_site_fract_z
_atom_type_partial_charge
O1    O     O_R   0.531470 0.945630 0.500000 -0.579221
O2    O     O_R   0.054370 0.531470 0.500000 -0.580036
O3    O     O_R   0.468530 0.054370 0.500000 -0.579747
O4    O     O_R   0.945630 0.468530 0.500000 -0.579432
O5    O     O_R   0.531470 0.054370 0.500000 -0.581609
O6    O     O_R   0.054370 0.468530 0.500000 -0.579586
O7    O     O_R   0.468530 0.945630 0.500000 -0.579247
O8    O     O_R   0.945630 0.531470 0.500000 -0.580407
O9    O     O_R   0.031470 0.445630 0.000000 -0.578819
O10   O     O_R   0.554370 0.031470 0.000000 -0.580494
O11   O     O_R   0.968530 0.554370 0.000000 -0.580449
O12   O     O_R   0.445630 0.968530 0.000000 -0.580358
O13   O     O_R   0.031470 0.554370 0.000000 -0.579436
O14   O     O_R   0.554370 0.968530 0.000000 -0.578889
O15   O     O_R   0.968530 0.445630 0.000000 -0.580404
O16   O     O_R   0.445630 0.031470 0.000000 -0.579504
C1    C     C_R   0.500012 0.927757 0.499954 0.814780
C2    C     C_R   0.072215 0.499988 0.499982 0.816424
C3    C     C_R   0.500004 0.072258 0.500044 0.817676
C4    C     C_R   0.927758 0.499996 0.499913 0.815927
C5    C     C_R   0.000029 0.427752 0.999940 0.815043
C6    C     C_R   0.572242 0.999989 0.000043 0.816203
C7    C     C_R   0.999994 0.572274 0.000120 0.815743
C8    C     C_R   0.427760 0.000006 0.999997 0.815716
O17   O     O_R   0.531470 0.999990 0.534870 -0.587399
O18   O     O_R   0.000010 0.531470 0.534870 -0.587264
O19   O     O_R   0.468530 0.000010 0.534870 -0.587187
O20   O     O_R   0.999990 0.468530 0.534870 -0.587211
O21   O     O_R   0.531470 0.000010 0.465130 -0.587110
O22   O     O_R   0.000010 0.468530 0.465130 -0.587658
O23   O     O_R   0.468530 0.999990 0.465130 -0.588432
O24   O     O_R   0.999990 0.531470 0.465130 -0.587922
O25   O     O_R   0.031470 0.499990 0.034870 -0.588107
O26   O     O_R   0.500010 0.031470 0.034870 -0.587878
O27   O     O_R   0.968530 0.500010 0.034870 -0.587242
O28   O     O_R   0.499990 0.968530 0.034870 -0.587673
O29   O     O_R   0.031470 0.500010 0.965130 -0.586995
O30   O     O_R   0.500010 0.968530 0.965130 -0.587559
O31   O     O_R   0.968530 0.499990 0.965130 -0.586681
O32   O     O_R   0.499990 0.031470 0.965130 -0.587219
C9    C     C_R   0.500022 0.999962 0.546306 0.792700
C10   C     C_R   0.999978 0.500072 0.546334 0.791662
C11   C     C_R   0.499957 0.000037 0.453681 0.792524
C12   C     C_R   0.000026 0.499953 0.453698 0.793252
C13   C     C_R   0.000030 0.499931 0.046300 0.793407
C14   C     C_R   0.500035 0.000066 0.046317 0.790910
C15   C     C_R   0.999993 0.500101 0.953667 0.792417
C16   C     C_R   0.499897 0.999959 0.953688 0.792812
Cu1   Cu    Cu3+1 0.537270 1.000000 0.500000 0.972014
Cu2   Cu    Cu3+1 0.000000 0.537270 0.500000 0.972709
Cu3   Cu    Cu3+1 0.462730 1.000000 0.500000 0.973092
Cu4   Cu    Cu3+1 0.000000 0.462730 0.500000 0.973345
Cu5   Cu    Cu3+1 0.037270 0.500000 0.000000 0.974273
Cu6   Cu    Cu3+1 0.500000 0.037270 0.000000 0.973861
Cu7   Cu    Cu3+1 0.962730 0.500000 0.000000 0.973210
Cu8   Cu    Cu3+1 0.500000 0.962730 0.000000 0.973942
C17   C     C_R   0.475498 0.975427 0.737204 0.021346
C18   C     C_R   0.032560 0.487092 0.737338 0.019301
C19   C     C_R   0.521424 0.026518 0.737357 0.021313
C20   C     C_R   0.978089 0.528891 0.737321 0.021611
C21   C     C_R   0.482821 0.033219 0.262868 0.023152
C22   C     C_R   0.025215 0.522730 0.262741 0.021382
C23   C     C_R   0.525531 0.979183 0.262680 0.021235
C24   C     C_R   0.973885 0.477020 0.262683 0.021269
C25   C     C_R   0.976362 0.474435 0.237234 0.021172
C26   C     C_R   0.529489 0.982612 0.237472 0.020755
C27   C     C_R   0.022431 0.525448 0.237369 0.021107
C28   C     C_R   0.482374 0.032780 0.237216 0.022529
C29   C     C_R   0.980265 0.531292 0.762786 0.021765
C30   C     C_R   0.524213 0.023737 0.762761 0.021163
C31   C     C_R   0.029537 0.483416 0.762643 0.020028
C32   C     C_R   0.472777 0.978206 0.762610 0.021274
C33   C     C_R   0.498525 0.000907 0.724598 0.081275
C34   C     C_R   0.005262 0.507849 0.724634 0.081579
C35   C     C_R   0.503421 0.005422 0.275436 0.080116
C36   C     C_R   0.999634 0.499844 0.275398 0.081204
C37   C     C_R   0.999405 0.499912 0.224617 0.081331
C38   C     C_R   0.506142 0.007603 0.224666 0.079854
C39   C     C_R   0.004398 0.506737 0.775375 0.081974
C40   C     C_R   0.498576 0.000897 0.775367 0.081370
C41   C     C_R   0.455988 0.947861 0.724007 -0.242797
C42   C     C_R   0.062670 0.471570 0.724439 -0.244011
C43   C     C_R   0.540868 0.054107 0.724309 -0.243035
C44   C     C_R   0.949470 0.546693 0.724165 -0.242671
C45   C     C_R   0.462570 0.059893 0.276474 -0.240970
C46   C     C_R   0.052903 0.542123 0.275923 -0.243261
C47   C     C_R   0.542787 0.949839 0.275497 -0.244522
C48   C     C_R   0.946576 0.457335 0.275867 -0.242892
C49   C     C_R   0.956361 0.447247 0.223985 -0.242837
C50   C     C_R   0.557067 0.962591 0.224702 -0.243843
C51   C     C_R   0.042071 0.552869 0.224261 -0.243474
C52   C     C_R   0.459578 0.057183 0.223592 -0.241841
C53   C     C_R   0.958858 0.557236 0.776060 -0.243041
C54   C     C_R   0.551903 0.043074 0.775944 -0.243051
C55   C     C_R   0.050805 0.456983 0.775555 -0.243782
C56   C     C_R   0.445108 0.958913 0.775676 -0.242777
C57   C     C_R   0.457278 0.946334 0.699016 0.355815
C58   C     C_R   0.064665 0.473793 0.699479 0.356239
C59   C     C_R   0.539904 0.055323 0.699313 0.356241
C60   C     C_R   0.947875 0.544912 0.699152 0.355616
C61   C     C_R   0.462150 0.059378 0.301459 0.353148
C62   C     C_R   0.054490 0.540856 0.300914 0.355795
C63   C     C_R   0.540634 0.947360 0.300360 0.356541
C64   C     C_R   0.945456 0.458347 0.300861 0.355189
C65   C     C_R   0.957208 0.446063 0.198984 0.354923
C66   C     C_R   0.559684 0.964265 0.199815 0.356995
C67   C     C_R   0.041214 0.553998 0.199279 0.355522
C68   C     C_R   0.458571 0.055892 0.198502 0.352371
C69   C     C_R   0.959069 0.557597 0.801088 0.356515
C70   C     C_R   0.553332 0.041933 0.800937 0.355555
C71   C     C_R   0.048620 0.454141 0.800511 0.354563
C72   C     C_R   0.444014 0.959758 0.800671 0.356180
C73   C     C_R   0.479156 0.972571 0.686266 -0.115302
C74   C     C_R   0.034458 0.489535 0.686389 -0.114772
C75   C     C_R   0.518546 0.028666 0.686383 -0.115296
C76   C     C_R   0.975242 0.524309 0.686341 -0.116073
C77   C     C_R   0.482604 0.031745 0.314018 -0.114051
C78   C     C_R   0.028112 0.519218 0.313687 -0.114949
C79   C     C_R   0.519881 0.974240 0.313416 -0.116705
C80   C     C_R   0.971837 0.480216 0.313667 -0.114346
C81   C     C_R   0.979581 0.471923 0.186284 -0.114299
C82   C     C_R   0.532969 0.984961 0.186569 -0.115219
C83   C     C_R   0.019419 0.527639 0.186379 -0.114471
C84   C     C_R   0.480740 0.029289 0.186176 -0.112319
C85   C     C_R   0.981664 0.531846 0.813790 -0.114977
C86   C     C_R   0.527036 0.020119 0.813690 -0.114892
C87   C     C_R   0.024351 0.478207 0.813415 -0.115456
C88   C     C_R   0.470788 0.980980 0.813597 -0.115107
C89   C     C_R   0.498728 0.000726 0.699099 -0.125368
C90   C     C_R   0.005025 0.507290 0.699119 -0.124536
C91   C     C_R   0.501969 0.003805 0.300939 -0.125128
C92   C     C_R   0.999854 0.499776 0.300889 -0.125913
C93   C     C_R   0.999478 0.499820 0.199113 -0.125998
C94   C     C_R   0.506634 0.007290 0.199154 -0.124738
C95   C     C_R   0.003475 0.505598 0.800855 -0.125773
C96   C     C_R   0.498791 0.000676 0.800871 -0.125445
C97   C     C_R   0.483273 0.971013 0.661110 0.583158
C98   C     C_R   0.032354 0.487900 0.661063 0.579199
C99   C     C_R   0.515201 0.029562 0.661172 0.582599
C100  C     C_R   0.973323 0.519170 0.661308 0.579712
C101  C     C_R   0.485259 0.031591 0.339255 0.583554
C102  C     C_R   0.029597 0.515205 0.338843 0.583672
C103  C     C_R   0.515377 0.972058 0.338510 0.580938
C104  C     C_R   0.970605 0.484244 0.338827 0.584446
C105  C     C_R   0.983810 0.470246 0.161127 0.585342
C106  C     C_R   0.531499 0.984160 0.161226 0.575487
C107  C     C_R   0.015684 0.528778 0.161217 0.583422
C108  C     C_R   0.477476 0.023435 0.161253 0.584961
C109  C     C_R   0.984396 0.532200 0.839048 0.582690
C110  C     C_R   0.528616 0.015942 0.838843 0.583993
C111  C     C_R   0.019262 0.475333 0.838444 0.585224
C112  C     C_R   0.469924 0.984342 0.838814 0.582890
N1    N     N_R   0.499433 0.000121 0.649065 -0.473653
N2    N     N_R   0.002208 0.502613 0.649169 -0.474340
N3    N     N_R   0.500004 0.001316 0.350988 -0.474370
N4    N     N_R   0.000164 0.499715 0.350944 -0.473259
N5    N     N_R   0.999884 0.499371 0.149061 -0.473224
N6    N     N_R   0.503670 0.002703 0.149194 -0.473946
N7    N     N_R   0.001387 0.503216 0.850855 -0.473741
N8    N     N_R   0.499417 0.000007 0.850906 -0.473620
H1    H     H_    0.439562 0.926543 0.732683 0.185947
H2    H     H_    0.086552 0.459638 0.733526 0.186981
H3    H     H_    0.557029 0.075643 0.733107 0.185497
H4    H     H_    0.927261 0.561965 0.732841 0.185905
H5    H     H_    0.446033 0.081689 0.268346 0.184404
H6    H     H_    0.074259 0.558466 0.267252 0.186101
H7    H     H_    0.558063 0.927816 0.266520 0.186421
H8    H     H_    0.925281 0.440722 0.267181 0.186491
H9    H     H_    0.939628 0.426145 0.232596 0.187093
H10   H     H_    0.578640 0.946910 0.233796 0.183881
H11   H     H_    0.058411 0.574276 0.233042 0.186325
H12   H     H_    0.442274 0.078342 0.231692 0.187836
H13   H     H_    0.941663 0.578068 0.767461 0.185104
H14   H     H_    0.573336 0.059307 0.767239 0.186544
H15   H     H_    0.069302 0.437636 0.766581 0.189566
H16   H     H_    0.423450 0.942923 0.766878 0.185604
O33   O     O_2   0.472216 0.940366 0.648778 -0.475027
O34   O     O_2   0.059734 0.471157 0.648327 -0.478025
O35   O     O_2   0.526646 0.059870 0.648792 -0.477510
O36   O     O_2   0.942334 0.529330 0.649034 -0.472137
O37   O     O_2   0.474324 0.061761 0.352133 -0.478788
O38   O     O_2   0.060461 0.525700 0.351133 -0.477871
O39   O     O_2   0.525464 0.940809 0.350477 -0.473199
O40   O     O_2   0.939803 0.473871 0.351097 -0.478256
O41   O     O_2   0.973027 0.439419 0.148887 -0.476901
O42   O     O_2   0.557237 0.964711 0.148644 -0.474986
O43   O     O_2   0.026690 0.559336 0.148904 -0.478972
O44   O     O_2   0.447602 0.037000 0.149259 -0.474554
O45   O     O_2   0.971199 0.561580 0.851753 -0.476497
O46   O     O_2   0.559391 0.026674 0.851127 -0.476166
O47   O     O_2   0.031055 0.444600 0.850279 -0.472941
O48   O     O_2   0.439585 0.973030 0.851205 -0.476969
C113  C     C_R   0.533405 0.004246 0.610603 -0.093555
C114  C     C_R   0.998083 0.535102 0.610328 -0.097576
C115  C     C_R   0.466118 0.995386 0.610332 -0.094464
C116  C     C_R   0.003289 0.467414 0.610848 -0.092921
C117  C     C_R   0.533485 0.996116 0.389509 -0.095889
C118  C     C_R   0.994499 0.466313 0.389517 -0.092805
C119  C     C_R   0.466127 0.004363 0.389484 -0.093105
C120  C     C_R   0.006082 0.533227 0.389598 -0.094579
C121  C     C_R   0.033540 0.504627 0.110528 -0.093450
C122  C     C_R   0.500996 0.035195 0.110215 -0.095704
C123  C     C_R   0.966532 0.493835 0.110349 -0.093365
C124  C     C_R   0.502961 0.967334 0.110810 -0.091608
C125  C     C_R   0.034439 0.498546 0.889660 -0.094773
C126  C     C_R   0.494852 0.966310 0.889458 -0.092632
C127  C     C_R   0.966967 0.505236 0.889268 -0.090550
C128  C     C_R   0.504483 0.033530 0.889585 -0.094501
H17   H     H_    0.559587 0.007384 0.620253 0.175132
H18   H     H_    0.996579 0.561701 0.619691 0.171221
H19   H     H_    0.439812 0.992281 0.619747 0.175568
H20   H     H_    0.005154 0.441273 0.620592 0.167663
H21   H     H_    0.559745 0.993330 0.379990 0.171616
H22   H     H_    0.990328 0.440167 0.379955 0.177435
H23   H     H_    0.439876 0.007299 0.379873 0.173166
H24   H     H_    0.010311 0.559329 0.380129 0.177168
H25   H     H_    0.059686 0.508440 0.120121 0.177232
H26   H     H_    0.501275 0.061918 0.119506 0.178417
H27   H     H_    0.940355 0.489895 0.119783 0.178271
H28   H     H_    0.503649 0.941076 0.120486 0.172087
H29   H     H_    0.060936 0.496699 0.880320 0.176507
H30   H     H_    0.491408 0.940084 0.879863 0.175636
H31   H     H_    0.940768 0.507884 0.879612 0.176398
H32   H     H_    0.507926 0.059757 0.880124 0.176186
C129  C     C_R   0.533535 0.004645 0.585595 -0.236220
C130  C     C_R   0.997159 0.534535 0.585329 -0.234083
C131  C     C_R   0.466294 0.994974 0.585320 -0.234944
C132  C     C_R   0.003180 0.466830 0.585778 -0.236345
C133  C     C_R   0.533486 0.995577 0.414534 -0.235932
C134  C     C_R   0.994018 0.466411 0.414522 -0.234072
C135  C     C_R   0.466152 0.004569 0.414473 -0.236095
C136  C     C_R   0.006443 0.533234 0.414616 -0.238693
C137  C     C_R   0.033526 0.505280 0.085536 -0.233776
C138  C     C_R   0.499145 0.034604 0.085337 -0.233445
C139  C     C_R   0.966605 0.493594 0.085328 -0.238977
C140  C     C_R   0.502675 0.966749 0.085716 -0.237605
C141  C     C_R   0.034064 0.497297 0.914638 -0.231491
C142  C     C_R   0.494498 0.966333 0.914460 -0.234673
C143  C     C_R   0.966624 0.504858 0.914327 -0.239327
C144  C     C_R   0.504913 0.033498 0.914603 -0.235893
H33   H     H_    0.559885 0.008468 0.576345 0.179127
H34   H     H_    0.994697 0.560854 0.575855 0.179149
H35   H     H_    0.440028 0.991163 0.575883 0.179865
H36   H     H_    0.005245 0.440128 0.576605 0.176991
H37   H     H_    0.559862 0.992029 0.423877 0.177575
H38   H     H_    0.989053 0.440309 0.423837 0.178747
H39   H     H_    0.439792 0.007949 0.423811 0.177954
H40   H     H_    0.011410 0.559381 0.424003 0.179273
H41   H     H_    0.059699 0.509994 0.076245 0.178509
H42   H     H_    0.497388 0.061022 0.075870 0.178241
H43   H     H_    0.940448 0.488974 0.075915 0.179756
H44   H     H_    0.503701 0.939984 0.076537 0.176483
H45   H     H_    0.060408 0.494188 0.924090 0.179570
H46   H     H_    0.490409 0.940062 0.923766 0.178946
H47   H     H_    0.940093 0.507556 0.923520 0.179226
H48   H     H_    0.509096 0.059778 0.923996 0.179701
C145  C     C_R   0.499980 0.999847 0.572705 -0.067256
C146  C     C_R   0.000072 0.500418 0.572783 -0.062863
C147  C     C_R   0.499861 0.000099 0.427263 -0.060202
C148  C     C_R   0.000132 0.499866 0.427306 -0.066210
C149  C     C_R   0.000057 0.499651 0.072685 -0.065583
C150  C     C_R   0.500493 0.000398 0.072765 -0.053921
C151  C     C_R   0.000162 0.500630 0.927227 -0.065720
C152  C     C_R   0.499730 0.999920 0.927286 -0.066914
O49   O     O_R   0.445710 0.499970 0.520170 -0.531436
O50   O     O_R   0.500030 0.445710 0.520170 -0.539183
O51   O     O_R   0.554290 0.500030 0.520170 -0.531095
O52   O     O_R   0.499970 0.554290 0.520170 -0.533264
O53   O     O_R   0.445710 0.500030 0.479830 -0.531616
O54   O     O_R   0.500030 0.554290 0.479830 -0.533404
O55   O     O_R   0.554290 0.499970 0.479830 -0.529471
O56   O     O_R   0.499970 0.445710 0.479830 -0.538049
O57   O     O_R   0.945710 0.999970 0.020170 -0.533193
O58   O     O_R   0.000030 0.945710 0.020170 -0.541285
O59   O     O_R   0.054290 0.000030 0.020170 -0.530373
O60   O     O_R   0.999970 0.054290 0.020170 -0.537706
O61   O     O_R   0.945710 0.000030 0.979830 -0.530503
O62   O     O_R   0.000030 0.054290 0.979830 -0.528364
O63   O     O_R   0.054290 0.999970 0.979830 -0.530066
O64   O     O_R   0.999970 0.945710 0.979830 -0.530492
C153  C     C_R   0.499667 0.999868 0.623180 0.309659
C154  C     C_R   0.001130 0.501594 0.623297 0.316768
C155  C     C_R   0.499839 0.000476 0.376806 0.313657
C156  C     C_R   0.000273 0.499750 0.376828 0.307499
C157  C     C_R   0.999999 0.499204 0.123176 0.307252
C158  C     C_R   0.502498 0.001600 0.123282 0.311414
C159  C     C_R   0.000889 0.502274 0.876757 0.308530
C160  C     C_R   0.499625 0.999934 0.876803 0.308914
C161  C     C_R   0.427662 0.500059 0.499958 0.903119
C162  C     C_R   0.499829 0.427834 0.499961 0.904266
C163  C     C_R   0.572323 0.500077 0.500013 0.906190
C164  C     C_R   0.499896 0.572247 0.500033 0.903196
C165  C     C_R   0.927700 0.999915 0.999998 0.899017
C166  C     C_R   0.999816 0.927772 0.999988 0.902454
C167  C     C_R   0.072294 0.000060 0.000013 0.917652
C168  C     C_R   0.999939 0.072209 0.000022 0.909744
Cu9   Cu    Cu3+1 0.500000 0.500000 0.523900 1.236130
Cu10  Cu    Cu3+1 0.500000 0.500000 0.476100 1.238500
Cu11  Cu    Cu3+1 0.000000 1.000000 0.023900 1.232071
Cu12  Cu    Cu3+1 0.000000 0.000000 0.976100 1.247241
C169  C     C_R   0.477068 0.673156 0.482968 -0.014593
C170  C     C_R   0.326373 0.478469 0.482578 -0.008934
C171  C     C_R   0.526275 0.326534 0.486501 -0.001596
C172  C     C_R   0.673576 0.519002 0.481297 -0.019554
C173  C     C_R   0.470735 0.327424 0.513209 0.002668
C174  C     C_R   0.326455 0.521057 0.517675 -0.013288
C175  C     C_R   0.524680 0.673360 0.515430 -0.010400
C176  C     C_R   0.673381 0.475024 0.515564 -0.005641
C177  C     C_R   0.978225 0.173647 0.983468 -0.018516
C178  C     C_R   0.826629 0.976505 0.983193 -0.008254
C179  C     C_R   0.029499 0.827110 0.986859 -0.011619
C180  C     C_R   0.173342 0.023142 0.983314 -0.012650
C181  C     C_R   0.980226 0.826915 0.018207 -0.007370
C182  C     C_R   0.826444 0.020312 0.017786 -0.014843
C183  C     C_R   0.026785 0.172597 0.015233 -0.006180
C184  C     C_R   0.173565 0.976915 0.016381 -0.013307
C185  C     C_R   0.478384 0.633479 0.482798 0.291025
C186  C     C_R   0.365814 0.481702 0.481391 0.300265
C187  C     C_R   0.527029 0.366304 0.487155 0.308658
C188  C     C_R   0.633802 0.519150 0.481671 0.305476
C189  C     C_R   0.470774 0.367168 0.512363 0.305924
C190  C     C_R   0.366018 0.518686 0.518377 0.289145
C191  C     C_R   0.521934 0.633855 0.516774 0.289348
C192  C     C_R   0.634171 0.479555 0.517512 0.296699
C193  C     C_R   0.978158 0.133821 0.983421 0.306196
C194  C     C_R   0.866119 0.979568 0.982154 0.296922
C195  C     C_R   0.026186 0.866609 0.985227 0.291756
C196  C     C_R   0.133766 0.020680 0.982433 0.291522
C197  C     C_R   0.977126 0.866410 0.016028 0.303828
C198  C     C_R   0.866067 0.018600 0.018351 0.294690
C199  C     C_R   0.023614 0.133228 0.016415 0.279536
C200  C     C_R   0.134008 0.979452 0.017435 0.296228
C201  C     C_R   0.499904 0.613888 0.499945 -0.262768
C202  C     C_R   0.385896 0.500146 0.499907 -0.258132
C203  C     C_R   0.499271 0.386318 0.499868 -0.260679
C204  C     C_R   0.614089 0.499733 0.499872 -0.257256
C205  C     C_R   0.000493 0.113794 0.000034 -0.260234
C206  C     C_R   0.885971 0.999505 0.000095 -0.258273
C207  C     C_R   0.001049 0.886191 0.000384 -0.256165
C208  C     C_R   0.114012 0.000107 0.999970 -0.255583
C209  C     C_R   0.500992 0.692774 0.499186 -0.022068
C210  C     C_R   0.306878 0.499497 0.500223 -0.018705
C211  C     C_R   0.498357 0.307671 0.499959 -0.037868
C212  C     C_R   0.692866 0.495707 0.497873 -0.025051
C213  C     C_R   0.003655 0.192588 0.998984 -0.024453
C214  C     C_R   0.807046 0.998246 0.000486 -0.020892
C215  C     C_R   0.005616 0.807603 0.002922 -0.029732
C216  C     C_R   0.192934 0.999986 0.999804 -0.022388
C217  C     C_1   0.501107 0.733265 0.499220 0.015362
C218  C     C_1   0.266448 0.499332 0.500272 0.017390
C219  C     C_1   0.498064 0.266981 0.500127 0.005724
C220  C     C_1   0.733397 0.495157 0.497688 0.012393
C221  C     C_1   0.004707 0.233152 0.998737 0.015654
C222  C     C_1   0.766586 0.998045 0.000390 0.013923
C223  C     C_1   0.004789 0.767007 0.002630 0.010914
C224  C     C_1   0.233396 0.999941 0.999718 0.015272
C225  C     C_1   0.501050 0.766973 0.499320 0.139110
C226  C     C_1   0.232778 0.499298 0.500243 0.138379
C227  C     C_1   0.498090 0.233241 0.500209 0.144092
C228  C     C_1   0.767092 0.495750 0.497865 0.142123
C229  C     C_1   0.004365 0.266889 0.998709 0.140087
C230  C     C_1   0.732911 0.998151 0.000274 0.140314
C231  C     C_1   0.003715 0.733279 0.002276 0.142844
C232  C     C_1   0.267073 0.999914 0.999691 0.140835
C233  C     C_R   0.481697 0.826686 0.481345 0.319439
C234  C     C_R   0.173051 0.481808 0.481360 0.318836
C235  C     C_R   0.515982 0.173526 0.481385 0.320739
C236  C     C_R   0.826802 0.516458 0.480445 0.320017
C237  C     C_R   0.481711 0.173217 0.519147 0.319510
C238  C     C_R   0.173173 0.517281 0.518845 0.317443
C239  C     C_R   0.519531 0.826763 0.517846 0.317167
C240  C     C_R   0.826811 0.479595 0.517216 0.318207
C241  C     C_R   0.983236 0.326460 0.981066 0.320282
C242  C     C_R   0.673005 0.980326 0.981710 0.318546
C243  C     C_R   0.019863 0.673512 0.982718 0.315814
C244  C     C_R   0.326781 0.018276 0.981364 0.316128
C245  C     C_R   0.983823 0.673320 0.019797 0.321147
C246  C     C_R   0.673454 0.017537 0.018468 0.320084
C247  C     C_R   0.021109 0.326981 0.017526 0.317549
C248  C     C_R   0.326766 0.981562 0.018183 0.317850
C249  C     C_R   0.482910 0.866262 0.480569 -0.039597
C250  C     C_R   0.133505 0.483321 0.480498 -0.041553
C251  C     C_R   0.516098 0.133931 0.480844 -0.043567
C252  C     C_R   0.866406 0.516467 0.480198 -0.041518
C253  C     C_R   0.483419 0.133616 0.519833 -0.042837
C254  C     C_R   0.133629 0.516281 0.519557 -0.040535
C255  C     C_R   0.517592 0.866318 0.518999 -0.039696
C256  C     C_R   0.866258 0.482310 0.518696 -0.039815
C257  C     C_R   0.983311 0.366093 0.980567 -0.040919
C258  C     C_R   0.633472 0.982366 0.980712 -0.040349
C259  C     C_R   0.017396 0.633970 0.981253 -0.039878
C260  C     C_R   0.366344 0.017023 0.980631 -0.040363
C261  C     C_R   0.983640 0.633707 0.019863 -0.043043
C262  C     C_R   0.633908 0.016931 0.019206 -0.041868
C263  C     C_R   0.018255 0.366450 0.018877 -0.039584
C264  C     C_R   0.366308 0.982954 0.019150 -0.041414
C265  C     C_R   0.500090 0.886277 0.499871 -0.151135
C266  C     C_R   0.113619 0.499918 0.499979 -0.149010
C267  C     C_R   0.499961 0.113764 0.500310 -0.147932
C268  C     C_R   0.886301 0.499829 0.499672 -0.150384
C269  C     C_R   0.000284 0.386262 0.999862 -0.150849
C270  C     C_R   0.613699 0.999879 0.999953 -0.149478
C271  C     C_R   0.000079 0.613816 0.000337 -0.149064
C272  C     C_R   0.386308 0.000028 0.999935 -0.148964
C273  C     C_R   0.500794 0.807329 0.499494 -0.149860
C274  C     C_R   0.192476 0.499426 0.500155 -0.148570
C275  C     C_R   0.498520 0.192810 0.500237 -0.147589
C276  C     C_R   0.807431 0.497103 0.498431 -0.149051
C277  C     C_R   0.003096 0.307300 0.999000 -0.150394
C278  C     C_R   0.692598 0.998614 0.000158 -0.147201
C279  C     C_R   0.002435 0.692855 0.001581 -0.148028
C280  C     C_R   0.307398 0.999898 0.999733 -0.148275
N9    N     N_R   0.433580 0.919750 0.686995 0.169049
O65   O     O_R   0.433033 0.885008 0.694005 -0.298648
O66   O     O_R   0.407338 0.931643 0.672668 -0.290832
N10   N     N_R   0.098431 0.461212 0.688069 0.169415
O67   O     O_R   0.113170 0.429262 0.694170 -0.303992
O68   O     O_R   0.118659 0.485024 0.676142 -0.277992
N11   N     N_R   0.563383 0.082116 0.687510 0.168678
O69   O     O_R   0.562775 0.117070 0.694204 -0.299725
O70   O     O_R   0.590501 0.070444 0.673811 -0.290225
N12   N     N_R   0.919593 0.566549 0.687218 0.169247
O71   O     O_R   0.884987 0.564745 0.694352 -0.299839
O72   O     O_R   0.929486 0.593466 0.672844 -0.286755
N13   N     N_R   0.437940 0.085356 0.313640 0.168765
O73   O     O_R   0.438574 0.120775 0.307991 -0.298375
O74   O     O_R   0.410597 0.072720 0.326753 -0.291150
N14   N     N_R   0.081257 0.564414 0.312895 0.168875
O75   O     O_R   0.115848 0.565125 0.305591 -0.299609
O76   O     O_R   0.069616 0.590491 0.327446 -0.292553
N15   N     N_R   0.562134 0.918752 0.312037 0.168664
O77   O     O_R   0.558886 0.884019 0.305162 -0.297986
O78   O     O_R   0.589848 0.928207 0.326010 -0.291061
N16   N     N_R   0.919514 0.434040 0.312825 0.168883
O79   O     O_R   0.885080 0.431723 0.305311 -0.301281
O80   O     O_R   0.932084 0.408769 0.327615 -0.292641
N17   N     N_R   0.932178 0.420709 0.186898 0.169352
O81   O     O_R   0.928369 0.386558 0.194677 -0.300901
O82   O     O_R   0.907614 0.433822 0.171829 -0.293170
N18   N     N_R   0.590306 0.945150 0.188558 0.168736
O83   O     O_R   0.595796 0.909744 0.192826 -0.302562
O84   O     O_R   0.616857 0.964543 0.178569 -0.275786
N19   N     N_R   0.065370 0.580174 0.187411 0.168845
O85   O     O_R   0.067050 0.614740 0.194821 -0.302429
O86   O     O_R   0.091126 0.567827 0.172887 -0.291408
N20   N     N_R   0.437832 0.084478 0.186029 0.169452
O87   O     O_R   0.405978 0.096320 0.194577 -0.302273
O88   O     O_R   0.454228 0.104091 0.169473 -0.294804
N21   N     N_R   0.933567 0.582323 0.813118 0.168809
O89   O     O_R   0.932383 0.617593 0.807352 -0.297418
O90   O     O_R   0.906850 0.568380 0.826209 -0.290822
N22   N     N_R   0.579743 0.065855 0.812957 0.169066
O91   O     O_R   0.614227 0.067404 0.805534 -0.300418
O92   O     O_R   0.567694 0.091559 0.827664 -0.291301
N23   N     N_R   0.073831 0.428843 0.812373 0.168678
O93   O     O_R   0.079487 0.395501 0.803579 -0.301111
O94   O     O_R   0.096874 0.441651 0.828559 -0.291380
N24   N     N_R   0.417280 0.936233 0.812484 0.168884
O95   O     O_R   0.382357 0.936752 0.805816 -0.298771
O96   O     O_R   0.429009 0.909112 0.826171 -0.289647
C281  C     C_3   0.452732 0.694797 0.464844 -0.309894
C282  C     C_3   0.411607 0.680866 0.462543 -0.329377
C283  C     C_3   0.385739 0.711816 0.453304 -0.728097
H49   H     H_    0.381630 0.733539 0.467492 0.274241
H50   H     H_    0.398021 0.725210 0.437026 0.283641
H51   H     H_    0.357953 0.699682 0.448480 0.247470
H52   H     H_    0.410090 0.657527 0.449074 0.280424
H53   H     H_    0.400812 0.670616 0.480206 0.240652
H54   H     H_    0.450930 0.725307 0.470068 0.248506
H55   H     H_    0.466826 0.694204 0.446642 0.233764
C284  C     C_3   0.304979 0.453311 0.464805 -0.323272
C285  C     C_3   0.321392 0.413536 0.462052 -0.328700
C286  C     C_3   0.291526 0.384898 0.454930 -0.733835
H56   H     H_    0.271635 0.380716 0.469970 0.270175
H57   H     H_    0.275868 0.394513 0.438812 0.283991
H58   H     H_    0.305000 0.357583 0.450759 0.250494
H59   H     H_    0.342786 0.413456 0.447624 0.279657
H60   H     H_    0.334836 0.404292 0.479058 0.257936
H61   H     H_    0.275539 0.449699 0.470570 0.247367
H62   H     H_    0.303643 0.467262 0.447027 0.243464
C287  C     C_3   0.554410 0.301931 0.472704 -0.360796
C288  C     C_3   0.579529 0.319546 0.453507 -0.318296
C289  C     C_3   0.600094 0.289200 0.439269 -0.731947
H63   H     H_    0.617294 0.271619 0.451493 0.272186
H64   H     H_    0.579746 0.271004 0.429617 0.288685
H65   H     H_    0.618817 0.302434 0.425896 0.251468
H66   H     H_    0.562228 0.336001 0.440748 0.270319
H67   H     H_    0.601114 0.337524 0.462059 0.272979
H68   H     H_    0.572403 0.287218 0.485989 0.218936
H69   H     H_    0.537839 0.280248 0.463046 0.257428
C290  C     C_3   0.697208 0.541587 0.463282 -0.330249
C291  C     C_3   0.680033 0.577016 0.451791 -0.327484
C292  C     C_3   0.710343 0.601341 0.440278 -0.727513
H70   H     H_    0.729580 0.612649 0.454310 0.273154
H71   H     H_    0.726792 0.584553 0.427096 0.285789
H72   H     H_    0.697131 0.625358 0.430752 0.248918
H73   H     H_    0.660341 0.568958 0.437132 0.280641
H74   H     H_    0.665312 0.594133 0.465652 0.253351
H75   H     H_    0.722512 0.552027 0.473101 0.237416
H76   H     H_    0.707161 0.522127 0.448873 0.244172
C293  C     C_3   0.442074 0.303826 0.527141 -0.363255
C294  C     C_3   0.417405 0.322507 0.546227 -0.315264
C295  C     C_3   0.396559 0.292987 0.560863 -0.736926
H77   H     H_    0.379106 0.275179 0.548872 0.270718
H78   H     H_    0.416749 0.274904 0.570682 0.286740
H79   H     H_    0.378050 0.306959 0.574119 0.253756
H80   H     H_    0.435030 0.339240 0.558727 0.268973
H81   H     H_    0.395960 0.340466 0.537581 0.275234
H82   H     H_    0.423789 0.289124 0.513950 0.218193
H83   H     H_    0.458197 0.282043 0.536935 0.256389
C296  C     C_3   0.305074 0.545568 0.535780 -0.316061
C297  C     C_3   0.320266 0.585845 0.538380 -0.338003
C298  C     C_3   0.289978 0.613687 0.546023 -0.730260
H84   H     H_    0.269429 0.617534 0.531261 0.271515
H85   H     H_    0.275279 0.603586 0.562346 0.285231
H86   H     H_    0.302926 0.641301 0.550083 0.247555
H87   H     H_    0.342310 0.586549 0.552487 0.280715
H88   H     H_    0.332688 0.595539 0.521181 0.242929
H89   H     H_    0.275221 0.548240 0.530508 0.248285
H90   H     H_    0.304850 0.531438 0.553547 0.240587
C299  C     C_3   0.552029 0.695226 0.531671 -0.317518
C300  C     C_3   0.591729 0.678427 0.533587 -0.334626
C301  C     C_3   0.620959 0.708313 0.539609 -0.740896
H91   H     H_    0.624403 0.727660 0.524214 0.267631
H92   H     H_    0.612337 0.724575 0.555731 0.285771
H93   H     H_    0.648358 0.694753 0.543319 0.250895
H94   H     H_    0.592580 0.657633 0.548353 0.282730
H95   H     H_    0.599818 0.664344 0.516543 0.246680
H96   H     H_    0.555863 0.724047 0.524757 0.242915
H97   H     H_    0.539607 0.698366 0.549828 0.243289
C302  C     C_3   0.694594 0.448991 0.532819 -0.321389
C303  C     C_3   0.677967 0.409215 0.534512 -0.330086
C304  C     C_3   0.707596 0.380035 0.541082 -0.737289
H98   H     H_    0.727422 0.376178 0.525958 0.269111
H99   H     H_    0.723342 0.388920 0.557377 0.283694
H100  H     H_    0.693898 0.352715 0.544744 0.250050
H101  H     H_    0.656371 0.408611 0.548820 0.278655
H102  H     H_    0.664636 0.400860 0.517235 0.256366
H103  H     H_    0.724141 0.445593 0.527154 0.248046
H104  H     H_    0.695743 0.462124 0.550903 0.243644
C305  C     C_3   0.953063 0.197871 0.967201 -0.341076
C306  C     C_3   0.917889 0.180528 0.955787 -0.329745
C307  C     C_3   0.892429 0.210867 0.945306 -0.728778
H105  H     H_    0.881546 0.229313 0.959792 0.270842
H106  H     H_    0.908053 0.228163 0.932136 0.287578
H107  H     H_    0.868278 0.197623 0.936017 0.250177
H108  H     H_    0.925890 0.161844 0.940715 0.281449
H109  H     H_    0.901772 0.164711 0.969443 0.257008
H110  H     H_    0.942516 0.221583 0.978292 0.232845
H111  H     H_    0.970770 0.209906 0.952786 0.250796
C308  C     C_3   0.804833 0.951525 0.965448 -0.327843
C309  C     C_3   0.821725 0.912397 0.960870 -0.326475
C310  C     C_3   0.792019 0.884199 0.952772 -0.728525
H112  H     H_    0.772407 0.878276 0.967714 0.271019
H113  H     H_    0.776026 0.895300 0.937190 0.283014
H114  H     H_    0.805695 0.857530 0.947366 0.252763
H115  H     H_    0.842661 0.914071 0.946212 0.280798
H116  H     H_    0.835613 0.901607 0.977341 0.259958
H117  H     H_    0.776148 0.946406 0.972278 0.246530
H118  H     H_    0.801382 0.966684 0.948172 0.241504
C311  C     C_3   0.056603 0.805294 0.970432 -0.303945
C312  C     C_3   0.097011 0.821456 0.969500 -0.332403
C313  C     C_3   0.125920 0.791404 0.962953 -0.740777
H119  H     H_    0.129471 0.771239 0.978046 0.264725
H120  H     H_    0.116941 0.775867 0.946475 0.283919
H121  H     H_    0.153528 0.804863 0.959391 0.247805
H122  H     H_    0.098533 0.843391 0.955202 0.277040
H123  H     H_    0.105142 0.834327 0.987113 0.238320
H124  H     H_    0.059382 0.775366 0.976641 0.241094
H125  H     H_    0.044359 0.803811 0.951741 0.239459
C314  C     C_3   0.195164 0.048966 0.966223 -0.317008
C315  C     C_3   0.178557 0.088495 0.962795 -0.337198
C316  C     C_3   0.208387 0.117077 0.955641 -0.741758
H126  H     H_    0.228045 0.121956 0.970791 0.268715
H127  H     H_    0.224310 0.106983 0.939751 0.286174
H128  H     H_    0.194834 0.144152 0.951049 0.247895
H129  H     H_    0.157549 0.087898 0.948069 0.280940
H130  H     H_    0.164768 0.098312 0.979551 0.243541
H131  H     H_    0.224017 0.053379 0.973094 0.243378
H132  H     H_    0.198329 0.034811 0.948528 0.241275
C317  C     C_3   0.957087 0.803312 0.035850 -0.350980
C318  C     C_3   0.937903 0.822825 0.057095 -0.316560
C319  C     C_3   0.925356 0.794391 0.075921 -0.725192
H133  H     H_    0.906476 0.773099 0.067705 0.281792
H134  H     H_    0.950006 0.780014 0.083893 0.277287
H135  H     H_    0.909964 0.809026 0.090514 0.251457
H136  H     H_    0.957727 0.842639 0.065868 0.262319
H137  H     H_    0.912487 0.837930 0.050912 0.278216
H138  H     H_    0.935779 0.786979 0.025505 0.230268
H139  H     H_    0.976800 0.782844 0.044024 0.250725
C320  C     C_3   0.804497 0.043626 0.036380 -0.309922
C321  C     C_3   0.819946 0.083853 0.040728 -0.328162
C322  C     C_3   0.789368 0.110549 0.049531 -0.724941
H140  H     H_    0.768860 0.116066 0.034829 0.274778
H141  H     H_    0.774442 0.098196 0.065209 0.283924
H142  H     H_    0.802203 0.137698 0.055137 0.247629
H143  H     H_    0.841857 0.083123 0.055136 0.279204
H144  H     H_    0.832419 0.095514 0.023930 0.244933
H145  H     H_    0.774574 0.047295 0.030320 0.248898
H146  H     H_    0.803202 0.027740 0.053929 0.236214
C323  C     C_3   0.055119 0.192935 0.031295 -0.311977
C324  C     C_3   0.095735 0.180402 0.026539 -0.354795
C325  C     C_3   0.123826 0.210722 0.033613 -0.730487
H147  H     H_    0.122227 0.234352 0.020721 0.272825
H148  H     H_    0.117933 0.221379 0.051999 0.282040
H149  H     H_    0.152621 0.198966 0.033211 0.245813
H150  H     H_    0.102215 0.155095 0.037347 0.278132
H151  H     H_    0.099756 0.173237 0.007279 0.236327
H152  H     H_    0.053754 0.223640 0.028877 0.248828
H153  H     H_    0.048014 0.188180 0.050423 0.244718
C326  C     C_3   0.195661 0.951057 0.033354 -0.316867
C327  C     C_3   0.178899 0.911688 0.037036 -0.338294
C328  C     C_3   0.208795 0.883053 0.044079 -0.744568
H154  H     H_    0.228061 0.877972 0.028803 0.269686
H155  H     H_    0.225161 0.893260 0.059793 0.286218
H156  H     H_    0.195242 0.856108 0.048890 0.247436
H157  H     H_    0.158288 0.912548 0.051912 0.280044
H158  H     H_    0.164665 0.901834 0.020414 0.244889
H159  H     H_    0.224259 0.946362 0.026233 0.244439
H160  H     H_    0.199348 0.965270 0.050990 0.241365
N25   N     N_R   0.456523 0.612724 0.465718 0.116383
O97   O     O_R   0.428255 0.592661 0.472909 -0.369287
O98   O     O_R   0.466720 0.611413 0.443300 -0.311056
N26   N     N_R   0.385457 0.466045 0.461276 0.125327
O99   O     O_R   0.408339 0.438002 0.464202 -0.329774
O100  O     O_R   0.380269 0.479783 0.439954 -0.313564
N27   N     N_R   0.556950 0.386870 0.476346 0.094411
O101  O     O_R   0.586586 0.394945 0.488937 -0.366674
O102  O     O_R   0.552068 0.402664 0.455558 -0.331697
N28   N     N_R   0.612988 0.539180 0.463862 0.110392
O103  O     O_R   0.594535 0.569275 0.469843 -0.364696
O104  O     O_R   0.606823 0.523649 0.443042 -0.310549
N29   N     N_R   0.440423 0.388476 0.522158 0.093007
O105  O     O_R   0.410953 0.394959 0.509058 -0.364865
O106  O     O_R   0.444286 0.405687 0.542634 -0.333864
N30   N     N_R   0.386122 0.536251 0.537663 0.122731
O107  O     O_R   0.407745 0.564894 0.533503 -0.356985
O108  O     O_R   0.383777 0.522909 0.559302 -0.307560
N31   N     N_R   0.542071 0.613708 0.534928 0.120373
O109  O     O_R   0.569293 0.591298 0.528958 -0.360886
O110  O     O_R   0.532165 0.616724 0.557208 -0.308864
N32   N     N_R   0.614791 0.463692 0.537586 0.124395
O111  O     O_R   0.591160 0.436351 0.534448 -0.331983
O112  O     O_R   0.620364 0.477097 0.559003 -0.312140
N33   N     N_R   0.955711 0.113186 0.966695 0.106461
O113  O     O_R   0.926997 0.094225 0.974350 -0.366655
O114  O     O_R   0.968607 0.106615 0.945287 -0.309924
N34   N     N_R   0.886310 0.961919 0.962977 0.118599
O115  O     O_R   0.908370 0.933704 0.967360 -0.337406
O116  O     O_R   0.884797 0.975933 0.941497 -0.308562
N35   N     N_R   0.047263 0.886923 0.967918 0.112411
O117  O     O_R   0.073134 0.910370 0.974731 -0.367517
O118  O     O_R   0.037109 0.886014 0.945418 -0.306273
N36   N     N_R   0.113426 0.039566 0.963848 0.118961
O119  O     O_R   0.091497 0.067564 0.969118 -0.363223
O120  O     O_R   0.114631 0.026944 0.941979 -0.306396
N37   N     N_R   0.945710 0.885793 0.026181 0.098119
O121  O     O_R   0.913775 0.885407 0.014908 -0.346873
O122  O     O_R   0.949677 0.906551 0.045264 -0.335947
N38   N     N_R   0.886331 0.037011 0.037212 0.119028
O123  O     O_R   0.907332 0.065888 0.032515 -0.355290
O124  O     O_R   0.885796 0.023319 0.058836 -0.311744
N39   N     N_R   0.044980 0.112753 0.033951 0.124907
O125  O     O_R   0.070294 0.088783 0.027037 -0.364861
O126  O     O_R   0.039422 0.118349 0.056664 -0.316242
N40   N     N_R   0.113902 0.960596 0.036075 0.118020
O127  O     O_R   0.091769 0.932735 0.030850 -0.366623
O128  O     O_R   0.115565 0.973137 0.057952 -0.311605
N41   N     N_R   0.461074 0.805956 0.463571 0.102811
O129  O     O_R   0.424677 0.807931 0.462965 -0.370116
O130  O     O_R   0.478253 0.782490 0.449432 -0.391531
N42   N     N_R   0.193694 0.462312 0.463087 0.104480
O131  O     O_R   0.192015 0.425936 0.461666 -0.366592
O132  O     O_R   0.217008 0.480427 0.449470 -0.384424
N43   N     N_R   0.533495 0.194392 0.462563 0.105321
O133  O     O_R   0.569793 0.197761 0.462077 -0.375975
O134  O     O_R   0.513181 0.213872 0.447718 -0.379443
N44   N     N_R   0.806053 0.536196 0.462355 0.105767
O135  O     O_R   0.806640 0.572676 0.461815 -0.370799
O136  O     O_R   0.783679 0.518097 0.447968 -0.392493
N45   N     N_R   0.462683 0.193742 0.537649 0.106374
O137  O     O_R   0.426296 0.192956 0.538856 -0.365208
O138  O     O_R   0.481310 0.216253 0.551674 -0.386969
N46   N     N_R   0.193942 0.536467 0.537221 0.105053
O139  O     O_R   0.193060 0.572903 0.538479 -0.368889
O140  O     O_R   0.216832 0.518011 0.551040 -0.382032
N47   N     N_R   0.540623 0.806126 0.535374 0.105042
O141  O     O_R   0.576939 0.809176 0.536153 -0.364704
O142  O     O_R   0.524107 0.781616 0.548957 -0.384481
N48   N     N_R   0.806202 0.459008 0.534909 0.104602
O143  O     O_R   0.808780 0.422650 0.535723 -0.364497
O144  O     O_R   0.782007 0.476088 0.548534 -0.386147
N49   N     N_R   0.962935 0.305488 0.963277 0.105877
O145  O     O_R   0.926488 0.306260 0.962980 -0.370560
O146  O     O_R   0.980599 0.283087 0.948724 -0.391630
N50   N     N_R   0.693474 0.959602 0.963902 0.104942
O147  O     O_R   0.690859 0.923240 0.963028 -0.363494
O148  O     O_R   0.717547 0.976547 0.950210 -0.388275
N51   N     N_R   0.040478 0.694219 0.965059 0.105206
O149  O     O_R   0.076757 0.691067 0.963980 -0.366010
O150  O     O_R   0.023776 0.719580 0.952144 -0.379579
N52   N     N_R   0.306076 0.038256 0.963336 0.105917
O151  O     O_R   0.307654 0.074681 0.962542 -0.367364
O152  O     O_R   0.282475 0.020585 0.949551 -0.382149
N53   N     N_R   0.965354 0.693935 0.038497 0.107998
O153  O     O_R   0.928980 0.696270 0.038715 -0.363611
O154  O     O_R   0.984875 0.713023 0.053979 -0.396757
N54   N     N_R   0.694406 0.037482 0.036453 0.103636
O155  O     O_R   0.695148 0.073945 0.036234 -0.372862
O156  O     O_R   0.716453 0.019386 0.050992 -0.388298
N55   N     N_R   0.042319 0.306653 0.035110 0.104442
O157  O     O_R   0.078647 0.309438 0.035634 -0.364819
O158  O     O_R   0.025746 0.282807 0.049157 -0.383210
N56   N     N_R   0.306059 0.961379 0.036020 0.105100
O159  O     O_R   0.307043 0.924901 0.036306 -0.368537
O160  O     O_R   0.282629 0.978949 0.049934 -0.385355
C329  C     C_3   0.466804 0.886142 0.458569 -0.362395
C330  C     C_3   0.490217 0.878565 0.435938 -0.348038
C331  C     C_3   0.472685 0.896970 0.413913 -0.743170
H161  H     H_    0.443517 0.886943 0.411238 0.264622
H162  H     H_    0.472413 0.927790 0.416125 0.251357
H163  H     H_    0.489244 0.889917 0.397674 0.278349
H164  H     H_    0.519023 0.889667 0.438539 0.224800
H165  H     H_    0.492464 0.848105 0.432295 0.281142
H166  H     H_    0.437469 0.876876 0.455646 0.248095
H167  H     H_    0.465299 0.916855 0.460884 0.200403
C332  C     C_3   0.113483 0.467917 0.458252 -0.362920
C333  C     C_3   0.120454 0.492244 0.436024 -0.348006
C334  C     C_3   0.102500 0.474980 0.413679 -0.739577
H168  H     H_    0.113580 0.446308 0.410497 0.265283
H169  H     H_    0.071767 0.473411 0.415861 0.251458
H170  H     H_    0.108733 0.492439 0.397731 0.279454
H171  H     H_    0.108612 0.520682 0.438968 0.224090
H172  H     H_    0.150815 0.495413 0.432537 0.280558
H173  H     H_    0.122991 0.438770 0.454834 0.248274
H174  H     H_    0.082854 0.465947 0.460647 0.199557
C335  C     C_3   0.532577 0.114221 0.458929 -0.368773
C336  C     C_3   0.505879 0.115932 0.437315 -0.347926
C337  C     C_3   0.524917 0.101508 0.414602 -0.736517
H175  H     H_    0.548965 0.119746 0.409837 0.267809
H176  H     H_    0.535306 0.072575 0.417298 0.247117
H177  H     H_    0.504690 0.101437 0.399441 0.280642
H178  H     H_    0.480725 0.098562 0.441010 0.220024
H179  H     H_    0.496382 0.145100 0.434070 0.276655
H180  H     H_    0.559853 0.127250 0.454311 0.248774
H181  H     H_    0.539236 0.084470 0.462268 0.203727
C338  C     C_3   0.886470 0.533450 0.458583 -0.364119
C339  C     C_3   0.881189 0.509641 0.435800 -0.347324
C340  C     C_3   0.898677 0.528716 0.414046 -0.744517
H182  H     H_    0.885772 0.556664 0.411094 0.265349
H183  H     H_    0.929170 0.532328 0.416810 0.250679
H184  H     H_    0.894168 0.511311 0.397751 0.278583
H185  H     H_    0.894475 0.481762 0.438361 0.223202
H186  H     H_    0.851079 0.505060 0.431910 0.279343
H187  H     H_    0.875930 0.562315 0.455551 0.248823
H188  H     H_    0.916908 0.536560 0.461461 0.202602
C341  C     C_3   0.468290 0.113517 0.541995 -0.363600
C342  C     C_3   0.493134 0.120050 0.564150 -0.348129
C343  C     C_3   0.475660 0.102919 0.586563 -0.739805
H189  H     H_    0.447515 0.115128 0.589884 0.265153
H190  H     H_    0.472875 0.072228 0.584382 0.251203
H191  H     H_    0.493659 0.108621 0.602428 0.279261
H192  H     H_    0.521131 0.107290 0.561148 0.223659
H193  H     H_    0.497302 0.150363 0.567563 0.279917
H194  H     H_    0.439317 0.123286 0.545607 0.247477
H195  H     H_    0.465984 0.082904 0.539388 0.199714
C344  C     C_3   0.113774 0.531773 0.541755 -0.364423
C345  C     C_3   0.119827 0.506665 0.563791 -0.349355
C346  C     C_3   0.104181 0.524924 0.586464 -0.728540
H196  H     H_    0.118491 0.552000 0.590080 0.267631
H197  H     H_    0.073785 0.530096 0.584451 0.247394
H198  H     H_    0.108614 0.506190 0.602090 0.281942
H199  H     H_    0.105678 0.479300 0.560847 0.222472
H200  H     H_    0.150016 0.501045 0.566776 0.279079
H201  H     H_    0.124034 0.560561 0.545518 0.249325
H202  H     H_    0.083236 0.534735 0.539172 0.198737
C347  C     C_3   0.533436 0.886277 0.541149 -0.361707
C348  C     C_3   0.510513 0.877842 0.563827 -0.346576
C349  C     C_3   0.527818 0.896468 0.585932 -0.743483
H203  H     H_    0.557288 0.887226 0.588370 0.264470
H204  H     H_    0.527166 0.927316 0.584022 0.252008
H205  H     H_    0.511693 0.888751 0.602191 0.277505
H206  H     H_    0.481402 0.888248 0.561467 0.225622
H207  H     H_    0.509134 0.847293 0.567214 0.280356
H208  H     H_    0.563043 0.877754 0.543830 0.247899
H209  H     H_    0.534044 0.917057 0.539140 0.199912
C350  C     C_3   0.885996 0.467235 0.541082 -0.362740
C351  C     C_3   0.877290 0.490922 0.563466 -0.345842
C352  C     C_3   0.895594 0.474344 0.585845 -0.743897
H210  H     H_    0.886396 0.444921 0.588511 0.263867
H211  H     H_    0.926442 0.475003 0.584130 0.251665
H212  H     H_    0.887586 0.490961 0.601916 0.277405
H213  H     H_    0.887750 0.519947 0.560877 0.225944
H214  H     H_    0.846724 0.492508 0.566675 0.280657
H215  H     H_    0.877471 0.437701 0.544055 0.247072
H216  H     H_    0.916773 0.466516 0.539181 0.199363
C353  C     C_3   0.966183 0.385893 0.958854 -0.363910
C354  C     C_3   0.989522 0.379773 0.936027 -0.345919
C355  C     C_3   0.970840 0.397895 0.914304 -0.750618
H217  H     H_    0.942192 0.386486 0.911627 0.265200
H218  H     H_    0.968967 0.428581 0.916908 0.250906
H219  H     H_    0.987540 0.392202 0.897916 0.275322
H220  H     H_    0.017860 0.392058 0.938544 0.224637
H221  H     H_    0.992990 0.349514 0.932121 0.280261
H222  H     H_    0.937167 0.375649 0.955997 0.248238
H223  H     H_    0.963560 0.416462 0.961469 0.202541
C356  C     C_3   0.613371 0.966756 0.958576 -0.362000
C357  C     C_3   0.621459 0.990099 0.936030 -0.347803
C358  C     C_3   0.602572 0.973170 0.913909 -0.743214
H224  H     H_    0.611708 0.943699 0.911224 0.264443
H225  H     H_    0.571781 0.973841 0.915990 0.252113
H226  H     H_    0.610114 0.989539 0.897718 0.278158
H227  H     H_    0.611079 0.019177 0.938682 0.225645
H228  H     H_    0.651933 0.991586 0.932471 0.280650
H229  H     H_    0.622043 0.937223 0.955635 0.247778
H230  H     H_    0.582649 0.965910 0.960747 0.200483
C359  C     C_3   0.032403 0.614224 0.958866 -0.362654
C360  C     C_3   0.008612 0.622903 0.936546 -0.345690
C361  C     C_3   0.025308 0.604869 0.914104 -0.742458
H231  H     H_    0.054467 0.614712 0.911280 0.264637
H232  H     H_    0.025410 0.574008 0.915869 0.251612
H233  H     H_    0.008331 0.612401 0.898114 0.278098
H234  H     H_    0.979713 0.612138 0.939146 0.226011
H235  H     H_    0.006744 0.653516 0.933462 0.278710
H236  H     H_    0.061895 0.622760 0.955842 0.248037
H237  H     H_    0.033146 0.583426 0.960771 0.198688
C362  C     C_3   0.386243 0.032792 0.958584 -0.363522
C363  C     C_3   0.379758 0.008230 0.936269 -0.349375
C364  C     C_3   0.396417 0.026284 0.913899 -0.738068
H238  H     H_    0.383242 0.053997 0.910574 0.266404
H239  H     H_    0.426992 0.030118 0.916126 0.250182
H240  H     H_    0.391389 0.008054 0.898037 0.278471
H241  H     H_    0.392937 0.980351 0.939025 0.223422
H242  H     H_    0.349444 0.003747 0.933017 0.278215
H243  H     H_    0.376307 0.061783 0.955222 0.249333
H244  H     H_    0.416828 0.035265 0.961107 0.200409
C365  C     C_3   0.966893 0.613697 0.041549 -0.365579
C366  C     C_3   0.992584 0.616499 0.063595 -0.350015
C367  C     C_3   0.973622 0.600409 0.085811 -0.742038
H245  H     H_    0.947596 0.616210 0.089931 0.266973
H246  H     H_    0.966369 0.570608 0.082822 0.249718
H247  H     H_    0.992769 0.602388 0.101482 0.278744
H248  H     H_    0.018961 0.600870 0.060132 0.220856
H249  H     H_    0.000093 0.646051 0.067441 0.279051
H250  H     H_    0.939029 0.625922 0.045663 0.248645
H251  H     H_    0.961441 0.583697 0.038152 0.204213
C368  C     C_3   0.614361 0.033815 0.041078 -0.366874
C369  C     C_3   0.620177 0.009835 0.063644 -0.342628
C370  C     C_3   0.605271 0.029763 0.085934 -0.742034
H252  H     H_    0.620466 0.056543 0.088919 0.267742
H253  H     H_    0.575060 0.035850 0.083823 0.247278
H254  H     H_    0.609183 0.011769 0.101958 0.276543
H255  H     H_    0.605417 0.982631 0.061411 0.222748
H256  H     H_    0.650246 0.003698 0.066631 0.279098
H257  H     H_    0.625127 0.062614 0.044192 0.248756
H258  H     H_    0.583864 0.037087 0.038501 0.200853
C371  C     C_3   0.033697 0.386437 0.041104 -0.361801
C372  C     C_3   0.010671 0.377591 0.063672 -0.347316
C373  C     C_3   0.027208 0.396776 0.085817 -0.743869
H259  H     H_    0.057024 0.388722 0.088238 0.264305
H260  H     H_    0.025314 0.427573 0.083936 0.252712
H261  H     H_    0.011402 0.388357 0.102055 0.277744
H262  H     H_    0.981322 0.387195 0.061118 0.225722
H263  H     H_    0.010034 0.347052 0.067141 0.282099
H264  H     H_    0.063362 0.378155 0.043877 0.247184
H265  H     H_    0.034027 0.417229 0.039174 0.200560
C374  C     C_3   0.386147 0.967038 0.041215 -0.364537
C375  C     C_3   0.379284 0.991215 0.063676 -0.343782
C376  C     C_3   0.395811 0.972863 0.086028 -0.750717
H266  H     H_    0.382911 0.944949 0.089023 0.266051
H267  H     H_    0.426437 0.969381 0.084024 0.249912
H268  H     H_    0.390402 0.990717 0.102000 0.272983
H269  H     H_    0.392336 0.019196 0.061202 0.224392
H270  H     H_    0.348922 0.995505 0.066750 0.277793
H271  H     H_    0.376369 0.937937 0.044348 0.248094
H272  H     H_    0.416780 0.964876 0.038877 0.200042

loop_
_geom_bond_atom_site_label_1
_geom_bond_atom_site_label_2
_geom_bond_distance
_ccdc_geom_bond_type
C116  C132  1.397657 A    
C376  H266  1.110916 S    
C121  C157  1.405052 A    
O25   C13   1.292200 A    
N13   O73   1.303673 A    
C302  C303  1.542052 S    
C80   C104  1.410284 A    
C169  C281  1.540382 S    
C332  H174  1.104475 S    
C200  C208  1.414919 A    
C63   N15   1.434058 S    
C117  H21   1.082892 S    
C324  H150  1.111147 S    
C239  C255  1.414376 A    
N17   O81   1.302069 A    
C286  H58   1.110935 S    
C192  N32   1.435118 S    
C374  H272  1.104561 S    
C124  C158  1.404761 A    
N41   O129  1.301999 A    
C173  C189  1.419112 A    
C354  H220  1.111434 S    
C142  H46   1.082962 S    
C59   N11   1.434345 S    
C60   N12   1.434615 S    
C58   N10   1.435703 S    
C139  C149  1.405534 A    
C29   C53   1.409446 A    
C164  C201  1.485931 S    
C18   C42   1.407260 A    
C70   N22   1.435836 S    
C306  C307  1.529898 S    
C241  N49   1.435842 S    
C190  N30   1.434185 S    
C58   C74   1.417746 A    
C31   C55   1.409120 A    
C288  H66   1.110264 S    
C244  C280  1.402056 A    
C359  H236  1.109889 S    
C310  H112  1.110342 S    
C291  H74   1.115845 S    
C364  H239  1.107109 S    
C119  C135  1.393072 A    
C285  H59   1.110592 S    
C368  H258  1.104335 S    
C193  N33   1.430698 S    
C48   C64   1.394363 A    
C345  H200  1.108704 S    
C258  C356  1.529848 S    
O62   Cu12  1.947715 S    
N14   O76   1.301159 A    
Cu1   Cu3   2.661820 S    
C46   H6    1.076672 S    
C353  H223  1.104005 S    
C331  H163  1.110581 S    
Cu2   Cu4   2.659825 S    
O3    C3    1.292817 A    
C318  C319  1.530044 S    
C255  C347  1.530913 S    
C131  H35   1.082820 S    
O52   C164  1.294322 A    
C19   C33   1.415537 A    
N40   O128  1.299028 A    
C122  C138  1.388408 A    
C134  H38   1.082684 S    
C227  C275  1.442814 S    
O54   Cu10  1.947715 S    
C130  C146  1.405972 A    
C187  N27   1.431722 S    
C85   C95   1.414715 A    
Cu5   Cu7   2.661820 S    
C281  H54   1.127907 S    
C362  C363  1.536691 S    
N9    O66   1.301741 A    
O15   Cu7   1.951020 S    
N16   O79   1.300720 A    
C345  H199  1.111226 S    
C284  H62   1.111363 S    
O49   C161  1.296817 A    
C74   C90   1.417587 A    
O5    Cu1   1.951016 S    
C62   C78   1.413413 A    
C68   C84   1.413372 A    
O6    C2    1.291069 A    
O55   C163  1.295123 A    
N37   O122  1.301887 A    
C106  O42   1.348149 S    
N37   O121  1.300892 A    
C343  H190  1.106012 S    
C25   C37   1.416237 A    
C250  C332  1.530812 S    
C283  H49   1.115540 S    
C44   C60   1.396700 A    
C51   C67   1.393642 A    
C26   C50   1.409364 A    
O17   C9    1.292601 A    
N54   O155  1.301520 A    
C187  C203  1.412172 A    
C343  H191  1.110444 S    
C65   N17   1.437234 S    
N49   O145  1.301879 A    
C135  C147  1.406928 A    
C250  C266  1.426005 A    
O27   Cu7   1.954453 S    
C243  C259  1.415862 A    
C371  H264  1.110219 S    
C363  C364  1.527400 S    
C334  H170  1.110257 S    
C316  H128  1.110749 S    
C309  H116  1.112350 S    
O29   Cu5   1.954460 S    
C321  H143  1.120387 S    
C240  N48   1.436172 S    
C110  O46   1.348572 S    
C105  N5    1.367052 A    
C355  H217  1.110844 S    
C132  H36   1.082505 S    
C113  C153  1.404350 A    
C297  C298  1.528623 S    
C340  H182  1.110943 S    
C312  C313  1.531994 S    
C355  H219  1.110313 S    
C97   N1    1.367306 A    
C126  C142  1.393876 A    
C253  C341  1.530286 S    
N38   O123  1.302357 A    
C182  C214  1.422176 A    
C338  H187  1.109738 S    
N29   O105  1.300646 A    
N56   O160  1.301576 A    
C226  C274  1.439187 S    
C47   C63   1.391438 A    
C198  N38   1.432971 S    
C102  O38   1.348987 S    
C75   C99   1.410707 A    
C315  H129  1.111004 S    
O26   Cu6   1.955559 S    
C376  H268  1.110435 S    
C304  H99   1.112603 S    
C143  H47   1.082278 S    
N33   O113  1.302210 A    
O64   Cu12  1.949030 S    
C310  H114  1.110543 S    
C73   C97   1.411301 A    
N2    C154  1.443044 S    
C308  H117  1.109071 S    
N31   O109  1.301615 A    
O27   C13   1.291527 A    
O8    Cu2   1.952662 S    
C118  C134  1.394114 A    
C240  C276  1.402265 A    
O60   Cu11  1.949026 S    
C188  N28   1.431611 S    
C248  N56   1.436209 S    
O31   C15   1.293848 A    
C238  C254  1.413261 A    
C141  H45   1.082997 S    
O32   C16   1.290995 A    
N20   O88   1.300590 A    
C71   N23   1.436306 S    
C375  H270  1.108524 S    
C168  C205  1.484027 S    
C135  H39   1.083227 S    
C19   C43   1.409954 A    
C369  C370  1.526469 S    
C319  H135  1.111596 S    
N35   O117  1.301912 A    
C372  H263  1.107625 S    
C14   C150  1.474483 S    
C189  N29   1.431866 S    
C108  O44   1.348204 S    
C341  H195  1.104607 S    
C199  N39   1.439497 S    
C109  O45   1.348742 S    
C115  C131  1.394431 A    
C287  H68   1.112199 S    
N10   O67   1.301342 A    
O18   Cu2   1.955559 S    
N32   O111  1.301378 A    
C334  H168  1.110638 S    
C113  C129  1.394296 A    
C361  H232  1.105956 S    
C124  C140  1.399035 A    
C300  H95   1.112171 S    
N25   O97   1.302537 A    
C254  C344  1.529367 S    
O54   C164  1.294052 A    
C349  H204  1.106470 S    
O9    C5    1.291612 A    
C52   H12   1.074445 S    
C336  H179  1.109762 S    
O11   C7    1.292787 A    
C28   C52   1.413646 A    
N50   O148  1.301425 A    
C237  C253  1.415044 A    
C101  O37   1.350122 S    
C82   C106  1.413884 A    
C260  C362  1.530025 S    
N3    C155  1.439714 S    
C317  C318  1.534534 S    
C161  C202  1.491440 S    
O16   Cu6   1.952662 S    
N19   O86   1.302429 A    
C193  C205  1.415909 A    
C329  H167  1.104424 S    
C311  H125  1.130206 S    
C49   H9    1.076389 S    
C116  H20   1.082855 S    
C180  C216  1.420750 A    
C289  H65   1.109317 S    
C76   C90   1.416345 A    
C303  C304  1.528846 S    
C112  O48   1.348896 S    
C359  C360  1.537280 S    
C8    C272  1.480240 S    
C323  H152  1.105379 S    
N23   O94   1.301767 A    
C237  N45   1.435253 S    
C120  C136  1.394719 A    
O6    Cu4   1.952658 S    
C323  C324  1.540869 S    
O58   Cu11  1.947719 S    
C52   C68   1.399684 A    
C7    C271  1.482379 S    
C214  C222  1.444846 S    
N42   O132  1.301417 A    
C308  H118  1.112662 S    
C170  C210  1.418857 A    
C5    C269  1.480496 S    
C192  C204  1.414401 A    
O22   C12   1.291489 A    
C127  H31   1.082565 S    
C120  C156  1.403905 A    
C244  N52   1.437222 S    
C166  C207  1.484619 S    
C173  C211  1.419418 A    
C138  C150  1.406385 A    
C233  C273  1.402368 A    
N11   O69   1.300946 A    
C27   C37   1.416229 A    
C264  C272  1.427142 A    
C31   C39   1.414389 A    
N48   O143  1.301542 A    
N15   O78   1.301986 A    
C182  C198  1.416500 A    
O21   Cu1   1.954460 S    
C281  C282  1.555557 S    
C291  C292  1.531166 S    
C326  H160  1.112413 S    
C22   C46   1.410930 A    
C66   N18   1.433310 S    
C327  H157  1.110405 S    
O52   Cu9   1.949026 S    
O23   C11   1.292312 A    
C306  H108  1.108823 S    
C170  C186  1.414933 A    
C119  H23   1.083878 S    
C335  H181  1.104107 S    
N38   O124  1.302349 A    
C43   H3    1.077489 S    
C348  H206  1.111366 S    
O60   C168  1.294213 A    
C301  H93   1.110602 S    
C132  C146  1.406640 A    
C130  H34   1.082379 S    
C12   C148  1.471310 S    
C351  H213  1.111120 S    
C245  C261  1.413544 A    
N27   O101  1.300548 A    
C311  H124  1.127934 S    
C259  C359  1.529131 S    
C346  H196  1.110874 S    
C17   C33   1.415704 A    
C247  C277  1.402307 A    
N28   O103  1.302547 A    
C82   C94   1.417790 A    
C3    C267  1.481096 S    
C210  C218  1.443772 S    
C362  H243  1.109850 S    
C137  C149  1.406255 A    
C103  N3    1.368129 A    
C282  H52   1.120778 S    
C88   C112  1.410931 A    
C243  N51   1.437225 S    
N15   O77   1.301261 A    
O7    C1    1.292257 A    
C232  C280  1.439974 S    
C305  H111  1.111189 S    
C79   C91   1.416993 A    
C349  H203  1.110860 S    
O28   C14   1.291903 A    
O26   C14   1.291291 A    
C69   C85   1.413329 A    
O29   C15   1.291728 A    
C333  H172  1.107827 S    
C350  H215  1.110144 S    
C347  C348  1.538309 S    
O30   C16   1.291944 A    
C176  C192  1.413802 A    
C133  H37   1.082829 S    
C123  C157  1.404213 A    
N39   O126  1.296945 A    
C293  C294  1.533535 S    
N44   O136  1.301198 A    
N45   O138  1.301202 A    
C143  C151  1.403863 A    
C365  H251  1.103857 S    
C144  C152  1.405688 A    
C113  H17   1.083279 S    
O53   Cu10  1.950289 S    
C322  H141  1.116746 S    
O19   Cu3   1.954453 S    
C176  C302  1.537405 S    
O17   Cu1   1.955394 S    
C342  H192  1.111162 S    
C24   C36   1.416111 A    
C357  H227  1.111192 S    
C258  C270  1.427740 A    
C47   H7    1.078803 S    
C144  H48   1.082841 S    
O18   C10   1.291610 A    
C72   C88   1.414527 A    
N24   O95   1.300621 A    
C42   C58   1.395938 A    
C65   C81   1.413732 A    
C114  C130  1.394050 A    
C99   O35   1.348875 S    
C285  C286  1.528387 S    
N34   O116  1.300118 A    
C367  H246  1.106605 S    
C248  C280  1.401786 A    
N7    C159  1.444652 S    
C199  C205  1.410555 A    
C175  C191  1.415358 A    
C128  H32   1.082899 S    
C42   H2    1.079009 S    
N21   O90   1.302443 A    
C293  H82   1.112634 S    
C304  H98   1.110393 S    
C360  H235  1.108326 S    
C105  O41   1.348467 S    
C136  H40   1.082782 S    
O4    C4    1.291259 A    
C104  N4    1.367559 A    
C169  C209  1.424943 A    
C262  C368  1.528355 S    
O53   C161  1.295276 A    
C305  C306  1.536326 S    
O20   Cu4   1.954255 S    
C330  H165  1.107974 S    
C314  H132  1.112778 S    
C114  H18   1.083137 S    
C109  N7    1.368527 A    
C13   C149  1.470971 S    
C307  H105  1.110969 S    
C178  C194  1.415816 A    
C340  H183  1.106976 S    
C2    C266  1.478570 S    
N39   O125  1.302313 A    
C185  N25   1.434345 S    
C345  C346  1.527036 S    
C66   C82   1.414339 A    
C287  C288  1.534315 S    
C296  H89   1.109291 S    
C307  H107  1.110011 S    
O50   C162  1.292882 A    
O57   C165  1.294198 A    
C9    C145  1.471700 S    
C302  H104  1.111082 S    
C174  C190  1.415760 A    
C290  H75   1.118818 S    
C117  C155  1.402077 A    
O59   C167  1.295880 A    
C70   C86   1.414372 A    
C118  C156  1.404569 A    
C299  H96   1.108083 S    
C234  C250  1.413914 A    
C288  C289  1.529144 S    
O32   Cu6   1.954259 S    
C220  C228  1.203448 T    
C318  H137  1.110106 S    
N12   O71   1.300741 A    
C362  H244  1.104435 S    
C304  H100  1.110634 S    
C238  C274  1.401889 A    
C305  H110  1.112434 S    
C296  C297  1.542706 S    
C46   C62   1.395104 A    
O56   Cu10  1.949030 S    
N46   O139  1.302179 A    
C18   C34   1.414186 A    
N30   O108  1.301151 A    
C247  N55   1.435728 S    
O22   Cu4   1.955566 S    
C342  C343  1.527434 S    
C263  C269  1.427029 A    
C243  C279  1.402656 A    
C125  H29   1.082934 S    
C64   N16   1.436167 S    
O55   Cu10  1.949343 S    
O23   Cu3   1.955397 S    
N13   O74   1.302692 A    
C332  H173  1.109961 S    
C301  H91   1.110216 S    
C324  H151  1.112524 S    
C106  N6    1.369067 A    
C117  C133  1.395307 A    
C334  H169  1.105944 S    
C374  H271  1.110210 S    
C307  H106  1.111881 S    
C25   C49   1.410897 A    
O1    C1    1.292056 A    
C312  H122  1.120354 S    
C222  C230  1.202541 T    
C84   C94   1.412288 A    
C361  H233  1.110524 S    
C102  N4    1.367991 A    
C228  C276  1.441628 S    
C352  H211  1.106208 S    
C10   C146  1.474479 S    
C373  H261  1.110182 S    
C235  C251  1.413087 A    
C36   C92   1.421077 A    
C98   N2    1.368393 A    
C372  C373  1.527453 S    
C251  C335  1.526759 S    
C20   C29   1.423867 A    
C126  H30   1.083358 S    
C288  H67   1.108982 S    
C225  C273  1.440066 S    
C375  C376  1.526824 S    
C120  H24   1.082870 S    
O51   Cu9   1.950288 S    
C17   C41   1.409965 A    
C74   C98   1.414739 A    
C62   N14   1.435516 S    
C364  H238  1.110824 S    
C77   C91   1.414486 A    
C285  H60   1.112525 S    
C78   C92   1.415254 A    
C300  C301  1.528662 S    
C122  C158  1.405650 A    
C329  H166  1.110149 S    
C347  H209  1.104606 S    
N23   O93   1.301198 A    
C337  H177  1.110496 S    
O30   Cu8   1.955566 S    
C294  H81   1.108753 S    
C328  H155  1.112404 S    
C311  C312  1.555266 S    
C352  H212  1.110701 S    
C49   C65   1.394605 A    
C366  H248  1.111360 S    
C114  C154  1.403278 A    
C77   C101  1.409929 A    
C327  H158  1.112030 S    
C341  C342  1.536304 S    
C57   C73   1.414053 A    
C197  C207  1.412993 A    
C231  C279  1.443632 S    
C53   C69   1.395313 A    
C85   C109  1.411240 A    
C57   N9    1.435045 S    
C256  C268  1.426904 A    
C229  C277  1.442721 S    
N18   O84   1.301313 A    
C140  C150  1.405074 A    
N9    O65   1.301202 A    
C189  C203  1.412323 A    
C67   N19   1.435842 S    
C141  C151  1.405523 A    
C246  C278  1.401244 A    
C142  C152  1.405981 A    
C350  C351  1.537243 S    
C60   C76   1.415890 A    
C67   C83   1.414779 A    
C177  C193  1.421143 A    
C175  C209  1.419625 A    
C112  N8    1.367857 A    
C370  H252  1.111063 S    
C137  H41   1.083042 S    
N47   O142  1.301122 A    
N14   O75   1.301793 A    
C84   C108  1.408944 A    
C216  C224  1.444924 S    
N52   O151  1.301934 A    
C110  N8    1.367133 A    
C83   C93   1.415595 A    
C356  H229  1.109992 S    
C45   H5    1.076777 S    
N43   O134  1.301820 A    
C87   C95   1.415099 A    
C167  C208  1.489755 S    
C178  C214  1.420552 A    
C257  C353  1.529734 S    
C88   C96   1.415763 A    
C127  C159  1.402962 A    
C32   C56   1.409964 A    
C18   C31   1.421579 A    
C128  C160  1.403318 A    
C303  H101  1.111020 S    
C99   N1    1.367712 A    
C183  C199  1.411204 A    
C129  H33   1.082915 S    
C247  C263  1.413792 A    
C163  C204  1.491546 S    
C234  N42   1.436481 S    
N18   O83   1.301032 A    
C124  H28   1.082864 S    
N45   O137  1.301581 A    
C116  C154  1.403556 A    
C181  C197  1.419173 A    
C316  H127  1.112582 S    
C237  C275  1.402953 A    
C333  H171  1.111007 S    
C321  H144  1.119353 S    
C174  C296  1.537468 S    
C370  H253  1.106441 S    
C317  H138  1.116931 S    
C107  N5    1.368592 A    
O31   Cu7   1.955397 S    
N43   O133  1.302173 A    
C246  N54   1.436713 S    
N27   O102  1.301581 A    
C211  C219  1.452047 S    
C283  H51   1.114838 S    
C338  C339  1.537123 S    
C355  H218  1.106087 S    
C366  C367  1.526712 S    
C242  N50   1.436915 S    
C245  C279  1.402467 A    
C263  C371  1.529661 S    
O13   Cu5   1.951016 S    
C127  C143  1.397164 A    
C104  O40   1.349180 S    
C295  H78   1.111628 S    
C23   C26   1.418368 A    
C315  H130  1.112494 S    
N55   O157  1.301399 A    
C376  H267  1.106511 S    
C43   C59   1.394583 A    
C292  H70   1.114658 S    
O21   C11   1.292471 A    
O50   Cu9   1.947719 S    
C310  H113  1.112366 S    
C22   C36   1.416568 A    
C309  H115  1.110585 S    
C257  C269  1.426551 A    
C200  N40   1.433977 S    
C320  H146  1.133327 S    
C353  C354  1.537685 S    
C248  C264  1.413851 A    
C195  C207  1.416719 A    
C294  H80   1.110816 S    
N17   O82   1.301069 A    
C28   C38   1.419451 A    
C79   C103  1.410931 A    
C26   C38   1.414441 A    
C298  H85   1.112621 S    
C33   C89   1.421538 A    
N56   O159  1.302271 A    
C170  C284  1.537169 S    
C30   C40   1.415491 A    
C361  H231  1.110791 S    
C6    C270  1.480417 S    
C11   C147  1.472746 S    
N52   O152  1.301137 A    
C50   C66   1.392223 A    
N54   O156  1.301394 A    
C1    C265  1.480127 S    
C217  C225  1.202810 T    
C356  C357  1.538042 S    
C319  H134  1.111211 S    
O3    Cu3   1.951228 S    
C282  C283  1.529267 S    
C321  C322  1.529399 S    
N5    C157  1.443025 S    
C138  H42   1.083569 S    
C107  O43   1.349479 S    
C341  H194  1.110232 S    
C184  C200  1.416744 A    
C359  H237  1.104732 S    
C313  H119  1.115791 S    
C235  C275  1.401700 A    
C315  C316  1.529546 S    
N10   O68   1.300839 A    
C291  H73   1.114037 S    
C364  H240  1.110415 S    
N32   O112  1.299757 A    
C284  C285  1.542625 S    
O57   Cu11  1.949348 S    
C123  C139  1.394859 A    
O28   Cu8   1.954255 S    
O61   Cu12  1.950289 S    
C4    C268  1.480453 S    
C121  C137  1.393502 A    
N47   O141  1.302043 A    
C240  C256  1.414210 A    
C72   N24   1.434217 S    
C343  H189  1.110888 S    
C180  C196  1.416763 A    
C119  C155  1.403982 A    
C239  C273  1.402907 A    
C27   C51   1.410980 A    
C360  C361  1.527320 S    
C358  H225  1.106145 S    
C251  C267  1.426790 A    
C125  C141  1.393426 A    
C252  C268  1.426858 A    
N40   O127  1.302233 A    
C260  C272  1.426301 A    
N24   O96   1.302701 A    
C286  H57   1.112284 S    
C182  C320  1.542217 S    
C357  C358  1.527261 S    
C289  H64   1.111570 S    
C134  C148  1.405273 A    
C281  H55   1.133821 S    
N49   O146  1.301063 A    
C259  C271  1.428205 A    
C51   H11   1.077192 S    
C241  C277  1.403770 A    
C284  H61   1.107766 S    
C313  H121  1.115390 S    
O9    Cu5   1.951231 S    
C373  H259  1.110761 S    
C370  H254  1.110271 S    
O11   Cu7   1.951228 S    
N4    C156  1.442993 S    
C295  H79   1.109535 S    
O12   C8    1.291497 A    
C294  C295  1.529204 S    
N41   O130  1.302371 A    
C56   H16   1.077582 S    
C255  C265  1.426964 A    
C330  C331  1.527102 S    
C41   H1    1.077374 S    
C326  H159  1.108963 S    
C186  C202  1.416213 A    
C101  N3    1.369146 A    
C234  C274  1.402567 A    
C15   C151  1.474169 S    
N48   O144  1.301728 A    
C69   N21   1.433772 S    
O5    C3    1.292017 A    
C354  H221  1.107761 S    
O59   Cu11  1.950288 S    
C39   C95   1.421630 A    
C323  H153  1.110244 S    
O49   Cu9   1.949348 S    
C40   C96   1.421861 A    
C306  H109  1.111043 S    
C371  H265  1.104438 S    
C61   C77   1.413208 A    
C24   C25   1.424409 A    
C346  H198  1.110714 S    
C252  C338  1.530196 S    
O51   C163  1.296419 A    
O58   C166  1.292659 A    
O7    Cu3   1.951020 S    
C367  H245  1.110877 S    
C348  H207  1.108062 S    
C241  C257  1.414579 A    
C325  H149  1.110608 S    
C194  N34   1.434648 S    
C301  H92   1.112245 S    
O14   C6    1.291575 A    
C324  C325  1.526118 S    
C351  H214  1.107873 S    
C48   H8    1.077528 S    
C59   C75   1.414216 A    
C245  N53   1.435483 S    
C41   C57   1.394952 A    
C54   C70   1.394825 A    
N51   O149  1.301839 A    
C17   C32   1.422980 A    
C365  C366  1.535002 S    
C194  C206  1.414833 A    
N28   O104  1.302921 A    
C338  H188  1.103978 S    
N29   O106  1.301562 A    
C172  C290  1.542731 S    
C181  C317  1.539202 S    
C16   C152  1.471828 S    
C19   C30   1.423237 A    
C129  C145  1.406065 A    
C368  C369  1.537276 S    
C282  H53   1.120748 S    
C319  H133  1.112859 S    
N21   O89   1.300580 A    
C344  H202  1.104714 S    
C218  C226  1.202365 T    
C32   C40   1.415695 A    
N53   O153  1.301645 A    
C136  C148  1.405481 A    
C292  H72   1.113771 S    
C213  C221  1.448090 S    
C30   C54   1.410015 A    
N36   O119  1.302322 A    
C244  C260  1.414152 A    
O64   C166  1.295063 A    
C24   C48   1.411318 A    
C173  C293  1.538968 S    
N22   O91   1.301238 A    
C103  O39   1.349609 S    
C64   C80   1.414331 A    
O14   Cu8   1.952658 S    
C212  C220  1.447548 S    
N20   O87   1.303901 A    
O2    C2    1.291242 A    
N35   O118  1.305188 A    
Cu9   Cu10  2.664738 S    
C365  H250  1.110393 S    
C191  C201  1.414108 A    
C139  H43   1.082781 S    
C332  C333  1.536082 S    
C236  N44   1.436183 S    
C335  H180  1.110616 S    
C128  C144  1.394737 A    
C368  H257  1.110377 S    
C322  H140  1.115797 S    
N26   O99   1.301988 A    
C372  H262  1.111480 S    
C342  H193  1.107711 S    
C329  C330  1.538288 S    
C21   C35   1.420271 A    
C357  H228  1.107926 S    
C56   C72   1.394318 A    
C215  C223  1.448956 S    
O13   C7    1.292624 A    
C375  H269  1.111222 S    
O8    C4    1.292023 A    
C23   C35   1.415356 A    
C22   C27   1.421303 A    
C125  C159  1.402505 A    
C289  H63   1.111564 S    
C287  H69   1.111317 S    
C126  C160  1.404401 A    
C169  C185  1.416533 A    
C300  H94   1.110313 S    
N25   O98   1.303188 A    
C171  C187  1.419743 A    
C354  C355  1.526632 S    
C233  C249  1.413670 A    
C349  H205  1.110419 S    
C172  C188  1.420573 A    
C325  H148  1.112608 S    
C339  H186  1.108477 S    
C336  H178  1.111605 S    
C111  N7    1.368616 A    
C339  C340  1.527500 S    
C298  H84   1.110127 S    
C183  C213  1.418329 A    
C20   C34   1.415834 A    
C179  C215  1.421908 A    
C314  H131  1.109546 S    
C209  C217  1.444850 S    
C73   C89   1.415482 A    
C325  H147  1.111010 S    
C374  C375  1.538354 S    
C185  C201  1.411833 A    
C230  C278  1.439685 S    
C369  H256  1.108083 S    
C290  C291  1.545095 S    
C172  C212  1.421498 A    
C122  H26   1.083732 S    
N33   O114  1.300772 A    
N50   O147  1.301666 A    
C302  H103  1.108559 S    
C299  C300  1.542545 S    
C44   H4    1.076810 S    
C358  H224  1.110684 S    
C178  C308  1.539659 S    
C87   C111  1.411528 A    
C111  O47   1.348385 S    
C346  H197  1.106428 S    
O16   C8    1.291710 A    
C196  C208  1.414417 A    
N12   O72   1.302305 A    
C188  C204  1.418926 A    
C317  H139  1.112111 S    
C37   C93   1.421834 A    
C198  C206  1.415547 A    
C254  C266  1.426691 A    
O62   C168  1.292837 A    
C330  H164  1.111541 S    
C249  C329  1.529722 S    
C53   H13   1.076967 S    
N46   O140  1.301987 A    
O4    Cu4   1.952450 S    
C313  H120  1.117867 S    
C184  C216  1.420764 A    
C337  H175  1.110978 S    
O25   Cu5   1.955394 S    
C190  C202  1.414311 A    
Cu6   Cu8   2.659825 S    
C224  C232  1.202624 T    
C236  C252  1.414361 A    
N1    C153  1.443065 S    
C176  C212  1.417671 A    
C186  N26   1.435584 S    
C333  C334  1.527783 S    
C246  C262  1.413055 A    
N22   O92   1.301931 A    
C348  C349  1.527725 S    
C249  C265  1.427199 A    
C308  C309  1.541404 S    
C363  H242  1.108782 S    
Cu11  Cu12  2.664738 S    
C174  C210  1.421227 A    
N53   O154  1.299533 A    
C286  H56   1.110599 S    
O10   C6    1.291716 A    
C312  H123  1.120388 S    
O63   Cu12  1.949343 S    
N8    C160  1.443738 S    
C339  H185  1.111392 S    
C196  N36   1.433761 S    
N31   O110  1.296357 A    
C115  H19   1.083011 S    
C369  H255  1.111345 S    
C171  C211  1.420253 A    
C162  C203  1.481545 S    
C373  H260  1.106296 S    
C38   C94   1.422392 A    
C140  H44   1.082742 S    
O19   C9    1.291461 A    
C177  C305  1.541876 S    
C326  C327  1.541798 S    
C171  C287  1.539495 S    
N11   O70   1.302047 A    
C320  H145  1.127619 S    
C184  C326  1.539688 S    
C233  N41   1.436664 S    
C50   H10   1.078504 S    
C236  C276  1.403161 A    
C335  C336  1.536123 S    
O24   C12   1.290894 A    
C97   O33   1.348692 S    
C29   C39   1.415407 A    
C108  N6    1.368616 A    
C296  H90   1.112898 S    
C238  N46   1.435533 S    
C350  H216  1.104652 S    
C179  C311  1.542764 S    
O24   Cu2   1.954259 S    
C352  H210  1.110789 S    
O12   Cu8   1.952450 S    
C21   C45   1.414730 A    
C54   H14   1.077367 S    
C133  C147  1.405089 A    
C347  H208  1.109901 S    
C309  C310  1.528906 S    
C337  H176  1.107482 S    
C83   C107  1.409437 A    
C336  C337  1.526386 S    
C34   C90   1.422440 A    
O2    Cu2   1.952446 S    
C71   C87   1.415672 A    
N44   O135  1.302345 A    
C358  H226  1.110431 S    
C81   C105  1.411963 A    
C165  C206  1.490234 S    
C340  H184  1.110237 S    
C366  H249  1.108376 S    
C353  H222  1.109918 S    
C344  C345  1.537533 S    
C98   O34   1.347947 S    
C322  H142  1.115389 S    
C45   C61   1.393194 A    
C235  N43   1.433498 S    
C331  H162  1.106326 S    
C183  C323  1.531262 S    
N6    C158  1.445494 S    
C86   C110  1.411559 A    
C239  N47   1.437039 S    
C181  C215  1.422019 A    
C86   C96   1.415500 A    
C23   C47   1.410232 A    
C80   C92   1.415151 A    
C261  C271  1.425075 A    
C63   C79   1.412874 A    
C100  O36   1.349782 S    
C344  H201  1.110030 S    
N34   O115  1.301472 A    
C78   C102  1.411006 A    
C242  C258  1.414511 A    
C363  H241  1.111260 S    
C367  H247  1.110234 S    
N16   O80   1.302740 A    
C331  H161  1.111065 S    
C180  C314  1.540740 S    
C61   N13   1.437246 S    
C253  C267  1.425802 A    
C75   C89   1.415933 A    
C328  H156  1.110550 S    
C298  H86   1.111066 S    
C223  C231  1.204217 T    
C293  H83   1.111120 S    
C360  H234  1.111295 S    
C328  H154  1.110403 S    
C123  H27   1.083033 S    
N26   O100  1.300066 A    
C115  C153  1.403361 A    
C295  H77   1.111241 S    
N42   O131  1.301593 A    
C121  H25   1.083353 S    
C292  H71   1.114767 S    
C221  C229  1.203889 T    
N19   O85   1.300907 A    
C55   C71   1.397610 A    
C55   H15   1.077992 S    
C314  C315  1.542137 S    
C177  C213  1.422302 A    
C20   C44   1.408803 A    
C21   C28   1.430150 A    
C68   N20   1.440074 S    
C303  H102  1.113278 S    
C262  C270  1.426798 A    
C175  C299  1.540972 S    
O20   C10   1.292536 A    
C327  C328  1.528907 S    
C261  C365  1.529132 S    
C242  C278  1.402173 A    
N36   O120  1.299118 A    
O63   C167  1.294639 A    
C316  H126  1.110320 S    
O10   Cu6   1.952446 S    
C179  C195  1.417562 A    
C290  H76   1.118568 S    
N51   O150  1.301797 A    
C191  N31   1.434887 S    
C131  C145  1.405961 A    
N55   O158  1.301697 A    
C320  C321  1.556145 S    
C299  H97   1.111413 S    
O15   C5    1.292865 A    
O61   C165  1.296549 A    
C351  C352  1.527815 S    
C35   C91   1.424137 A    
C219  C227  1.203979 T    
C297  H88   1.113515 S    
C197  N37   1.434203 S    
C318  H136  1.112180 S    
C283  H50   1.117603 S    
N30   O107  1.303015 A    
C264  C374  1.528912 S    
C195  N35   1.425237 S    
O56   C162  1.292666 A    
C81   C93   1.414615 A    
C371  C372  1.538214 S    
C297  H87   1.111699 S    
C256  C350  1.530805 S    
O1    Cu1   1.951231 S    
C100  N2    1.367857 A    
C356  H230  1.104463 S    
C76   C100  1.408493 A    
C118  H22   1.083235 S    
