data_mof_unit_17790.cif
_audit_creation_date              2012-12-10T17:48:56-0500
_audit_creation_method            fapswitch 2.2
_symmetry_space_group_name_H-M    P1
_symmetry_Int_Tables_number       1
_space_group_crystal_system       triclinic
_cell_length_a                    10.751405
_cell_length_b                    14.738144
_cell_length_c                    14.742797
_cell_angle_alpha                 64.465866
_cell_angle_beta                  103.789556
_cell_angle_gamma                 103.337904
_cell_volume                      2025.21937304

loop_
_atom_site_label
_atom_site_type_symbol
_atom_type_description
_atom_site_fract_x
_atom_site_fract_y
_atom_site_fract_z
_atom_type_partial_charge
C1    C     C_R   0.476459 0.120420 0.311953 0.832164
C2    C     C_R   0.422949 0.363093 0.079721 0.041852
C3    C     C_R   0.355896 0.322988 0.006755 0.140953
C4    C     C_R   0.260159 0.999750 0.500371 0.816827
C5    C     C_R   0.433498 0.469261 0.052853 0.067393
C6    C     C_R   0.410416 0.535660 0.948867 0.081977
C7    C     C_R   0.349381 0.493279 0.876873 -0.239477
C8    C     C_R   0.318160 0.388587 0.906472 -0.229890
C9    C     C_R   0.456965 0.510297 0.126786 -0.271219
C10   C     C_R   0.480377 0.614640 0.099839 -0.205168
C11   C     C_R   0.482629 0.681524 0.997967 0.168446
C12   C     C_3   0.877714 0.997437 0.499953 0.082472
C13   C     C_R   0.447016 0.642136 0.921274 0.036387
C14   C     C_R   0.519440 0.787034 0.971101 0.151361
C15   C     C_R   0.528451 0.851848 0.869580 -0.255212
C16   C     C_R   0.513958 0.880172 0.687592 0.791759
C17   C     C_R   0.456516 0.709641 0.820085 -0.269887
C18   C     C_R   0.740961 0.295036 0.648186 -0.400483
C19   C     C_R   0.694593 0.207000 0.629675 0.663082
C20   C     C_R   0.515757 0.283571 0.513823 -0.074031
C21   C     C_R   0.555323 0.373275 0.533860 -0.034144
C22   C     C_R   0.670144 0.376737 0.603847 -0.013173
C23   C     C_3   0.961975 0.999854 0.600869 -0.467419
C24   C     C_R   0.486266 0.459068 0.486371 0.012782
C25   C     C_R   0.525948 0.543402 0.516768 -0.099323
C26   C     C_R   0.634923 0.537314 0.595767 0.391578
C27   C     C_R   0.711486 0.460421 0.631016 0.095977
C28   C     C_R   0.740053 0.999120 0.500649 0.820708
C29   C     C_R   0.379055 0.462691 0.408788 -0.257492
C30   C     C_R   0.308203 0.543419 0.362959 0.145121
C31   C     C_R   0.343880 0.626025 0.391749 0.172129
C32   C     C_R   0.454302 0.628878 0.466933 -0.060483
C33   C     C_R   0.271143 0.707261 0.344522 -0.290349
C34   C     C_3   0.928064 0.095055 0.411591 -0.440107
C35   C     C_R   0.307672 0.790899 0.370079 0.040608
C36   C     C_R   0.488089 0.719258 0.485786 0.021227
C37   C     C_3   0.038221 0.905182 0.482981 -0.451138
C38   C     C_3   0.893088 0.900990 0.483852 0.586274
C39   C     C_3   0.103626 0.992385 0.603838 -0.493053
C40   C     C_3   0.074490 0.098879 0.414286 -0.007186
C41   C     C_3   0.121922 0.999500 0.499605 0.108517
C42   C     C_3   0.793249 0.092276 0.779460 0.038134
C43   C     C_3   0.843046 0.990583 0.824438 -0.800729
C44   C     C_3   0.799794 0.817700 0.369979 0.087444
C45   C     C_R   0.445215 0.189796 0.204470 -0.038124
C46   C     C_3   0.753460 0.842339 0.257370 -0.807051
C47   C     C_3   0.626341 0.568486 0.732526 0.093747
C48   C     C_3   0.705054 0.627190 0.795686 -0.765761
C49   C     C_R   0.501868 0.813079 0.794413 -0.087859
C50   C     C_R   0.328715 0.217700 0.034521 -0.213312
C51   C     C_R   0.368516 0.151676 0.133741 -0.239865
C52   C     C_R   0.481632 0.295755 0.174913 0.085595
Cu1   Cu    Cu3+1 0.465900 0.918260 0.475680 0.953656
Cu2   Cu    Cu3+1 0.534100 0.081740 0.524320 0.969260
H1    H     H_    0.074375 0.834905 0.543245 0.138459
H2    H     H_    0.340116 0.070636 0.154861 0.161635
H3    H     H_    0.051520 0.907002 0.409719 0.181531
H4    H     H_    0.318074 0.539509 0.798080 0.139376
H5    H     H_    0.451369 0.462456 0.205662 0.152061
H6    H     H_    0.573206 0.734619 0.534344 0.220865
H7    H     H_    0.251352 0.853038 0.334065 0.125509
H8    H     H_    0.832529 0.298967 0.697029 0.137024
H9    H     H_    0.429847 0.273557 0.462102 0.140452
H10   H     H_    0.347477 0.403952 0.379997 0.125893
H11   H     H_    0.186127 0.706790 0.287799 0.173958
H12   H     H_    0.914252 0.163985 0.419054 0.163735
H13   H     H_    0.129766 0.919217 0.665325 0.177619
H14   H     H_    0.923775 0.938580 0.668750 0.170630
H15   H     H_    0.128648 0.163923 0.433957 0.153762
H16   H     H_    0.870467 0.097791 0.337204 0.198838
H17   H     H_    0.648620 0.395732 0.183982 0.227324
H18   H     H_    0.570412 0.346776 0.287533 0.231615
H19   H     H_    0.488289 0.881499 0.027233 0.219493
H20   H     H_    0.644911 0.867710 0.044246 0.218840
H21   H     H_    0.907323 0.467443 0.668315 0.214843
H22   H     H_    0.824994 0.406162 0.769575 0.205938
H23   H     H_    0.168394 0.054648 0.622817 0.190619
H24   H     H_    0.232703 0.536204 0.226323 0.226501
H25   H     H_    0.134106 0.476239 0.315438 0.217984
H26   H     H_    0.705736 0.082654 0.812524 0.125420
H27   H     H_    0.871043 0.145953 0.802597 0.130995
H28   H     H_    0.939801 0.001335 0.803850 0.232719
H29   H     H_    0.851994 0.958082 0.908705 0.199752
H30   H     H_    0.775845 0.936341 0.795143 0.253518
H31   H     H_    0.723372 0.761610 0.412124 0.177729
H32   H     H_    0.889624 0.782759 0.392813 0.118219
H33   H     H_    0.827808 0.897950 0.212297 0.234511
H34   H     H_    0.959133 0.072504 0.606029 0.230780
H35   H     H_    0.736025 0.771879 0.243311 0.213913
H36   H     H_    0.661758 0.875080 0.232599 0.264919
H37   H     H_    0.634541 0.486411 0.778586 0.146942
H38   H     H_    0.522990 0.578131 0.717324 0.130132
H39   H     H_    0.695215 0.709093 0.754603 0.246028
H40   H     H_    0.670846 0.596998 0.870054 0.206905
H41   H     H_    0.808836 0.618884 0.809854 0.250822
H42   H     H_    0.897809 0.803742 0.637523 0.193530
H43   H     H_    0.866937 0.743142 0.562239 0.223405
H44   H     H_    0.084644 0.190005 0.263810 0.219019
H45   H     H_    0.267426 0.358799 0.849860 0.138786
H46   H     H_    0.038830 0.066365 0.285885 0.242841
H47   H     H_    0.434908 0.682236 0.760413 0.162062
H48   H     H_    0.557092 0.932462 0.850058 0.159884
H49   H     H_    0.499972 0.642352 0.159750 0.184466
H50   H     H_    0.274126 0.186382 0.979951 0.137029
N1    N     N_R   0.585360 0.204570 0.560800 -0.213314
N2    N     N_R   0.414550 0.795430 0.439160 -0.189435
N3    N     N_3   0.595597 0.331258 0.232108 -0.593161
N4    N     N_3   0.550519 0.828589 0.046884 -0.627641
N5    N     N_3   0.829839 0.467965 0.699451 -0.564271
N6    N     N_3   0.199726 0.541639 0.284805 -0.616193
N7    N     N_3   0.845998 0.806538 0.567130 -0.574116
N8    N     N_3   0.102191 0.116645 0.314608 -0.616245
O1    O     O_R   0.455060 0.022100 0.338110 -0.587635
O2    O     O_3   0.819384 0.907970 0.386869 -0.576054
O3    O     O_3   0.673602 0.607365 0.639290 -0.599072
O4    O     O_R   0.512640 0.160150 0.379180 -0.571801
O5    O     O_R   0.288900 0.930980 0.479450 -0.597229
O6    O     O_R   0.346480 0.069030 0.520520 -0.604687
O7    O     O_R   0.487360 0.839850 0.620820 -0.593977
O8    O     O_R   0.544940 0.977900 0.661890 -0.554835
O9    O     O_R   0.653520 0.930970 0.479480 -0.540817
O10   O     O_R   0.711100 0.069020 0.520550 -0.543092
O11   O     O_3   0.764726 0.126111 0.672188 -0.560749

loop_
_geom_bond_atom_site_label_1
_geom_bond_atom_site_label_2
_ccdc_geom_bond_type
C50   H50   S    
C48   H41   S    
H17   N3    S    
C43   H29   S    
C47   H38   S    
C34   H12   S    
C33   H11   S    
C7    C8    A    
C40   N8    S    
C46   H35   S    
Cu1   Cu2   S    
C47   O3    S    
C12   C23   S    
C19   O11   S    
C26   C27   A    
C29   C30   A    
C48   H40   S    
C12   C28   S    
C34   C40   S    
C39   H23   S    
C10   H49   S    
C8    H45   S    
C18   C19   A    
Cu2   O8    S    
C16   O8    A    
C30   C31   A    
H43   N7    S    
C11   C14   A    
Cu1   O5    S    
C4    C41   S    
C45   C51   A    
C51   H2    S    
C17   H47   S    
C26   O3    S    
C24   C29   A    
Cu1   N2    S    
C47   C48   S    
C52   N3    S    
Cu1   O1    S    
H22   N5    S    
Cu2   O4    S    
C31   C33   A    
C1    O4    A    
C9    C10   A    
C34   H16   S    
C7    H4    S    
Cu2   N1    S    
C25   C32   A    
C14   N4    S    
Cu2   O10   S    
C29   H10   S    
C44   O2    S    
C21   C22   A    
C12   C38   S    
C43   H30   S    
C4    O6    A    
C42   H27   S    
C1    O1    A    
C44   H32   S    
C3    C50   A    
C44   C46   S    
C42   O11   S    
H42   N7    S    
H21   N5    S    
H44   N8    S    
C40   H15   S    
C36   N2    A    
C16   C49   S    
C39   C41   S    
C3    C8    A    
C48   H39   S    
C16   O7    A    
C17   C49   A    
C28   O9    A    
C18   H8    S    
H19   N4    S    
C45   C52   A    
C25   C26   A    
C9    H5    S    
C23   H14   S    
C5    C9    A    
C37   C38   S    
C31   C32   A    
H18   N3    S    
C50   C51   A    
C35   H7    S    
C24   C25   A    
C2    C52   A    
C19   N1    A    
C40   C41   S    
C30   N6    S    
H46   N8    S    
C23   H34   S    
Cu2   O6    S    
C4    O5    A    
C2    C5    A    
C42   C43   S    
C12   C34   S    
C44   H31   S    
C32   C36   A    
C46   H33   S    
H25   N6    S    
C18   C22   A    
C47   H37   S    
C36   H6    S    
Cu1   O7    S    
C6    C7    A    
C46   H36   S    
C39   H13   S    
H24   N6    S    
C13   C17   A    
C22   C27   A    
C20   H9    S    
C2    C3    A    
C35   N2    A    
Cu1   O9    S    
C6    C13   A    
C11   C13   A    
C1    C45   S    
C5    C6    A    
C38   O2    S    
C33   C35   A    
C28   O10   A    
C15   C49   A    
C15   H48   S    
C37   C41   S    
C10   C11   A    
H20   N4    S    
C37   H1    S    
C20   C21   A    
C27   N5    S    
C21   C24   A    
C42   H26   S    
C43   H28   S    
C20   N1    A    
C14   C15   A    
C38   N7    S    
C23   C39   S    
C37   H3    S    
