data_mof_unit_25423.cif
_audit_creation_date              2012-12-11T17:02:15-0500
_audit_creation_method            fapswitch 2.2
_symmetry_space_group_name_H-M    P1
_symmetry_Int_Tables_number       1
_space_group_crystal_system       triclinic
_cell_length_a                    21.640915
_cell_length_b                    7.056288
_cell_length_c                    14.815696
_cell_angle_alpha                 90.000399
_cell_angle_beta                  105.964995
_cell_angle_gamma                 90.0
_cell_volume                      2175.16200205

loop_
_atom_site_label
_atom_site_type_symbol
_atom_type_description
_atom_site_fract_x
_atom_site_fract_y
_atom_site_fract_z
_atom_type_partial_charge
O1    O     O_R   0.585850 0.505770 0.002130 -0.536087
O2    O     O_R   0.414150 0.005770 0.997870 -0.536087
O3    O     O_R   0.467530 0.173560 0.861970 -0.538828
O4    O     O_R   0.532470 0.673560 0.138030 -0.538828
C1    C     C_R   0.455943 0.344304 0.825098 0.683700
C2    C     C_R   0.544057 0.844306 0.174902 0.683700
O5    O     O_R   0.588690 0.175900 0.993250 -0.545685
O6    O     O_R   0.411310 0.675900 0.006750 -0.545685
O7    O     O_R   0.536170 0.007950 0.130090 -0.538076
O8    O     O_R   0.463830 0.507950 0.869910 -0.538076
C3    C     C_R   0.614961 0.344555 0.997366 0.711346
C4    C     C_R   0.385039 0.844555 0.002634 0.711345
O9    O     O_3   0.482630 0.339970 0.044740 -0.373224
O10   O     O_3   0.517370 0.839970 0.955260 -0.373225
V1    V     V_3+5 0.503220 0.064200 0.991700 1.406412
V2    V     V_3+5 0.496780 0.564200 0.008300 1.406411
C5    C     C_R   0.293232 0.992253 0.051763 0.084013
C6    C     C_R   0.706768 0.492260 0.948238 0.084016
C7    C     C_R   0.316868 0.851067 0.003883 -0.169749
C8    C     C_R   0.683131 0.351067 0.996114 -0.169749
C9    C     C_R   0.273255 0.710501 0.957887 -0.177792
C10   C     C_R   0.726743 0.210495 0.042105 -0.177801
H1    H     H_    0.289858 0.596632 0.921380 0.136225
H2    H     H_    0.710141 0.096621 0.078608 0.136227
C11   C     C_R   0.206807 0.724719 0.949811 0.332671
C12   C     C_R   0.793192 0.224715 0.050180 0.332666
C13   C     C_R   0.183074 0.876775 0.994682 -0.191119
C14   C     C_R   0.816925 0.376777 0.005315 -0.191122
C15   C     C_R   0.228536 0.003087 0.048484 0.052778
C16   C     C_R   0.771464 0.503094 0.951517 0.052767
C17   C     C_3   0.229855 0.214683 0.049188 -0.376027
C18   C     C_3   0.770146 0.714691 0.950822 -0.376016
C19   C     C_3   0.300710 0.202354 0.052741 -0.384263
C20   C     C_3   0.699291 0.702362 0.947270 -0.384263
H3    H     H_    0.221550 0.274355 0.114316 0.157003
H4    H     H_    0.778451 0.774374 0.885697 0.157008
H5    H     H_    0.199540 0.276144 0.982733 0.222988
H6    H     H_    0.800462 0.776142 0.017280 0.222997
H7    H     H_    0.333109 0.254445 0.120025 0.166616
H8    H     H_    0.666892 0.754462 0.879989 0.166618
H9    H     H_    0.311373 0.257297 0.988303 0.179620
H10   H     H_    0.688630 0.757294 0.011711 0.179615
C21   C     C_R   0.926894 0.887008 0.723352 -0.033715
C22   C     C_R   0.073106 0.387016 0.276648 -0.033720
C23   C     C_R   0.571320 0.849692 0.276732 -0.024898
C24   C     C_R   0.428679 0.349687 0.723268 -0.024898
C25   C     C_R   0.936342 0.939306 0.566921 -0.165278
C26   C     C_R   0.063661 0.439366 0.433077 -0.165277
C27   C     C_R   0.964613 0.927220 0.663121 -0.175380
C28   C     C_R   0.035389 0.427267 0.336877 -0.175377
C29   C     C_R   0.860689 0.858676 0.687485 -0.208921
C30   C     C_R   0.139309 0.358663 0.312516 -0.208921
C31   C     C_R   0.830248 0.874301 0.589967 0.103668
C32   C     C_R   0.169753 0.374313 0.410033 0.103667
C33   C     C_R   0.869724 0.915534 0.530110 0.134161
C34   C     C_R   0.130278 0.415576 0.469889 0.134158
C35   C     C_R   0.762209 0.854692 0.550258 0.019781
C36   C     C_R   0.237791 0.354700 0.449741 0.019782
C37   C     C_R   0.734974 0.879132 0.451461 0.051002
C38   C     C_R   0.265026 0.379150 0.548538 0.051001
C39   C     C_R   0.776766 0.919828 0.395410 -0.166325
C40   C     C_R   0.223236 0.419869 0.604587 -0.166324
C41   C     C_R   0.842549 0.936388 0.434051 -0.200809
C42   C     C_R   0.157454 0.436445 0.565947 -0.200805
C43   C     C_R   0.720687 0.812195 0.606212 -0.259423
C44   C     C_R   0.279313 0.312202 0.393788 -0.259423
C45   C     C_R   0.654364 0.796170 0.568312 0.270251
C46   C     C_R   0.345636 0.296174 0.431687 0.270251
C47   C     C_R   0.627076 0.818131 0.471181 0.100028
C48   C     C_R   0.372924 0.318128 0.528819 0.100029
C49   C     C_R   0.666995 0.860614 0.411760 0.029962
C50   C     C_R   0.333006 0.360620 0.588239 0.029963
C51   C     C_R   0.560385 0.792973 0.432002 -0.139486
C52   C     C_R   0.439615 0.292958 0.567998 -0.139489
C53   C     C_R   0.533013 0.807047 0.335651 -0.193397
C54   C     C_R   0.466986 0.307031 0.664349 -0.193396
C55   C     C_R   0.637235 0.878510 0.314099 -0.189038
C56   C     C_R   0.362766 0.378515 0.685901 -0.189039
H11   H     H_    0.872469 0.968198 0.388067 0.132360
H12   H     H_    0.127535 0.468278 0.611930 0.132364
H13   H     H_    0.663773 0.907973 0.264024 0.092452
H14   H     H_    0.336227 0.407980 0.735976 0.092453
H15   H     H_    0.481962 0.782403 0.306777 0.108728
H16   H     H_    0.518037 0.282380 0.693223 0.108726
H17   H     H_    0.966454 0.971334 0.521281 0.120154
H18   H     H_    0.033551 0.471422 0.478716 0.120154
H19   H     H_    0.015796 0.951369 0.690787 0.108127
H20   H     H_    0.984207 0.451435 0.309211 0.108126
H21   H     H_    0.834546 0.831595 0.738344 0.092688
H22   H     H_    0.165450 0.331544 0.261658 0.092690
H23   H     H_    0.760555 0.940709 0.320719 0.130859
H24   H     H_    0.239448 0.440765 0.679277 0.130864
H25   H     H_    0.737988 0.790698 0.680796 0.125501
H26   H     H_    0.262012 0.290716 0.319202 0.125498
H27   H     H_    0.529078 0.757929 0.475353 0.157557
H28   H     H_    0.470921 0.257906 0.524646 0.157558
O11   O     O_R   0.036080 0.231270 0.130120 -0.541548
O12   O     O_R   0.963920 0.731270 0.869880 -0.541550
O13   O     O_R   0.911300 0.558970 0.006750 -0.536669
O14   O     O_R   0.088700 0.058970 0.993250 -0.536667
C57   C     C_R   0.885289 0.389677 0.004237 0.683275
C58   C     C_R   0.114711 0.889676 0.995761 0.683264
O15   O     O_R   0.032450 0.561140 0.138040 -0.538308
O16   O     O_R   0.967550 0.061140 0.861960 -0.538308
O17   O     O_R   0.085870 0.728910 0.002130 -0.534233
O18   O     O_R   0.914130 0.228910 0.997870 -0.534221
C59   C     C_R   0.044792 0.392702 0.175142 0.684265
C60   C     C_R   0.955208 0.892700 0.824858 0.684265
O19   O     O_3   0.017320 0.394650 0.955270 -0.368295
O20   O     O_3   0.982680 0.894650 0.044730 -0.368289
V3    V     V_3+5 0.996780 0.670490 0.008300 1.442863
V4    V     V_3+5 0.003220 0.170490 0.991700 1.442869
N1    N     N_2   0.615339 0.753019 0.629007 -0.528822
H29   H     H_    0.636651 0.660840 0.682620 0.255313
C61   C     C_3   0.589068 0.917897 0.663217 -0.572100
H30   H     H_    0.628350 0.004219 0.708958 0.191168
H31   H     H_    0.556130 0.872044 0.704776 0.206944
H32   H     H_    0.561350 0.006125 0.603713 0.206953
N2    N     N_2   0.384661 0.253034 0.370991 -0.528823
H33   H     H_    0.363348 0.160869 0.317371 0.255310
C62   C     C_3   0.410937 0.417919 0.336794 -0.572098
H34   H     H_    0.371656 0.504252 0.291058 0.191170
H35   H     H_    0.443877 0.372076 0.295236 0.206946
H36   H     H_    0.438653 0.506133 0.396306 0.206954
O21   O     O_3   0.166982 0.594853 0.892324 -0.657037
H37   H     H_    0.123781 0.651429 0.867651 0.283093
O22   O     O_3   0.833018 0.094848 0.107663 -0.657032
H38   H     H_    0.876213 0.151454 0.132358 0.283083

loop_
_geom_bond_atom_site_label_1
_geom_bond_atom_site_label_2
_ccdc_geom_bond_type
C44   C46   A    
C2    C23   S    
C13   C15   A    
C5    C15   A    
C27   H19   S    
C31   C33   A    
C30   H22   S    
O1    C3    A    
O16   C60   A    
O2    C4    A    
C54   H16   S    
C2    O7    A    
C24   C54   A    
C25   C27   A    
C41   H11   S    
O5    C3    A    
C19   H7    S    
C52   C54   A    
C20   H8    S    
C25   H17   S    
C10   H2    S    
O15   V3    S    
C7    C9    A    
O19   V3    S    
C46   N2    S    
C35   C37   A    
C38   C50   A    
C36   C38   A    
C61   H30   S    
O12   C60   A    
C58   O17   A    
C38   C40   A    
C47   C49   A    
C11   O21   S    
O20   V3    S    
C62   H36   S    
C40   C42   A    
C14   C57   S    
C36   C44   A    
C20   H10   S    
C61   H31   S    
C33   C41   A    
C48   C52   A    
C50   C56   A    
C17   C19   S    
C47   C51   A    
C6    C16   A    
C18   H6    S    
C6    C8    A    
C28   H20   S    
C44   H26   S    
C22   C30   A    
C26   C28   A    
O17   V3    S    
C25   C33   A    
O6    V2    S    
C42   H12   S    
C5    C19   S    
C30   C32   A    
N2    C62   S    
C32   C34   A    
C3    C8    S    
C37   C39   A    
C48   C50   A    
C53   H15   S    
C52   H28   S    
O4    C2    A    
O19   V4    S    
O16   V4    S    
O11   V4    S    
C31   C35   A    
C21   C27   A    
O18   V4    S    
C43   C45   A    
C17   H5    S    
C40   H24   S    
C29   C31   A    
C18   C20   S    
O4    V2    S    
C56   H14   S    
C55   H13   S    
O6    C4    A    
C61   H32   S    
O13   V3    S    
O14   C58   A    
O1    V2    S    
O2    V1    S    
C6    C20   S    
C62   H34   S    
O13   C57   A    
C8    C10   A    
O14   V4    S    
C9    H1    S    
O21   H37   S    
C17   H3    S    
C51   C53   A    
O22   H38   S    
C18   H4    S    
C49   C55   A    
O3    V1    S    
C12   O22   S    
C24   C56   A    
N1    H29   S    
C32   C36   A    
C22   C59   S    
C22   C28   A    
C57   O18   A    
C26   C34   A    
C9    C11   A    
O12   V3    S    
C39   C41   A    
C35   C43   A    
O3    C1    A    
O15   C59   A    
N2    H33   S    
C11   C13   A    
C1    C24   S    
C13   C58   S    
C12   C14   A    
C23   C53   A    
C19   H9    S    
C14   C16   A    
C45   N1    S    
C1    O8    A    
C15   C17   S    
O8    V2    S    
C29   H21   S    
C16   C18   S    
C21   C29   A    
C34   C42   A    
C4    C7    S    
O5    V1    S    
C43   H25   S    
C5    C7    A    
C26   H18   S    
C21   C60   S    
O7    V1    S    
O20   V4    S    
C62   H35   S    
O11   C59   A    
C46   C48   A    
C10   C12   A    
O9    V2    S    
C51   H27   S    
O10   V1    S    
C23   C55   A    
C45   C47   A    
C39   H23   S    
C37   C49   A    
N1    C61   S    
