data_mof_unit_26995.cif
_audit_creation_date              2012-12-11T15:34:39-0500
_audit_creation_method            fapswitch 2.2
_symmetry_space_group_name_H-M    P1
_symmetry_Int_Tables_number       1
_space_group_crystal_system       triclinic
_cell_length_a                    15.025015
_cell_length_b                    15.046081
_cell_length_c                    34.896779
_cell_angle_alpha                 90.834158
_cell_angle_beta                  90.007779
_cell_angle_gamma                 60.107232
_cell_volume                      6838.51600298

loop_
_atom_site_label
_atom_site_type_symbol
_atom_type_description
_atom_site_fract_x
_atom_site_fract_y
_atom_site_fract_z
_atom_type_partial_charge
C1    C     C_R   0.300791 0.609225 0.555363 0.586835
C2    C     C_R   0.209311 0.725519 0.391958 -0.130392
C3    C     C_R   0.736547 0.146232 0.266216 -0.110843
C4    C     C_R   0.743240 0.139219 0.226499 -0.082798
C5    C     C_R   0.660908 0.208349 0.204155 0.005701
C6    C     C_R   0.717990 0.231415 0.347736 -0.123813
C7    C     C_R   0.712916 0.237652 0.387750 -0.020197
C8    C     C_R   0.562085 0.216178 0.385752 0.239339
C9    C     C_R   0.748767 0.612820 0.643254 -0.019692
C10   C     C_R   0.570141 0.208363 0.345869 0.011656
C11   C     C_R   0.643817 0.222279 0.326707 0.024085
C12   C     C_R   0.626655 0.242852 0.406916 0.018708
C13   C     C_R   0.180170 0.739410 0.353405 0.002085
C14   C     C_R   0.089163 0.705972 0.093291 -0.028275
C15   C     C_R   0.098336 0.616371 0.109276 -0.158026
C16   C     C_R   0.134022 0.587380 0.146545 0.068290
C17   C     C_R   0.156964 0.652272 0.168868 0.110591
C18   C     C_R   0.156226 0.736568 0.152146 -0.061953
C19   C     C_R   0.126589 0.762242 0.114110 0.004443
C20   C     C_R   0.263758 0.628241 0.227664 -0.010347
C21   C     C_2   0.920537 0.026590 0.826564 0.224337
C22   C     C_2   0.949747 0.763230 0.779355 0.282441
C23   C     C_2   0.154766 0.529361 0.575261 0.252512
C24   C     C_R   0.185664 0.656026 0.332464 -0.059059
C25   C     C_2   0.779663 0.524997 0.079999 0.258939
C26   C     C_2   0.620402 0.521214 0.279980 0.286885
C27   C     C_2   0.720364 0.795863 0.301519 0.258357
C28   C     C_2   0.855689 0.578993 0.656503 0.227543
C29   C     C_2   0.467358 0.378849 0.278983 0.198331
C30   C     C_2   0.799945 0.237479 0.407819 0.284691
C31   C     C_2   0.137165 0.846620 0.097234 0.280541
C32   C     C_2   0.148769 0.838911 0.334851 0.280962
C33   C     C_2   0.350894 0.648310 0.286684 0.234785
C34   C     C_2   0.360334 0.591041 0.204509 0.221906
C35   C     C_R   0.561943 0.723892 0.650626 0.208259
C36   C     C_2   0.144049 0.490402 0.160958 0.283583
C37   C     C_R   0.243414 0.630501 0.409589 0.031976
C38   C     C_R   0.736840 0.023989 0.942981 0.544704
C39   C     C_R   0.746494 0.722996 0.944663 0.561561
C40   C     C_R   0.037990 0.733837 0.948097 0.568779
C41   C     C_R   0.722532 0.039898 0.052936 0.605769
C42   C     C_R   0.732401 0.733915 0.054398 0.540478
C43   C     C_R   0.661630 0.676243 0.666641 0.010459
C44   C     C_R   0.029270 0.744161 0.057593 0.534156
C45   C     C_R   0.549558 0.700479 0.613085 -0.113592
C46   C     C_R   0.676959 0.686259 0.785795 0.342097
C47   C     C_R   0.672149 0.679108 0.708376 0.395872
C48   C     C_R   0.757784 0.604757 0.846846 -0.132445
C49   C     C_R   0.776181 0.610406 0.886087 0.238586
C50   C     C_R   0.632772 0.785246 0.888024 -0.102936
C51   C     C_R   0.613558 0.779202 0.849298 0.236910
C52   C     C_R   0.680554 0.689855 0.827897 0.004581
C53   C     C_R   0.611032 0.589162 0.555131 0.573191
C54   C     C_R   0.264769 0.643225 0.267822 -0.030462
C55   C     C_R   0.715851 0.703483 0.906487 0.015270
C56   C     C_R   0.728998 0.063091 0.903922 0.016703
C57   C     C_R   0.637781 0.098654 0.883302 -0.110587
C58   C     C_R   0.637068 0.112859 0.843962 -0.126700
C59   C     C_R   0.727516 0.090818 0.824398 0.037750
C60   C     C_R   0.819823 0.057398 0.844999 0.032730
C61   C     C_R   0.818510 0.046404 0.884747 -0.141267
C62   C     C_R   0.736090 0.181393 0.766834 -0.054889
C63   C     C_R   0.727325 0.196703 0.727449 -0.088912
C64   C     C_R   0.703549 0.135657 0.703470 0.027799
C65   C     C_R   0.181203 0.655358 0.290422 -0.066412
C66   C     C_R   0.590573 0.299981 0.553397 0.534865
C67   C     C_R   0.690225 0.057936 0.719492 -0.110530
C68   C     C_R   0.699353 0.042452 0.758946 -0.095483
C69   C     C_R   0.722046 0.104347 0.782718 0.066969
C70   C     C_R   0.596867 0.167661 0.645041 -0.104347
C71   C     C_R   0.569285 0.207548 0.608363 -0.110855
C72   C     C_R   0.721681 0.223760 0.604786 -0.114968
C73   C     C_R   0.749052 0.184111 0.641466 -0.111153
C74   C     C_R   0.684967 0.159231 0.662400 0.030414
C75   C     C_R   0.629490 0.239524 0.588492 0.023335
C76   C     C_R   0.094662 0.661342 0.273386 -0.112128
C77   C     C_R   0.088564 0.697338 0.910216 0.062920
C78   C     C_R   0.299684 0.610180 0.446084 0.583941
C79   C     C_R   0.096955 0.767535 0.886394 -0.164487
C80   C     C_R   0.117700 0.746458 0.847454 -0.082574
C81   C     C_R   0.131042 0.654740 0.831646 0.098345
C82   C     C_R   0.131812 0.580366 0.855417 -0.041739
C83   C     C_R   0.110882 0.600621 0.894897 0.247254
C84   C     C_R   0.239107 0.570304 0.774378 0.223161
C85   C     C_R   0.255245 0.566954 0.734236 0.282885
C86   C     C_R   0.171581 0.625956 0.710313 0.070822
C87   C     C_R   0.087515 0.658694 0.233554 0.266695
C88   C     C_R   0.073258 0.687055 0.725683 -0.166525
C89   C     C_R   0.056651 0.694945 0.765315 -0.018006
C90   C     C_R   0.609332 0.590831 0.445973 0.533163
C91   C     C_R   0.141377 0.638590 0.789836 0.039725
C92   C     C_R   0.237059 0.689457 0.658493 0.282386
C93   C     C_R   0.264940 0.686806 0.620047 -0.135950
C94   C     C_R   0.189469 0.580916 0.603125 -0.012583
C95   C     C_R   0.163069 0.582737 0.641829 -0.179608
C96   C     C_R   0.189462 0.633825 0.669434 0.106030
C97   C     C_R   0.246206 0.629173 0.592463 0.007426
C98   C     C_R   0.172026 0.641602 0.210648 0.102752
C99   C     C_R   0.691254 0.717994 0.090747 0.018173
C100  C     C_R   0.627771 0.803898 0.114504 0.229396
C101  C     C_R   0.616564 0.789225 0.153412 -0.101858
C102  C     C_R   0.589878 0.299483 0.444250 0.557963
C103  C     C_R   0.669003 0.691362 0.168961 -0.039028
C104  C     C_R   0.720500 0.605777 0.144637 -0.092295
C105  C     C_R   0.729859 0.617695 0.105320 -0.033575
C106  C     C_R   0.646970 0.610909 0.226696 -0.158490
C107  C     C_R   0.645678 0.599507 0.266239 0.038025
C108  C     C_R   0.667160 0.662427 0.290810 -0.064692
C109  C     C_R   0.208418 0.565427 0.350936 -0.094787
C110  C     C_R   0.696485 0.730855 0.275377 0.026233
C111  C     C_R   0.703387 0.736292 0.235212 0.275063
C112  C     C_R   0.673639 0.679301 0.210945 -0.005695
C113  C     C_R   0.555828 0.715841 0.350098 0.271527
C114  C     C_R   0.632748 0.627734 0.591174 0.004741
C115  C     C_R   0.544877 0.697722 0.388351 -0.075873
C116  C     C_R   0.729312 0.582441 0.393270 0.237078
C117  C     C_R   0.739749 0.597144 0.354530 -0.060639
C118  C     C_R   0.653802 0.660448 0.332543 -0.016139
C119  C     C_R   0.629578 0.627540 0.409786 -0.035492
C120  C     C_R   0.236998 0.551604 0.389539 0.256534
C121  C     C_R   0.696630 0.107277 0.087743 0.051901
C122  C     C_R   0.770029 0.130161 0.103642 0.253764
C123  C     C_R   0.753887 0.174999 0.140743 0.241589
C124  C     C_R   0.666245 0.193171 0.162126 -0.037778
C125  C     C_R   0.588843 0.182305 0.144374 -0.143395
C126  C     C_R   0.733127 0.585063 0.605783 0.189676
C127  C     C_R   0.602042 0.141416 0.107138 0.196973
C128  C     C_R   0.571410 0.285043 0.222128 -0.149576
C129  C     C_R   0.563460 0.293546 0.262237 0.028859
C130  C     C_R   0.647134 0.221933 0.284531 0.048563
Cr1   Cr    Cr6+3 0.421670 0.426920 0.499620 1.127998
Cr2   Cr    Cr6+3 0.427030 0.651190 0.500980 1.038741
Cr3   Cr    Cr6+3 0.651280 0.421870 0.499380 1.111255
Cr4   Cr    Cr6+3 0.910810 0.908010 0.001130 1.070111
Cr5   Cr    Cr6+3 0.682800 0.909890 0.998370 1.095801
Cr6   Cr    Cr6+3 0.908370 0.682300 0.002180 1.101073
H1    H     H_    0.889897 0.017142 0.900309 0.118385
H2    H     H_    0.472214 0.734533 0.602024 0.162032
H3    H     H_    0.770150 0.246849 0.590049 0.145500
H4    H     H_    0.080682 0.841983 0.897255 0.130274
H5    H     H_    0.123098 0.543040 0.650705 0.116056
H6    H     H_    0.118878 0.803611 0.829262 0.146478
H7    H     H_    0.009979 0.731910 0.706588 0.132925
H8    H     H_    0.307127 0.724951 0.612193 0.127866
H9    H     H_    0.144723 0.508490 0.842926 0.114907
H10   H     H_    0.815271 0.557569 0.341265 0.149856
H11   H     H_    0.626081 0.566467 0.207797 0.110583
H12   H     H_    0.818257 0.176663 0.654100 0.124897
H13   H     H_    0.572314 0.854869 0.172216 0.146718
H14   H     H_    0.468168 0.734863 0.400599 0.173842
H15   H     H_    0.756325 0.529735 0.156648 0.174470
H16   H     H_    0.517257 0.193454 0.329680 0.159274
H17   H     H_    0.507906 0.338592 0.204729 0.137055
H18   H     H_    0.800694 0.090656 0.282821 0.136569
H19   H     H_    0.811991 0.077873 0.213134 0.165813
H20   H     H_    0.779718 0.234365 0.332771 0.126608
H21   H     H_    0.520368 0.199353 0.160522 0.134826
H22   H     H_    0.074562 0.569894 0.093038 0.131562
H23   H     H_    0.735752 0.258543 0.715883 0.121512
H24   H     H_    0.807681 0.535486 0.830580 0.131349
H25   H     H_    0.031248 0.671292 0.291287 0.126604
H26   H     H_    0.210268 0.502833 0.334476 0.134285
H27   H     H_    0.178169 0.783197 0.169279 0.166782
H28   H     H_    0.210988 0.787272 0.407688 0.192803
H29   H     H_    0.583837 0.856508 0.903355 0.168118
H30   H     H_    0.567902 0.111488 0.897285 0.149457
H31   H     H_    0.864614 0.461269 0.599417 0.312895
H32   H     H_    0.984554 0.016218 0.844142 0.096007
H33   H     H_    0.124469 0.466633 0.903082 0.326851
H34   H     H_    0.752509 0.230331 0.785032 0.124091
H35   H     H_    0.403849 0.504002 0.736453 0.343683
H36   H     H_    0.366383 0.446031 0.785741 0.330391
H37   H     H_    0.891575 0.814535 0.759574 0.134460
H38   H     H_    0.291696 0.777852 0.673661 0.356616
H39   H     H_    0.889751 0.469546 0.885857 0.322509
H40   H     H_    0.132420 0.475282 0.585328 0.104254
H41   H     H_    0.541748 0.952172 0.120401 0.336064
H42   H     H_    0.772753 0.532116 0.049112 0.134149
H43   H     H_    0.596458 0.482353 0.259516 0.096480
H44   H     H_    0.722148 0.786594 0.332299 0.093904
H45   H     H_    0.565992 0.139029 0.828474 0.132887
H46   H     H_    0.920699 0.537776 0.637258 0.114131
H47   H     H_    0.771554 0.769744 0.195056 0.337387
H48   H     H_    0.487378 0.797415 0.305235 0.356254
H49   H     H_    0.804591 0.543138 0.440801 0.349338
H50   H     H_    0.902461 0.124922 0.097101 0.399496
H51   H     H_    0.464478 0.158331 0.107407 0.329663
H52   H     H_    0.399679 0.417882 0.261245 0.118075
H53   H     H_    0.490037 0.805834 0.696356 0.349636
H54   H     H_    0.795243 0.246611 0.177321 0.337184
H55   H     H_    0.843896 0.267136 0.393678 0.138543
H56   H     H_    0.672016 0.009912 0.701545 0.128627
H57   H     H_    0.512838 0.172916 0.428654 0.340200
H58   H     H_    0.149133 0.848156 0.066686 0.139444
H59   H     H_    0.124365 0.850663 0.305200 0.127641
H60   H     H_    0.377778 0.614733 0.314575 0.188562
H61   H     H_    0.428984 0.584610 0.217157 0.146202
H62   H     H_    0.110946 0.451816 0.144850 0.114808
H63   H     H_    0.947482 0.683222 0.236330 0.350726
H64   H     H_    0.256804 0.413200 0.388905 0.344413
H65   H     H_    0.508702 0.840073 0.810266 0.343555
H66   H     H_    0.688237 0.982705 0.771017 0.151654
H67   H     H_    0.545926 0.149463 0.660706 0.121959
H68   H     H_    0.498020 0.218394 0.596478 0.141236
N1    N     N_R   0.694262 0.599251 0.767181 -0.222962
N2    N     N_R   0.691345 0.595955 0.729117 -0.189251
N3    N     N_R   0.657383 0.765407 0.726826 -0.228462
N4    N     N_R   0.660132 0.768708 0.764921 -0.206443
O1    O     O_R   0.502070 0.323090 0.541280 -0.520845
O2    O     O_R   0.831550 0.656950 0.958960 -0.424240
O3    O     O_R   0.998590 0.685540 0.963930 -0.429268
O4    O     O_R   0.338340 0.520690 0.539540 -0.458709
O5    O     O_R   0.008220 0.831200 0.045060 -0.511573
O6    O     O_R   0.813270 0.997930 0.038810 -0.448448
O7    O     O_R   0.657500 0.016560 0.039940 -0.420413
O8    O     O_R   0.685680 0.820940 0.038120 -0.426637
O9    O     O_R   0.822130 0.666070 0.043610 -0.539625
O10   O     O_R   0.989860 0.694000 0.042400 -0.495286
O11   O     O_3   0.833990 0.833400 0.000560 -0.280605
O12   O     O_R   0.520720 0.641670 0.461580 -0.508844
O13   O     O_R   0.324760 0.674070 0.543580 -0.523558
O14   O     O_R   0.522400 0.640310 0.540110 -0.525776
O15   O     O_R   0.675940 0.500630 0.542210 -0.446638
O16   O     O_R   0.641790 0.337020 0.538150 -0.499444
O17   O     O_R   0.500260 0.324550 0.456580 -0.476161
O18   O     O_R   0.336660 0.522040 0.461020 -0.408693
O19   O     O_R   0.322940 0.675540 0.458880 -0.531736
O20   O     O_3   0.814070 0.516358 0.582951 -0.670362
O21   O     O_2   0.934971 0.008780 0.792203 -0.496900
O22   O     O_3   0.108225 0.528944 0.918453 -0.657933
O23   O     O_R   0.674120 0.502090 0.457500 -0.477673
O24   O     O_3   0.351557 0.510973 0.717622 -0.687583
O25   O     O_3   0.317157 0.510437 0.799247 -0.708470
O26   O     O_2   0.924161 0.761698 0.812425 -0.502156
O27   O     O_3   0.258704 0.742643 0.686088 -0.659153
O28   O     O_3   0.855055 0.527786 0.904329 -0.648833
O29   O     O_2   0.145882 0.549895 0.541265 -0.465537
O30   O     O_3   0.582830 0.901690 0.099966 -0.633744
O31   O     O_2   0.827438 0.439202 0.093335 -0.474381
O32   O     O_2   0.627327 0.497356 0.313574 -0.481785
O33   O     O_2   0.737511 0.861529 0.289291 -0.438525
O34   O     O_R   0.640110 0.338380 0.459630 -0.456408
O35   O     O_2   0.873229 0.599722 0.688563 -0.497266
O36   O     O_3   0.739955 0.797015 0.220538 -0.641119
O37   O     O_3   0.468461 0.784228 0.330813 -0.633451
O38   O     O_3   0.817602 0.521716 0.413457 -0.664015
O39   O     O_3   0.857101 0.106953 0.082449 -0.648362
O40   O     O_3   0.525153 0.130086 0.090082 -0.641105
O41   O     O_2   0.462829 0.408823 0.311987 -0.505700
O42   O     O_3   0.473312 0.789038 0.670890 -0.699699
O43   O     O_3   0.826063 0.197226 0.155614 -0.679829
O44   O     O_2   0.827401 0.198640 0.439224 -0.471691
O45   O     O_3   0.499990 0.499990 0.499990 -0.280470
O46   O     O_3   0.488452 0.200344 0.402745 -0.656224
O47   O     O_2   0.135502 0.914299 0.117513 -0.474652
O48   O     O_2   0.149328 0.909327 0.352491 -0.466492
O49   O     O_2   0.387965 0.696148 0.272334 -0.504666
O50   O     O_2   0.366901 0.561517 0.171319 -0.511199
O51   O     O_2   0.191454 0.450773 0.190090 -0.488957
O52   O     O_3   0.998380 0.673630 0.216261 -0.688510
O53   O     O_3   0.264449 0.459937 0.407222 -0.625672
O54   O     O_3   0.529837 0.862707 0.833603 -0.680724
O55   O     O_R   0.017640 0.822070 0.960410 -0.540301
O56   O     O_R   0.822000 0.989470 0.960340 -0.504511
O57   O     O_R   0.666920 0.007430 0.955290 -0.516151
O58   O     O_R   0.694410 0.812480 0.959650 -0.533008

loop_
_geom_bond_atom_site_label_1
_geom_bond_atom_site_label_2
_ccdc_geom_bond_type
C78   O18   A    
C46   N1    A    
C79   C80   A    
C34   H61   S    
Cr4   O55   S    
C3    C130  A    
C73   C74   A    
C13   C32   S    
C104  C105  A    
C95   C96   A    
Cr1   O18   S    
C63   H23   S    
C42   O9    A    
C19   C31   S    
C128  C129  A    
C82   H9    S    
C81   C82   A    
H31   O20   S    
C39   O58   A    
C25   C105  S    
C123  C124  A    
Cr6   O11   S    
C106  C112  A    
N1    N2    A    
C56   C57   A    
C46   N4    A    
C48   H24   S    
C5    C124  S    
C111  O36   S    
C65   C76   A    
C58   H45   S    
Cr2   O14   S    
C104  H15   S    
C38   O57   A    
C36   H62   S    
C121  C127  A    
C49   O28   S    
C109  H26   S    
C32   H59   S    
C85   C86   A    
C23   O29   D    
C40   O55   A    
C86   C88   A    
C117  H10   S    
Cr6   O10   S    
C106  C107  A    
C25   O31   D    
C15   C16   A    
C46   C52   S    
C78   O19   A    
Cr3   O16   S    
H33   O22   S    
C34   O50   D    
C1    O13   A    
C18   C19   A    
H48   O37   S    
C36   O51   D    
C41   C121  S    
C2    C13   A    
C28   H46   S    
C110  C111  A    
C100  C101  A    
C10   H16   S    
H63   O52   S    
C22   O26   D    
C45   C114  A    
C72   H3    S    
Cr5   O7    S    
Cr5   O8    S    
C27   C110  S    
C30   O44   D    
C16   C17   A    
C39   C55   S    
C40   C77   S    
Cr1   O1    S    
Cr5   O58   S    
C107  C108  A    
C100  O30   S    
C70   C71   A    
C102  O34   A    
C84   C91   A    
C89   C91   A    
C35   C43   A    
C17   C98   S    
C88   H7    S    
C90   O12   A    
C47   N2    A    
C33   C54   S    
C87   C98   A    
C20   C34   S    
C79   H4    S    
C109  C120  A    
Cr5   O11   S    
C59   C60   A    
C101  C103  A    
C7    C30   S    
H38   O27   S    
C1    O4    A    
C64   C74   S    
H49   O38   S    
C76   H25   S    
C7    C12   A    
C85   O24   S    
C50   H29   S    
C72   C75   A    
C62   H34   S    
C27   O33   D    
H50   O39   S    
C17   C18   A    
C70   C74   A    
N3    N4    A    
C77   C79   A    
C92   C96   A    
C71   H68   S    
C99   C105  A    
C51   O54   S    
C29   C129  S    
C9    C43   A    
C73   H12   S    
C68   H66   S    
Cr2   O13   S    
C64   C67   A    
C108  C118  S    
C44   O10   A    
C84   C85   A    
C33   H60   S    
C21   C60   S    
C20   C54   A    
Cr2   O19   S    
C1    C97   S    
C6    C11   A    
C54   C65   A    
C41   O7    A    
C2    H28   S    
C25   H42   S    
C68   C69   A    
C57   H30   S    
C94   C97   A    
C53   O14   A    
H36   O25   S    
C82   C83   A    
C102  O17   A    
C106  H11   S    
C63   C64   A    
C62   C69   A    
C60   C61   A    
Cr2   O12   S    
C29   O41   D    
C26   C107  S    
C67   C68   A    
Cr3   O23   S    
C12   C102  S    
H51   O40   S    
C38   O56   A    
Cr3   O34   S    
Cr6   O3    S    
C18   H27   S    
Cr1   O17   S    
C99   C100  A    
C40   O3    A    
C8    C12   A    
C21   O21   D    
C32   O48   D    
C62   C63   A    
C50   C51   A    
C38   C56   S    
C56   C61   A    
C26   H43   S    
C30   H55   S    
C27   H44   S    
C66   O1    A    
C125  C127  A    
C4    C5    A    
Cr4   O5    S    
C76   C87   A    
C121  C122  A    
H65   O54   S    
C93   H8    S    
C86   C96   S    
C128  H17   S    
C15   H22   S    
Cr6   O2    S    
Cr2   O45   S    
C113  O37   S    
C66   O16   A    
C48   C49   A    
C28   O35   D    
C59   C69   S    
C120  O53   S    
C80   H6    S    
C5    C128  A    
C13   C24   A    
C90   O23   A    
H47   O36   S    
Cr3   O45   S    
C3    C4    A    
C35   C45   A    
C11   C130  S    
C93   C97   A    
Cr1   O4    S    
C22   H37   S    
C53   C114  S    
C14   C44   S    
C129  C130  A    
C70   H67   S    
H35   O24   S    
Cr4   O56   S    
C8    O46   S    
C111  C112  A    
C67   H56   S    
C21   H32   S    
C14   C19   A    
C126  O20   S    
C24   C109  A    
C9    C126  A    
C116  O38   S    
C80   C81   A    
C87   O52   S    
C31   H58   S    
Cr1   O45   S    
C95   H5    S    
C6    C7    A    
C23   H40   S    
C83   O22   S    
C31   O47   D    
C53   O15   A    
C37   C78   S    
C92   O27   S    
C115  C119  A    
C50   C55   A    
Cr4   O6    S    
C116  C119  A    
C47   N3    A    
H57   O46   S    
C84   O25   S    
C58   C59   A    
C51   C52   A    
C49   C55   A    
C42   C99   S    
C90   C119  S    
C71   C75   A    
C41   O6    A    
C2    C37   A    
C61   H1    S    
C57   C58   A    
C35   O42   S    
C37   C120  A    
C43   C47   S    
C72   C73   A    
C114  C126  A    
C66   C75   S    
C115  H14   S    
C101  H13   S    
C92   C93   A    
Cr3   O15   S    
C22   C89   S    
C108  C110  A    
C116  C117  A    
C125  H21   S    
C44   O5    A    
C3    H18   S    
C45   H2    S    
C94   C95   A    
C6    H20   S    
C24   C65   S    
C103  C112  S    
C42   O8    A    
C10   C11   A    
C113  C118  A    
C81   C91   S    
C23   C94   S    
C26   O32   D    
C48   C52   A    
C4    H19   S    
C20   C98   A    
C88   C89   A    
C39   O2    A    
C8    C10   A    
H39   O28   S    
C33   O49   D    
C103  C104  A    
Cr5   O57   S    
C29   H52   S    
C77   C83   A    
C14   C15   A    
H53   O42   S    
C123  O43   S    
H54   O43   S    
C127  O40   S    
C113  C115  A    
C122  C123  A    
C117  C118  A    
H64   O53   S    
Cr6   O9    S    
C124  C125  A    
C16   C36   S    
Cr4   O11   S    
C9    C28   S    
C122  O39   S    
H41   O30   S    
