data_mof_unit_23865.cif
_audit_creation_date              2012-12-11T14:19:31-0500
_audit_creation_method            fapswitch 2.2
_symmetry_space_group_name_H-M    P1
_symmetry_Int_Tables_number       1
_space_group_crystal_system       triclinic
_cell_length_a                    19.449922
_cell_length_b                    7.274845
_cell_length_c                    17.719068
_cell_angle_alpha                 89.999923
_cell_angle_beta                  107.401858
_cell_angle_gamma                 90.0
_cell_volume                      2392.41125365

loop_
_atom_site_label
_atom_site_type_symbol
_atom_type_description
_atom_site_fract_x
_atom_site_fract_y
_atom_site_fract_z
_atom_type_partial_charge
O1    O     O_R   0.414820 0.494320 0.416790 -0.550811
O2    O     O_R   0.585180 0.994320 0.583210 -0.550810
O3    O     O_R   0.560270 0.819500 0.430140 -0.549336
O4    O     O_R   0.439730 0.319500 0.569860 -0.549337
C1    C     C_R   0.581472 0.655469 0.415225 0.741829
C2    C     C_R   0.418527 0.155469 0.584775 0.741828
O5    O     O_R   0.413840 0.823740 0.407440 -0.513560
O6    O     O_R   0.586160 0.323740 0.592560 -0.513561
O7    O     O_R   0.437710 0.998590 0.560350 -0.530883
O8    O     O_R   0.562290 0.498590 0.439650 -0.530882
C3    C     C_R   0.384973 0.655690 0.388632 0.668748
C4    C     C_R   0.615027 0.155690 0.611368 0.668750
O9    O     O_3   0.508000 0.662290 0.550200 -0.381745
O10   O     O_3   0.492000 0.162290 0.449800 -0.381746
V1    V     V_3+5 0.498520 0.935380 0.490690 1.478409
V2    V     V_3+5 0.501480 0.435380 0.509310 1.478408
C5    C     C_2   0.800182 0.259727 0.773452 -0.114947
C6    C     C_2   0.199818 0.759728 0.226547 -0.114944
C7    C     C_2   0.818013 0.115971 0.823480 -0.210951
C8    C     C_2   0.181987 0.615971 0.176520 -0.210950
H1    H     H_    0.837876 0.373807 0.781792 0.149552
H2    H     H_    0.162124 0.873809 0.218207 0.149551
H3    H     H_    0.781255 0.001952 0.819540 0.114325
H4    H     H_    0.218745 0.501950 0.180461 0.114326
C9    C     C_2   0.730053 0.281494 0.709453 -0.007230
C10   C     C_2   0.269947 0.781495 0.290546 -0.007227
C11   C     C_2   0.689852 0.139008 0.668457 -0.217358
C12   C     C_2   0.310148 0.639009 0.331543 -0.217356
C13   C     C_R   0.319503 0.290933 0.630683 -0.170245
C14   C     C_R   0.680498 0.790932 0.369319 -0.170244
C15   C     C_R   0.368327 0.146948 0.633256 -0.076141
C16   C     C_R   0.631673 0.646948 0.366743 -0.076142
C17   C     C_R   0.367742 0.993165 0.680963 -0.202509
C18   C     C_R   0.632256 0.493167 0.319035 -0.202510
C19   C     C_R   0.320459 0.984929 0.727272 0.056419
C20   C     C_R   0.679539 0.484930 0.272727 0.056419
C21   C     C_R   0.271286 0.129026 0.724199 0.081009
C22   C     C_R   0.728713 0.629026 0.275800 0.081009
C23   C     C_R   0.270239 0.281176 0.674612 0.111465
C24   C     C_R   0.729762 0.781175 0.325388 0.111464
C25   C     C_R   0.320518 0.831945 0.774820 -0.155281
C26   C     C_R   0.679480 0.331947 0.225178 -0.155278
C27   C     C_R   0.274950 0.823089 0.823043 -0.047697
C28   C     C_R   0.725049 0.323091 0.176955 -0.047696
C29   C     C_R   0.230090 0.976466 0.826511 -0.066925
C30   C     C_R   0.769910 0.476467 0.173488 -0.066926
C31   C     C_R   0.223899 0.122069 0.771214 0.060273
C32   C     C_R   0.776101 0.622068 0.228785 0.060275
C33   C     C_R   0.171733 0.262904 0.764048 0.103644
C34   C     C_R   0.828268 0.762902 0.235953 0.103644
C35   C     C_R   0.168294 0.410200 0.709937 -0.021176
C36   C     C_R   0.831707 0.910196 0.290064 -0.021178
C37   C     C_R   0.219393 0.420404 0.668568 -0.230929
C38   C     C_R   0.780609 0.920400 0.331434 -0.230925
C39   C     C_R   0.192676 0.992549 0.884179 -0.049487
C40   C     C_R   0.807323 0.492550 0.115820 -0.049488
C41   C     C_R   0.134370 0.118281 0.870476 -0.091497
C42   C     C_R   0.865630 0.618281 0.129524 -0.091497
C43   C     C_R   0.125703 0.253401 0.812010 -0.218524
C44   C     C_R   0.874298 0.753399 0.187990 -0.218523
H5    H     H_    0.318640 0.408716 0.592891 0.132762
H6    H     H_    0.681362 0.908712 0.407112 0.132762
H7    H     H_    0.404994 0.881004 0.683059 0.124343
H8    H     H_    0.595003 0.381008 0.316938 0.124343
H9    H     H_    0.355237 0.716564 0.772773 0.166344
H10   H     H_    0.644760 0.216567 0.227224 0.166344
H11   H     H_    0.084020 0.354485 0.806990 0.179976
H12   H     H_    0.915981 0.854483 0.193011 0.179973
H13   H     H_    0.218162 0.535896 0.629414 0.131498
H14   H     H_    0.781841 0.035891 0.370589 0.131498
O11   O     O_R   0.937810 0.773680 0.060480 -0.552100
O12   O     O_R   0.062190 0.273680 0.939520 -0.552100
O13   O     O_R   0.086190 0.439740 0.092580 -0.541550
O14   O     O_R   0.913810 0.939740 0.907420 -0.541550
C45   C     C_R   0.112632 0.608284 0.113423 0.746613
C46   C     C_R   0.887368 0.108284 0.886577 0.746614
O15   O     O_R   0.939760 0.444210 0.069890 -0.521027
O16   O     O_R   0.060240 0.944210 0.930110 -0.521026
O17   O     O_R   0.914790 0.269640 0.916760 -0.522220
O18   O     O_R   0.085210 0.769640 0.083240 -0.522220
C47   C     C_R   0.917812 0.612156 0.083100 0.769702
C48   C     C_R   0.082188 0.112156 0.916900 0.769703
O19   O     O_3   0.992050 0.601530 0.949880 -0.382550
O20   O     O_3   0.007950 0.101530 0.050120 -0.382551
V3    V     V_3+5 0.001480 0.328340 0.009300 1.524625
V4    V     V_3+5 0.998520 0.828340 0.990700 1.524626
C49   C     C_2   0.114274 0.560490 0.695130 0.379748
H15   H     H_    0.129698 0.698192 0.682893 0.061284
O21   O     O_2   0.051494 0.531138 0.691042 -0.510160
C50   C     C_2   0.885730 0.060481 0.304874 0.379750
H16   H     H_    0.870307 0.198185 0.317109 0.061283
O22   O     O_2   0.948510 0.031123 0.308965 -0.510157
C51   C     C_2   0.710190 0.473950 0.689804 0.437906
H17   H     H_    0.709422 0.567871 0.737028 0.001214
O23   O     O_2   0.700467 0.530563 0.622512 -0.511096
C52   C     C_2   0.289810 0.973950 0.310196 0.437901
H18   H     H_    0.290578 0.067873 0.262973 0.001214
O24   O     O_2   0.299533 0.030562 0.377488 -0.511097
C53   C     C_2   0.721666 0.953221 0.673172 0.423489
H19   H     H_    0.688398 0.837160 0.676165 0.070201
O25   O     O_2   0.782937 0.929500 0.670048 -0.492364
C54   C     C_2   0.278333 0.453223 0.326830 0.423479
H20   H     H_    0.311601 0.337160 0.323840 0.070210
O26   O     O_2   0.217061 0.429506 0.329952 -0.492364
C55   C     C_2   0.268970 0.644018 0.861109 0.342840
H21   H     H_    0.221802 0.613173 0.879488 0.043714
O27   O     O_2   0.316006 0.527313 0.871120 -0.519359
C56   C     C_2   0.731030 0.144020 0.138890 0.342841
H22   H     H_    0.778197 0.113176 0.120511 0.043714
O28   O     O_2   0.683995 0.027313 0.128882 -0.519360
C57   C     C_2   0.225738 0.913164 0.965083 0.320380
H23   H     H_    0.278229 0.848356 0.979997 0.073620
O29   O     O_2   0.198101 0.929497 0.018106 -0.536281
C58   C     C_2   0.774261 0.413167 0.034917 0.320377
H24   H     H_    0.721769 0.348365 0.020002 0.073620
O30   O     O_2   0.801899 0.429496 0.981893 -0.536281

loop_
_geom_bond_atom_site_label_1
_geom_bond_atom_site_label_2
_ccdc_geom_bond_type
C22   C24   A    
C49   H15   S    
C9    C51   S    
C51   H17   S    
C29   C39   A    
O13   C45   A    
C20   C26   A    
C57   H23   S    
O1    C3    A    
C46   O17   A    
C37   H13   S    
C2    O7    A    
O12   V3    S    
C31   C33   A    
O5    C3    A    
C55   O27   D    
C11   C53   S    
O14   C46   A    
C7    C46   S    
C19   C21   A    
O10   V1    S    
C17   C19   A    
C41   C43   A    
C42   C44   A    
C56   H22   S    
C27   C55   S    
C51   O23   D    
O18   V4    S    
C43   H11   S    
C6    C10   S    
C36   C50   S    
C8    H4    S    
C28   C30   A    
C33   C35   A    
C52   O24   D    
C34   C36   A    
C15   C17   A    
C40   C42   A    
C21   C31   A    
C45   O18   A    
C22   C32   A    
C17   H7    S    
C1    C16   S    
O16   V4    S    
C29   C31   A    
C2    C15   S    
O2    C4    A    
O6    V2    S    
C25   C27   A    
C26   C28   A    
C36   C38   A    
C58   H24   S    
C30   C32   A    
C28   C56   S    
C10   C52   S    
C13   H5    S    
C4    C11   S    
O20   V3    S    
O4    C2    A    
C42   C47   S    
C35   C49   S    
C25   H9    S    
O5    V1    S    
C5    H1    S    
C8    C45   S    
C35   C37   A    
C16   C18   A    
O4    V2    S    
C7    H3    S    
O11   V4    S    
O16   C48   A    
C50   O22   D    
C53   H19   S    
C38   H14   S    
O15   C47   A    
O6    C4    A    
C52   H18   S    
C13   C23   A    
C18   H8    S    
C14   C24   A    
C57   O29   D    
O1    V2    S    
O14   V4    S    
C54   O26   D    
O2    V1    S    
C27   C29   A    
O13   V3    S    
C53   O25   D    
C24   C38   A    
C14   H6    S    
C20   C22   A    
O17   V3    S    
O3    V1    S    
C39   C57   S    
C6    H2    S    
O3    C1    A    
C58   O30   D    
C9    C11   D    
C55   H21   S    
C10   C12   D    
C33   C43   A    
C5    C9    S    
C39   C41   A    
O7    V1    S    
C34   C44   A    
C1    O8    A    
C13   C15   A    
O8    V2    S    
C14   C16   A    
C50   H16   S    
C23   C37   A    
C3    C12   S    
C32   C34   A    
C5    C7    D    
C18   C20   A    
C56   O28   D    
C6    C8    D    
C54   H20   S    
C19   C25   A    
O15   V3    S    
C12   C54   S    
O19   V4    S    
C44   H12   S    
C21   C23   A    
O9    V2    S    
C30   C40   A    
C26   H10   S    
C49   O21   D    
C40   C58   S    
C41   C48   S    
O12   C48   A    
O11   C47   A    
