data_mof_unit_47385.cif
_audit_creation_date              2012-12-11T15:37:39-0500
_audit_creation_method            fapswitch 2.2
_symmetry_space_group_name_H-M    P1
_symmetry_Int_Tables_number       1
_space_group_crystal_system       triclinic
_cell_length_a                    17.536311
_cell_length_b                    24.521386
_cell_length_c                    14.895776
_cell_angle_alpha                 89.421712
_cell_angle_beta                  126.430068
_cell_angle_gamma                 90.010009
_cell_volume                      5153.27552279

loop_
_atom_site_label
_atom_site_type_symbol
_atom_type_description
_atom_site_fract_x
_atom_site_fract_y
_atom_site_fract_z
_atom_type_partial_charge
C1    C     C_R   0.848855 0.651876 0.907752 -0.112215
C2    C     C_R   0.189077 0.373133 0.094816 -0.143430
C3    C     C_R   0.188562 0.626407 0.092398 -0.057357
C4    C     C_R   0.848440 0.348697 0.909637 -0.108380
C5    C     C_R   0.353313 0.153032 0.907163 -0.128465
C6    C     C_R   0.686876 0.870692 0.093735 -0.049466
C7    C     C_R   0.686761 0.128581 0.092483 -0.070257
C8    C     C_R   0.346551 0.849341 0.909288 -0.097113
C9    C     C_3   0.408455 0.499395 0.456218 -0.312991
C10   C     C_3   0.579726 0.501326 0.639833 -0.272969
C11   C     C_3   0.911438 0.000086 0.447629 -0.322770
C12   C     C_3   0.080228 0.000391 0.636267 -0.271174
C13   C     C_R   0.824883 0.226810 0.947394 0.576053
C14   C     C_R   0.235924 0.734849 0.055300 0.574404
C15   C     C_R   0.330865 0.297293 0.106883 0.540079
C16   C     C_R   0.814538 0.772832 0.933757 0.581389
C17   C     C_R   0.322581 0.727860 0.945649 0.553243
C18   C     C_R   0.738562 0.236255 0.057257 0.576139
C19   C     C_R   0.751484 0.765048 0.068805 0.546984
C20   C     C_R   0.296284 0.271535 0.902086 0.577220
C21   C     C_R   0.273096 0.683480 0.945197 -0.428714
C22   C     C_R   0.793564 0.277875 0.062843 -0.431001
C23   C     C_R   0.808016 0.725036 0.074090 -0.401641
C24   C     C_R   0.246280 0.314378 0.908171 -0.416036
C25   C     C_R   0.772318 0.183704 0.945101 -0.437909
C26   C     C_R   0.289645 0.777411 0.061210 -0.417496
C27   C     C_R   0.388755 0.260986 0.103083 -0.397579
C28   C     C_R   0.763018 0.815604 0.934703 -0.411584
C29   C     C_R   0.230079 0.687759 0.998799 -0.056985
C30   C     C_R   0.836542 0.272668 0.009414 -0.063011
C31   C     C_R   0.837851 0.728509 0.006042 -0.080059
C32   C     C_R   0.256124 0.323629 0.007308 -0.058232
C33   C     C_R   0.729389 0.189255 0.998727 -0.065186
C34   C     C_R   0.332911 0.773408 0.007926 -0.061999
C35   C     C_R   0.362742 0.241732 0.000875 -0.030915
C36   C     C_R   0.731944 0.811162 0.001563 -0.077445
C37   C     C_R   0.861874 0.458785 0.448915 0.335416
C38   C     C_R   0.941777 0.551284 0.419272 0.362975
C39   C     C_R   0.901198 0.453669 0.389606 0.327702
C40   C     C_R   0.892933 0.555334 0.466318 0.295015
C41   C     C_R   0.370881 0.957458 0.454368 0.334811
C42   C     C_R   0.454243 0.050177 0.430691 0.361257
C43   C     C_R   0.416280 0.952192 0.402154 0.316062
C44   C     C_R   0.398815 0.054549 0.469711 0.258373
C45   C     C_R   0.941150 0.500458 0.373897 -0.274085
C46   C     C_R   0.876712 0.507304 0.504363 -0.168272
C47   C     C_R   0.455668 0.999381 0.387313 -0.260066
C48   C     C_R   0.380863 0.006529 0.506112 -0.144474
C49   C     C_R   0.943550 0.350740 0.096040 -0.160693
C50   C     C_R   0.090820 0.627866 0.904398 -0.108931
C51   C     C_R   0.093700 0.371911 0.907688 -0.117250
C52   C     C_R   0.945024 0.649804 0.093854 -0.184820
C53   C     C_R   0.440448 0.851650 0.095981 -0.163095
C54   C     C_R   0.589780 0.129117 0.904364 -0.114867
C55   C     C_R   0.589757 0.870587 0.905342 -0.168438
C56   C     C_R   0.448104 0.151542 0.092161 -0.156580
C57   C     C_R   0.992935 0.545154 0.262212 -0.082283
C58   C     C_R   0.940018 0.456695 0.689103 -0.144423
C59   C     C_R   0.941902 0.547497 0.692935 -0.104359
C60   C     C_R   0.995663 0.453443 0.264880 -0.132751
C61   C     C_R   0.500884 0.045289 0.270265 -0.080823
C62   C     C_R   0.440841 0.956498 0.689679 -0.149667
C63   C     C_R   0.442836 0.047366 0.693222 -0.106870
C64   C     C_R   0.504572 0.953204 0.273324 -0.121758
C65   C     C_R   0.732749 0.455058 0.756044 -0.060662
C66   C     C_R   0.263092 0.545049 0.296888 -0.085924
C67   C     C_R   0.263047 0.454453 0.297979 -0.123619
C68   C     C_R   0.733000 0.545794 0.755499 -0.089373
C69   C     C_R   0.232899 0.954841 0.755443 -0.067945
C70   C     C_R   0.765181 0.045251 0.291966 -0.123357
C71   C     C_R   0.766111 0.954424 0.292522 -0.083819
C72   C     C_R   0.232751 0.045557 0.755774 -0.077656
C73   C     C_R   0.880899 0.680849 0.001983 0.202567
C74   C     C_R   0.183652 0.356279 0.002972 0.113430
C75   C     C_R   0.178565 0.643113 0.997558 0.123092
C76   C     C_R   0.879430 0.320215 0.005118 0.178139
C77   C     C_R   0.387662 0.184769 0.999395 0.145404
C78   C     C_R   0.676571 0.853653 0.999527 0.116961
C79   C     C_R   0.676531 0.145495 0.997660 0.127010
C80   C     C_R   0.375189 0.821538 0.004581 0.170167
C81   C     C_R   0.976312 0.499013 0.304405 0.223840
C82   C     C_R   0.916971 0.503701 0.623664 0.193279
C83   C     C_R   0.488463 0.998729 0.315898 0.225130
C84   C     C_R   0.418413 0.003411 0.624368 0.203592
C85   C     C_R   0.677942 0.500760 0.732321 0.247355
C86   C     C_R   0.316154 0.499534 0.351716 0.273808
C87   C     C_R   0.177575 0.000248 0.731330 0.237686
C88   C     C_R   0.820136 0.999839 0.342680 0.266864
C89   C     C_3   0.505197 0.458309 0.612244 0.379679
C90   C     C_3   0.483595 0.542457 0.483481 0.323064
C91   C     C_3   0.481829 0.453118 0.495439 0.317637
C92   C     C_3   0.506608 0.547544 0.599839 0.324157
C93   C     C_3   0.008354 0.953853 0.597501 0.330563
C94   C     C_3   0.983116 0.046580 0.485269 0.315153
C95   C     C_3   0.989239 0.957345 0.482722 0.339324
C96   C     C_3   0.002723 0.043089 0.600356 0.414811
C97   C     C_3   0.431968 0.504610 0.573429 0.246882
C98   C     C_3   0.556239 0.496410 0.521721 0.180470
C99   C     C_3   0.930847 0.996599 0.563100 0.208827
C100  C     C_3   0.060605 0.003741 0.519776 0.153701
H1    H     H_    0.802990 0.665922 0.822048 0.102946
H2    H     H_    0.247251 0.370836 0.181114 0.178227
H3    H     H_    0.246279 0.635172 0.177746 0.109846
H4    H     H_    0.803088 0.334517 0.824661 0.099377
H5    H     H_    0.315205 0.166087 0.822069 0.158389
H6    H     H_    0.743873 0.861159 0.179558 0.141950
H7    H     H_    0.742867 0.138352 0.177654 0.104803
H8    H     H_    0.301876 0.834949 0.824431 0.102303
H9    H     H_    0.987856 0.337101 0.182080 0.102964
H10   H     H_    0.059001 0.638237 0.818144 0.112271
H11   H     H_    0.064367 0.364927 0.821311 0.088283
H12   H     H_    0.989381 0.663028 0.179373 0.116700
H13   H     H_    0.483029 0.838130 0.182142 0.100627
H14   H     H_    0.557942 0.139347 0.818057 0.106816
H15   H     H_    0.557999 0.860947 0.819192 0.105243
H16   H     H_    0.497568 0.164224 0.177344 0.091653
H17   H     H_    0.976513 0.586689 0.265035 0.128180
H18   H     H_    0.920326 0.415650 0.659714 0.111819
H19   H     H_    0.922281 0.589610 0.669932 0.163855
H20   H     H_    0.986864 0.411130 0.273615 0.159801
H21   H     H_    0.488828 0.087326 0.278267 0.134087
H22   H     H_    0.421612 0.915358 0.660570 0.118716
H23   H     H_    0.424696 0.089583 0.670321 0.171369
H24   H     H_    0.501540 0.910704 0.287627 0.157614
H25   H     H_    0.709161 0.413286 0.737245 0.115380
H26   H     H_    0.278044 0.586413 0.327072 0.116715
H27   H     H_    0.277230 0.413168 0.330273 0.137963
H28   H     H_    0.710318 0.587906 0.737070 0.128815
H29   H     H_    0.210054 0.913019 0.736635 0.122979
H30   H     H_    0.780360 0.086391 0.323093 0.141286
H31   H     H_    0.783240 0.913026 0.324440 0.118093
H32   H     H_    0.209702 0.087681 0.737659 0.124882
H33   H     H_    0.267702 0.646110 0.903667 0.168180
H34   H     H_    0.797986 0.315745 0.102623 0.179425
H35   H     H_    0.823515 0.689521 0.126563 0.165304
H36   H     H_    0.196059 0.338356 0.834407 0.144888
H37   H     H_    0.764983 0.146272 0.902663 0.166522
H38   H     H_    0.292538 0.815043 0.100730 0.178592
H39   H     H_    0.445067 0.242214 0.181176 0.164454
H40   H     H_    0.747668 0.852092 0.884869 0.164113
N1    N     N_R   0.892620 0.603790 0.941800 -0.053795
N2    N     N_R   0.107380 0.396210 0.058200 -0.050402
N3    N     N_R   0.107380 0.603790 0.058200 -0.047259
N4    N     N_R   0.892620 0.396210 0.941800 -0.053676
N5    N     N_R   0.392620 0.103790 0.941800 -0.056768
N6    N     N_R   0.607380 0.896210 0.058200 -0.057395
N7    N     N_R   0.607380 0.103790 0.058200 -0.046083
N8    N     N_R   0.392620 0.896210 0.941800 -0.055473
N9    N     N_R   0.952210 0.397600 0.057910 -0.043819
N10   N     N_R   0.047790 0.602400 0.942090 -0.046444
N11   N     N_R   0.047790 0.397600 0.942090 -0.040749
N12   N     N_R   0.952210 0.602400 0.057910 -0.046814
N13   N     N_R   0.452210 0.897600 0.057910 -0.043830
N14   N     N_R   0.547790 0.102400 0.942090 -0.046191
N15   N     N_R   0.547790 0.897600 0.942090 -0.042251
N16   N     N_R   0.452210 0.102400 0.057910 -0.045017
N17   N     N_R   0.026300 0.529110 0.206760 -0.055605
N18   N     N_R   0.973700 0.470890 0.793240 -0.047668
N19   N     N_R   0.973700 0.529110 0.793240 -0.060769
N20   N     N_R   0.026300 0.470890 0.206760 -0.055567
N21   N     N_R   0.526300 0.029110 0.206760 -0.057348
N22   N     N_R   0.473700 0.970890 0.793240 -0.046243
N23   N     N_R   0.473700 0.029110 0.793240 -0.060752
N24   N     N_R   0.526300 0.970890 0.206760 -0.056818
N25   N     N_R   0.818530 0.472270 0.792960 -0.046220
N26   N     N_R   0.181470 0.527730 0.207040 -0.062682
N27   N     N_R   0.181470 0.472270 0.207040 -0.061822
N28   N     N_R   0.818530 0.527730 0.792960 -0.051476
N29   N     N_R   0.318530 0.972270 0.792960 -0.046740
N30   N     N_R   0.681470 0.027730 0.207040 -0.059946
N31   N     N_R   0.681470 0.972270 0.207040 -0.062458
N32   N     N_R   0.318530 0.027730 0.792960 -0.048522
Ni1   Ni    Ni4+2 0.934150 0.565840 0.869060 0.223575
Ni2   Ni    Ni4+2 0.065850 0.434160 0.130940 0.212384
Ni3   Ni    Ni4+2 0.065850 0.565840 0.130940 0.218637
Ni4   Ni    Ni4+2 0.934150 0.434160 0.869060 0.225406
Ni5   Ni    Ni4+2 0.434150 0.065840 0.869060 0.225611
Ni6   Ni    Ni4+2 0.565850 0.934160 0.130940 0.218447
Ni7   Ni    Ni4+2 0.565850 0.065840 0.130940 0.219466
Ni8   Ni    Ni4+2 0.434150 0.934160 0.869060 0.221501
Cl1   Cl    Cl    0.345565 0.509359 0.599914 -0.649567
Cl2   Cl    Cl    0.645761 0.497037 0.498487 -0.717565
Cl3   Cl    Cl    0.841106 0.992258 0.584402 -0.676276
Cl4   Cl    Cl    0.151613 0.004597 0.499227 -0.726973
O1    O     O_3   0.526051 0.416856 0.690446 -0.604347
C101  C     C_3   0.455976 0.376142 0.638993 0.304194
H41   H     H_    0.469769 0.348405 0.591500 0.119950
H42   H     H_    0.382991 0.393522 0.581962 0.131862
C102  C     C_3   0.460826 0.342404 0.728554 -0.814299
H43   H     H_    0.446763 0.368793 0.777474 0.280652
H44   H     H_    0.406797 0.309701 0.689077 0.210424
H45   H     H_    0.532163 0.323375 0.785661 0.250884
O2    O     O_3   0.460766 0.584855 0.406109 -0.627328
C103  C     C_3   0.539327 0.619037 0.446191 0.369148
H46   H     H_    0.584623 0.623887 0.538388 0.106036
H47   H     H_    0.583334 0.602521 0.421681 0.153171
C104  C     C_3   0.503482 0.675206 0.392483 -1.030142
H48   H     H_    0.455569 0.691896 0.411158 0.264838
H49   H     H_    0.564089 0.703319 0.426012 0.234715
H50   H     H_    0.464053 0.672563 0.300564 0.271370
O3    O     O_3   0.454050 0.403105 0.437480 -0.666944
C105  C     C_3   0.512014 0.388152 0.405328 0.300255
H51   H     H_    0.505714 0.343430 0.392342 0.143210
H52   H     H_    0.588302 0.394975 0.472057 0.136834
C106  C     C_3   0.478185 0.415687 0.294714 -0.738824
H53   H     H_    0.480968 0.460698 0.301595 0.271298
H54   H     H_    0.523473 0.402438 0.269583 0.219745
H55   H     H_    0.403774 0.404446 0.228578 0.247978
O4    O     O_3   0.531010 0.595060 0.664046 -0.619321
C107  C     C_3   0.454893 0.632711 0.610918 0.371786
H56   H     H_    0.410169 0.625351 0.639877 0.155798
H57   H     H_    0.409000 0.630530 0.518194 0.102562
C108  C     C_3   0.494830 0.690171 0.643183 -1.035429
H58   H     H_    0.541695 0.698100 0.617494 0.265396
H59   H     H_    0.436114 0.720562 0.601165 0.228648
H60   H     H_    0.536943 0.695011 0.734996 0.268635
O5    O     O_3   0.031915 0.907025 0.665384 -0.614551
C109  C     C_3   0.956743 0.869380 0.612472 0.351519
H61   H     H_    0.915292 0.869777 0.519922 0.106832
H62   H     H_    0.907693 0.878434 0.634479 0.154950
C110  C     C_3   0.997379 0.812153 0.654031 -0.977244
H63   H     H_    0.032988 0.808693 0.745271 0.282917
H64   H     H_    0.939693 0.781674 0.610321 0.229501
H65   H     H_    0.049907 0.803117 0.637321 0.256939
O6    O     O_3   0.957775 0.096614 0.425309 -0.644743
C111  C     C_3   0.008890 0.104516 0.381046 0.345173
H66   H     H_    0.085062 0.110699 0.449908 0.150672
H67   H     H_    0.999438 0.069485 0.328368 0.152947
C112  C     C_3   0.972401 0.155567 0.307618 -0.999972
H68   H     H_    0.977281 0.191332 0.355820 0.263083
H69   H     H_    0.015121 0.163442 0.276204 0.232129
H70   H     H_    0.897680 0.149982 0.234894 0.257274
O7    O     O_3   0.970886 0.913796 0.411251 -0.621799
C113  C     C_3   0.052371 0.880799 0.458491 0.353900
H71   H     H_    0.094179 0.876377 0.550728 0.099377
H72   H     H_    0.098345 0.898129 0.437319 0.188822
C114  C     C_3   0.022396 0.824185 0.409066 -0.994790
H73   H     H_    0.986800 0.826216 0.317695 0.279077
H74   H     H_    0.085910 0.797415 0.448821 0.230825
H75   H     H_    0.972802 0.806465 0.424497 0.272215
O8    O     O_3   0.016573 0.087617 0.667748 -0.619366
C115  C     C_3   0.933119 0.119910 0.614633 0.441358
H76   H     H_    0.908622 0.120012 0.668350 0.127698
H77   H     H_    0.872573 0.105376 0.530978 0.104302
C116  C     C_3   0.955012 0.178179 0.601321 -1.008388
H78   H     H_    0.984888 0.178900 0.553407 0.295320
H79   H     H_    0.889170 0.203227 0.555671 0.219716
H80   H     H_    0.006777 0.196029 0.684652 0.251780
O9    O     O_3   0.870277 0.224156 0.896672 -0.630503
C117  C     C_3   0.804684 0.212576 0.781972 0.269134
H81   H     H_    0.735186 0.233769 0.743180 0.075598
H82   H     H_    0.793172 0.167847 0.770279 0.122296
C118  C     C_3   0.845311 0.231907 0.721230 -0.932096
H83   H     H_    0.915674 0.212610 0.759500 0.273120
H84   H     H_    0.796996 0.220565 0.632022 0.213380
H85   H     H_    0.853637 0.276908 0.726956 0.251767
O10   O     O_3   0.178802 0.740741 0.090702 -0.609462
C119  C     C_3   0.234053 0.752244 0.205841 0.263430
H86   H     H_    0.248298 0.796652 0.218673 0.122655
H87   H     H_    0.302646 0.729381 0.254332 0.074797
C120  C     C_3   0.178970 0.735606 0.250988 -0.896010
H88   H     H_    0.114019 0.761132 0.212044 0.272861
H89   H     H_    0.158341 0.692093 0.232829 0.247891
H90   H     H_    0.223798 0.740769 0.342639 0.209237
O11   O     O_3   0.347313 0.304543 0.208783 -0.658174
C121  C     C_3   0.307158 0.260653 0.229387 0.237310
H91   H     H_    0.340487 0.221127 0.233912 0.094196
H92   H     H_    0.229324 0.258421 0.162966 0.106441
C122  C     C_3   0.323396 0.269244 0.340472 -0.916923
H93   H     H_    0.289600 0.235762 0.355335 0.219578
H94   H     H_    0.400497 0.269407 0.409314 0.251990
H95   H     H_    0.291563 0.308576 0.339457 0.255460
O12   O     O_3   0.850102 0.775506 0.871976 -0.608293
C123  C     C_3   0.775294 0.781776 0.757247 0.254054
H96   H     H_    0.747503 0.824318 0.737827 0.108921
H97   H     H_    0.716255 0.752913 0.730167 0.070171
C124  C     C_3   0.813365 0.770019 0.690646 -0.895478
H98   H     H_    0.844656 0.728367 0.710889 0.252127
H99   H     H_    0.755570 0.773112 0.599854 0.211206
H100  H     H_    0.868974 0.800062 0.712356 0.274039
O13   O     O_3   0.366541 0.726658 0.893119 -0.648618
C125  C     C_3   0.300082 0.714704 0.778746 0.277577
H101  H     H_    0.231797 0.737238 0.740265 0.081149
H102  H     H_    0.286407 0.670134 0.767588 0.131297
C126  C     C_3   0.341116 0.731551 0.717205 -0.947307
H103  H     H_    0.410256 0.710690 0.755654 0.271855
H104  H     H_    0.291998 0.719905 0.628172 0.222673
H105  H     H_    0.351986 0.776356 0.722376 0.252058
O14   O     O_3   0.684012 0.242994 0.095959 -0.616838
C127  C     C_3   0.742211 0.254192 0.211354 0.250906
H106  H     H_    0.759688 0.298235 0.224529 0.131225
H107  H     H_    0.809211 0.229786 0.257839 0.090337
C128  C     C_3   0.688646 0.239883 0.259523 -0.903114
H108  H     H_    0.664844 0.196857 0.241198 0.251167
H109  H     H_    0.735881 0.244749 0.351301 0.210060
H110  H     H_    0.625812 0.267022 0.222959 0.267803
O15   O     O_3   0.717789 0.759456 0.132067 -0.651246
C129  C     C_3   0.631685 0.730525 0.069722 0.262972
H111  H     H_    0.641775 0.689490 0.046558 0.099714
H112  H     H_    0.576745 0.753668 0.992619 0.129982
C130  C     C_3   0.596187 0.722598 0.140468 -0.844667
H113  H     H_    0.529657 0.698764 0.093897 0.240497
H114  H     H_    0.650084 0.700013 0.218281 0.245155
H115  H     H_    0.582566 0.762795 0.162241 0.246514
O16   O     O_3   0.285634 0.260096 0.803833 -0.637005
C131  C     C_3   0.188894 0.258125 0.711104 0.247885
H116  H     H_    0.162054 0.299949 0.677281 0.113166
H117  H     H_    0.144514 0.238979 0.733340 0.095151
C132  C     C_3   0.178338 0.224535 0.618871 -0.924511
H118  H     H_    0.199816 0.181580 0.645717 0.245436
H119  H     H_    0.103118 0.224044 0.545322 0.225094
H120  H     H_    0.221800 0.242339 0.594321 0.268010
O17   O     O_3   0.789861 0.425746 0.432316 -0.571558
C133  C     C_3   0.812662 0.369685 0.451297 0.409672
H121  H     H_    0.886898 0.361718 0.523459 0.035065
H122  H     H_    0.797924 0.350845 0.375283 0.141569
C134  C     C_3   0.750267 0.342157 0.477761 -0.987331
H123  H     H_    0.675035 0.343701 0.403428 0.260621
H124  H     H_    0.772230 0.298925 0.502064 0.214324
H125  H     H_    0.757381 0.362971 0.548272 0.270950
O18   O     O_3   0.011677 0.589295 0.446368 -0.600397
C135  C     C_3   0.975697 0.643055 0.410083 0.372259
H126  H     H_    0.967808 0.663702 0.469969 0.170669
H127  H     H_    0.906605 0.643568 0.325448 0.056701
C136  C     C_3   0.047395 0.676913 0.407457 -1.008139
H128  H     H_    0.081044 0.652875 0.376819 0.271545
H129  H     H_    0.011287 0.712866 0.351607 0.240914
H130  H     H_    0.104497 0.691005 0.492785 0.255848
O19   O     O_3   0.906289 0.402776 0.355073 -0.639858
C137  C     C_3   0.994062 0.378143 0.441298 0.258311
H131  H     H_    0.006878 0.378076 0.523798 0.059830
H132  H     H_    0.054976 0.400331 0.453891 0.120077
C138  C     C_3   0.995943 0.319633 0.409724 -1.020636
H133  H     H_    0.961228 0.316632 0.318899 0.270033
H134  H     H_    0.070481 0.305922 0.454763 0.242550
H135  H     H_    0.958183 0.292639 0.431572 0.241503
O20   O     O_3   0.879093 0.605684 0.494929 -0.655442
C139  C     C_3   0.780829 0.616148 0.431834 0.248329
H136  H     H_    0.745301 0.585801 0.451524 0.166185
H137  H     H_    0.747705 0.615523 0.340751 0.097230
C140  C     C_3   0.765373 0.672383 0.460564 -0.975217
H138  H     H_    0.802044 0.703679 0.444746 0.270830
H139  H     H_    0.688532 0.682101 0.408405 0.226755
H140  H     H_    0.793604 0.673163 0.549771 0.258120
O21   O     O_3   0.302268 0.922017 0.440212 -0.579580
C141  C     C_3   0.328434 0.866442 0.457378 0.399038
H141  H     H_    0.402960 0.859683 0.530219 0.055728
H142  H     H_    0.315216 0.849111 0.380935 0.143148
C142  C     C_3   0.267185 0.835625 0.481550 -1.023283
H143  H     H_    0.192563 0.835704 0.405831 0.277049
H144  H     H_    0.292667 0.792872 0.505754 0.218890
H145  H     H_    0.270972 0.854946 0.551235 0.267675
O22   O     O_3   0.525119 0.087770 0.458082 -0.612694
C143  C     C_3   0.498091 0.143082 0.447896 0.369778
H146  H     H_    0.505497 0.155928 0.523985 0.159088
H147  H     H_    0.424774 0.150486 0.371570 0.080898
C144  C     C_3   0.565941 0.178771 0.441606 -1.023313
H148  H     H_    0.564359 0.168181 0.368464 0.255216
H149  H     H_    0.545504 0.222352 0.434210 0.227368
H150  H     H_    0.639328 0.173019 0.518380 0.270223
O23   O     O_3   0.429337 0.900953 0.375785 -0.644717
C145  C     C_3   0.518599 0.880240 0.467602 0.239923
H151  H     H_    0.530673 0.885858 0.549235 0.066377
H152  H     H_    0.577817 0.901131 0.473849 0.132373
C146  C     C_3   0.524398 0.819591 0.451615 -0.980533
H153  H     H_    0.517761 0.812864 0.373651 0.262580
H154  H     H_    0.593395 0.802847 0.523242 0.223020
H155  H     H_    0.466699 0.797518 0.446539 0.249620
O24   O     O_3   0.380638 0.104720 0.494620 -0.667523
C147  C     C_3   0.281971 0.114845 0.426664 0.267021
H156  H     H_    0.239090 0.077927 0.412463 0.164988
H157  H     H_    0.259675 0.131306 0.344461 0.087500
C148  C     C_3   0.260329 0.157021 0.482978 -0.955992
H158  H     H_    0.309420 0.192039 0.511232 0.265032
H159  H     H_    0.186509 0.172191 0.423815 0.227527
H160  H     H_    0.268823 0.138273 0.556619 0.262982

loop_
_geom_bond_atom_site_label_1
_geom_bond_atom_site_label_2
_ccdc_geom_bond_type
N32   Ni5   S    
C135  H127  S    
C10   C85   S    
C20   O16   S    
C127  C128  S    
C103  H47   S    
C38   O18   S    
N3    Ni3   S    
C64   N24   A    
O20   C139  S    
C15   C32   A    
C5    H5    S    
C138  H133  S    
C16   C31   A    
C40   C46   A    
C125  H101  S    
C144  H148  S    
C72   N32   A    
C44   O24   S    
C58   C82   A    
C6    N6    A    
C130  H115  S    
C103  C104  S    
C3    H3    S    
C96   C99   S    
C50   H10   S    
C123  H96   S    
C104  H49   S    
C38   C45   A    
C115  H77   S    
C113  H72   S    
N31   Ni6   S    
C47   C83   S    
C68   H28   S    
N29   Ni8   S    
C111  H67   S    
C117  C118  S    
C106  H54   S    
C116  H78   S    
C41   C43   A    
C42   C44   A    
C21   H33   S    
C53   H13   S    
C72   H32   S    
C39   O19   S    
C115  C116  S    
C105  H51   S    
C13   C30   A    
C3    N3    A    
C148  H160  S    
C27   C35   A    
C133  H121  S    
C130  H113  S    
C21   C29   A    
C17   C21   A    
C19   O15   S    
C113  C114  S    
C23   C31   A    
N2    N11   A    
C134  H125  S    
C63   N23   A    
C24   C32   A    
C54   N14   A    
C112  H68   S    
C30   C76   S    
C90   C92   S    
C131  H116  S    
C6    H6    S    
C14   C26   A    
C94   C96   S    
C137  H132  S    
N27   Ni2   S    
C144  H150  S    
C122  H94   S    
N18   N19   A    
C112  H69   S    
C12   C93   S    
C17   C34   A    
C5    C77   A    
C1    H1    S    
N15   Ni8   S    
C7    C79   A    
C54   C79   A    
C43   O23   S    
C138  H135  S    
C67   N27   A    
N11   Ni4   S    
C45   C81   S    
C14   O10   S    
C9    C90   S    
C4    N4    A    
C128  H110  S    
C13   O9    S    
C63   C84   A    
C126  H104  S    
C146  H153  S    
C90   O2    S    
C4    H4    S    
C91   C98   S    
C71   C88   A    
C135  C136  S    
N7    Ni7   S    
C69   H29   S    
O18   C135  S    
C116  H80   S    
C101  H41   S    
C117  H82   S    
C44   C48   A    
C53   N13   A    
C142  H143  S    
C136  H130  S    
C41   O21   S    
C59   C82   A    
C15   O11   S    
C56   N16   A    
C147  H156  S    
O1    C101  S    
C55   N15   A    
O9    C117  S    
C110  H63   S    
C145  H152  S    
C59   H19   S    
C127  H106  S    
C112  H70   S    
C32   C74   S    
C118  H83   S    
C6    C78   A    
N30   N31   A    
C52   H12   S    
C54   H14   S    
N6    Ni6   S    
C93   O5    S    
O10   C119  S    
C136  H129  S    
C94   O6    S    
C46   C82   S    
C20   C35   A    
C141  H142  S    
C10   C89   S    
C89   C91   S    
C3    C75   A    
O7    C113  S    
C99   Cl3   S    
C39   C45   A    
C24   H36   S    
C93   C95   S    
C124  H98   S    
C68   C85   A    
N12   Ni3   S    
C136  H128  S    
C92   C97   S    
O14   C127  S    
C138  H134  S    
C7    N7    A    
C140  H139  S    
C5    N5    A    
C53   C80   A    
C146  H155  S    
C55   C78   A    
O5    C109  S    
C137  C138  S    
C27   H39   S    
C66   H26   S    
C25   H37   S    
C128  H108  S    
C60   C81   A    
C109  H62   S    
C94   C100  S    
N4    Ni4   S    
O4    C107  S    
C69   N29   A    
C121  H92   S    
C68   N28   A    
O2    C103  S    
C142  H145  S    
C107  H57   S    
C2    N2    A    
C7    H7    S    
N14   Ni5   S    
C14   C29   A    
C62   H22   S    
C72   C87   A    
N24   Ni6   S    
C141  C142  S    
C62   C84   A    
C114  H75   S    
C22   C30   A    
C18   C22   A    
C89   O1    S    
C121  C122  S    
C66   C86   A    
C120  H90   S    
C139  C140  S    
C125  H102  S    
O3    C105  S    
N30   Ni7   S    
C114  H74   S    
C119  H86   S    
C43   C47   A    
C11   C99   S    
C135  H126  S    
C71   N31   A    
C104  H48   S    
C18   C33   A    
C96   O8    S    
C51   N11   A    
N10   Ni1   S    
C125  C126  S    
C144  H149  S    
C143  H146  S    
C42   O22   S    
N1    N12   A    
C25   C33   A    
C120  H88   S    
C123  C124  S    
C51   C74   A    
O22   C143  S    
C108  H58   S    
N25   Ni4   S    
N26   Ni3   S    
C105  H52   S    
C109  C110  S    
C110  H65   S    
C148  H159  S    
C140  H140  S    
C133  H122  S    
C65   N25   A    
C70   H30   S    
N9    Ni2   S    
O19   C137  S    
C134  H124  S    
N5    N16   A    
C59   N19   A    
C40   O20   S    
N6    N15   A    
C105  C106  S    
N23   Ni5   S    
C131  H117  S    
C93   C99   S    
C69   C87   A    
C17   O13   S    
C133  C134  S    
C108  H59   S    
C103  H46   S    
C10   C92   S    
N8    Ni8   S    
C122  H93   S    
C8    N8    A    
C129  H112  S    
C130  H114  S    
C147  H157  S    
C131  C132  S    
C61   C83   A    
C95   C100  S    
C33   C79   S    
C117  H81   S    
C132  H118  S    
C35   C77   S    
C129  C130  S    
C98   Cl2   S    
C104  H50   S    
C64   C83   A    
C126  H103  S    
C118  H85   S    
C52   N12   A    
C115  H76   S    
C65   C85   A    
C11   C94   S    
C116  H79   S    
C113  H71   S    
C101  H42   S    
C107  C108  S    
N21   N24   A    
C57   H17   S    
N22   N23   A    
C108  H60   S    
C67   C86   A    
C9    C97   S    
N20   Ni2   S    
C26   H38   S    
C63   H23   S    
C129  H111  S    
C23   H35   S    
C1    C73   A    
C101  C102  S    
C70   N30   A    
C37   C39   A    
C64   H24   S    
C50   C75   A    
C38   C40   A    
C137  H131  S    
O17   C133  S    
C62   N22   A    
C55   H15   S    
C60   H20   S    
C102  H43   S    
C100  Cl4   S    
C12   C100  S    
C147  C148  S    
C1    N1    A    
C111  C112  S    
C28   C36   A    
C128  H109  S    
O16   C131  S    
C145  H151  S    
C122  H95   S    
C2    H2    S    
C12   C96   S    
C37   C46   A    
C145  C146  S    
C16   C28   A    
O15   C129  S    
C19   C23   A    
C28   H40   S    
C70   C88   A    
C9    C91   S    
C109  H61   S    
N2    Ni2   S    
C106  H53   S    
C22   H34   S    
C61   N21   A    
C139  H137  S    
C61   H21   S    
C132  H120  S    
O8    C115  S    
C126  H105  S    
C19   C36   A    
C146  H154  S    
N16   Ni7   S    
C31   C73   S    
C58   H18   S    
C102  H44   S    
C10   C98   S    
N7    N14   A    
C34   C80   S    
C15   C27   A    
C26   C34   A    
N3    N10   A    
C20   C24   A    
O11   C121  S    
C123  H97   S    
C2    C74   A    
C142  H144  S    
N1    Ni1   S    
C13   C25   A    
C92   O4    S    
C8    H8    S    
C56   H16   S    
N28   Ni1   S    
C18   O14   S    
C66   N26   A    
C52   C73   A    
C58   N18   A    
C120  H89   S    
O13   C125  S    
C71   H31   S    
C37   O17   S    
C56   C77   A    
C48   C84   S    
C89   C97   S    
C65   H25   S    
C102  H45   S    
C119  H87   S    
N4    N9    A    
C67   H27   S    
C9    C86   S    
C50   N10   A    
C118  H84   S    
C11   C88   S    
O6    C111  S    
C49   C76   A    
C91   O3    S    
N17   Ni3   S    
N18   Ni4   S    
C111  H66   S    
N25   N28   A    
C143  H147  S    
C124  H99   S    
N19   Ni1   S    
N26   N27   A    
N29   N32   A    
C57   C81   A    
C124  H100  S    
C119  C120  S    
N21   Ni7   S    
C49   H9    S    
O24   C147  S    
C106  H55   S    
C11   C95   S    
C57   N17   A    
N13   Ni6   S    
C51   H11   S    
C12   C87   S    
N22   Ni8   S    
C60   N20   A    
C16   O12   S    
C97   Cl1   S    
C29   C75   S    
N17   N20   A    
C143  C144  S    
O23   C145  S    
C49   N9    A    
C110  H64   S    
C36   C78   S    
C148  H158  S    
C141  H141  S    
C132  H119  S    
C41   C48   A    
C127  H107  S    
C42   C47   A    
C107  H56   S    
C134  H123  S    
C4    C76   A    
C121  H91   S    
C139  H136  S    
N8    N13   A    
N5    Ni5   S    
C8    C80   A    
C140  H138  S    
C95   O7    S    
O21   C141  S    
C114  H73   S    
C90   C98   S    
O12   C123  S    
