data_mof_unit_58692.cif
_audit_creation_date              2012-12-11T17:41:44-0500
_audit_creation_method            fapswitch 2.2
_symmetry_space_group_name_H-M    P1
_symmetry_Int_Tables_number       1
_space_group_crystal_system       triclinic
_cell_length_a                    15.511053
_cell_length_b                    14.932187
_cell_length_c                    14.846406
_cell_angle_alpha                 109.653167
_cell_angle_beta                  121.407038
_cell_angle_gamma                 59.189268
_cell_volume                      2509.29404214

loop_
_atom_site_label
_atom_site_type_symbol
_atom_type_description
_atom_site_fract_x
_atom_site_fract_y
_atom_site_fract_z
_atom_type_partial_charge
Br1   Br    Br    0.233400 0.987275 0.799050 -0.702139
Br2   Br    Br    0.825370 0.182942 0.375519 -0.643715
C1    C     C_R   0.804506 0.936519 0.773406 -0.134164
C2    C     C_R   0.216509 0.404427 0.162785 -0.121571
C3    C     C_R   0.741096 0.860081 0.014756 -0.151779
C4    C     C_R   0.312269 0.327794 0.150260 -0.148271
C5    C     C_R   0.719914 0.966709 0.037305 0.079771
C6    C     C_R   0.304088 0.257563 0.057835 0.102163
C7    C     C_R   0.806484 0.996009 0.074613 -0.112748
C8    C     C_R   0.197879 0.266744 0.977864 -0.150751
C9    C     C_R   0.912550 0.919613 0.086913 -0.109502
C10   C     C_R   0.102337 0.343850 0.990683 -0.115409
C11   C     C_R   0.932922 0.813594 0.062228 -0.125224
C12   C     C_R   0.251201 0.002088 0.207814 -0.112532
C13   C     C_R   0.111635 0.412502 0.083038 -0.096491
C14   C     C_R   0.605675 0.077185 0.128871 -0.172674
C15   C     C_R   0.411535 0.154114 0.948690 -0.178744
C16   C     C_R   0.199446 0.274491 0.440159 -0.127596
C17   C     C_R   0.755990 0.709779 0.508675 -0.119747
C18   C     C_R   0.503556 0.121684 0.131962 0.034985
C19   C     C_R   0.510401 0.080608 0.938572 0.071169
C20   C     C_R   0.406761 0.175831 0.045942 0.050770
C21   C     C_R   0.610500 0.046799 0.032477 0.010119
C22   C     C_2   0.021660 0.346655 0.460752 -0.164901
C23   C     C_R   0.136792 0.273807 0.480264 0.136842
C24   C     C_2   0.849328 0.602711 0.384657 -0.226313
C25   C     C_2   0.961409 0.417145 0.390355 -0.097632
C26   C     C_2   0.866278 0.510543 0.399668 -0.090747
C27   C     C_2   0.985754 0.951840 0.841896 -0.205449
C28   C     C_2   0.174126 0.865361 0.097935 -0.240835
C29   C     C_R   0.221459 0.878151 0.686177 0.376225
C30   C     C_R   0.820347 0.237120 0.509829 0.371895
C31   C     C_R   0.317620 0.791760 0.682414 -0.209688
C32   C     C_R   0.721036 0.314590 0.515313 -0.222442
C33   C     C_R   0.309589 0.709975 0.600693 0.065720
C34   C     C_R   0.787716 0.700457 0.432786 0.151643
C35   C     C_R   0.716833 0.353827 0.613980 0.061795
C36   C     C_R   0.203569 0.716778 0.522457 -0.173505
C37   C     C_R   0.813766 0.316638 0.707079 -0.185652
C38   C     C_R   0.107737 0.803470 0.526269 -0.134292
C39   C     C_R   0.912713 0.238982 0.701189 -0.169463
C40   C     C_R   0.595472 0.229301 0.553714 -0.120173
C41   C     C_R   0.408898 0.785372 0.518812 -0.139008
C42   C     C_R   0.116599 0.883851 0.608186 -0.153368
C43   C     C_R   0.916070 0.199390 0.602782 -0.177969
C44   C     C_R   0.416323 0.516391 0.581250 -0.238472
C45   C     C_R   0.505990 0.325728 0.538452 0.051986
C46   C     C_R   0.609682 0.536786 0.649685 -0.230855
C47   C     C_R   0.512763 0.426962 0.581186 0.059671
C48   C     C_R   0.507634 0.624331 0.620201 0.040119
C49   C     C_R   0.612550 0.437818 0.620038 0.052535
C50   C     C_R   0.411894 0.616562 0.599542 0.059570
C51   C     C_2   0.048416 0.880840 0.912262 -0.109694
C52   C     C_2   0.147076 0.889199 0.004765 -0.074545
C53   C     C_R   0.409926 0.048881 0.735059 -0.090729
C54   C     C_R   0.591765 0.020870 0.288393 -0.128443
C55   C     C_R   0.410225 0.307315 0.472948 -0.132373
C56   C     C_R   0.501582 0.706406 0.580826 0.068357
C57   C     C_R   0.592446 0.715047 0.595309 -0.127056
C58   C     C_R   0.594985 0.978426 0.806796 -0.145819
C59   C     C_R   0.408273 0.092625 0.211765 -0.121591
C60   C     C_R   0.198349 0.183996 0.531729 -0.144776
C61   C     C_R   0.757034 0.800922 0.416237 -0.144201
C62   C     C_R   0.804516 0.028275 0.683138 -0.159136
C63   C     C_R   0.251211 0.908833 0.298415 -0.128160
C64   C     C_R   0.868364 0.974396 0.771770 0.146625
C65   C     C_R   0.225503 0.921712 0.197448 0.139419
C66   C     C_R   0.505189 0.038821 0.831376 0.060123
C67   C     C_R   0.500126 0.081044 0.207159 0.071729
C68   C     C_R   0.847202 0.783882 0.026102 -0.118751
H1    H     H_    0.833490 0.878520 0.822492 0.098171
H2    H     H_    0.392837 0.323064 0.212836 0.123757
H3    H     H_    0.791910 0.077776 0.095003 0.147454
H4    H     H_    0.188696 0.213640 0.906264 0.155698
H5    H     H_    0.978678 0.943234 0.116690 0.129668
H6    H     H_    0.020952 0.350284 0.929087 0.108533
H7    H     H_    0.682544 0.047650 0.198469 0.158100
H8    H     H_    0.337445 0.191765 0.880519 0.122574
H9    H     H_    0.824427 0.506282 0.437175 0.137589
H10   H     H_    0.992182 0.416013 0.338833 0.120435
H11   H     H_    0.892440 0.605955 0.347748 0.129599
H12   H     H_    0.242059 0.033375 0.146108 0.102159
H13   H     H_    0.989915 0.349034 0.512202 0.143775
H14   H     H_    0.042032 0.950199 0.611217 0.137154
H15   H     H_    0.993086 0.139759 0.598839 0.161246
H16   H     H_    0.172373 0.325400 0.384688 0.083845
H17   H     H_    0.768240 0.648064 0.542288 0.093097
H18   H     H_    0.398372 0.787754 0.743830 0.152334
H19   H     H_    0.647232 0.343849 0.443146 0.152297
H20   H     H_    0.194968 0.655440 0.458129 0.112700
H21   H     H_    0.812223 0.347111 0.783777 0.125406
H22   H     H_    0.026466 0.808125 0.465871 0.129244
H23   H     H_    0.142710 0.816497 0.100609 0.127880
H24   H     H_    0.986897 0.209499 0.772899 0.155337
H25   H     H_    0.343220 0.508431 0.563217 0.128584
H26   H     H_    0.686449 0.542359 0.676879 0.125606
H27   H     H_    0.681548 0.210386 0.605269 0.126348
H28   H     H_    0.323086 0.809195 0.499106 0.116882
H29   H     H_    0.324205 0.090867 0.722807 0.124181
H30   H     H_    0.677376 0.006767 0.318732 0.107385
H31   H     H_    0.324744 0.364567 0.443868 0.091793
H32   H     H_    0.677918 0.677790 0.651237 0.085866
H33   H     H_    0.681123 0.959601 0.856802 0.128985
H34   H     H_    0.017794 0.002262 0.842823 0.158856
H35   H     H_    0.322439 0.142687 0.167655 0.116807
H36   H     H_    0.167821 0.152171 0.558868 0.118752
H37   H     H_    0.769599 0.822231 0.362606 0.102657
H38   H     H_    0.835238 0.053164 0.649417 0.112297
H39   H     H_    0.242355 0.852099 0.319025 0.104415
H40   H     H_    0.180135 0.936039 0.001112 0.153042
H41   H     H_    0.017404 0.830227 0.912451 0.129440
H42   H     H_    0.015161 0.754250 0.071927 0.103538
H43   H     H_    0.037547 0.471998 0.092777 0.098064
H44   H     H_    0.863268 0.701807 0.007899 0.109197
H45   H     H_    0.223671 0.457639 0.234348 0.105722
H46   H     H_    0.675482 0.836423 0.988322 0.128017
N1    N     N_R   0.705410 0.966550 0.689210 -0.045117
N2    N     N_R   0.556610 0.796750 0.548620 -0.040609
N3    N     N_R   0.556610 0.951620 0.703500 -0.043660
N4    N     N_R   0.443390 0.048380 0.296500 -0.045231
N5    N     N_R   0.294590 0.131500 0.522480 -0.045225
N6    N     N_R   0.705410 0.868500 0.477520 -0.042162
N7    N     N_R   0.705410 0.023370 0.632390 -0.042763
N8    N     N_R   0.294590 0.976630 0.367610 -0.041965
N9    N     N_R   0.294590 0.033450 0.310790 -0.047450
N10   N     N_R   0.294590 0.188320 0.465660 -0.043170
N11   N     N_R   0.705410 0.811680 0.534340 -0.045780
N12   N     N_R   0.556610 0.157790 0.497330 -0.042099
N13   N     N_R   0.443390 0.842210 0.502670 -0.041525
N14   N     N_R   0.443390 0.997080 0.657540 -0.043522
N15   N     N_R   0.556610 0.002920 0.342460 -0.041023
N16   N     N_R   0.443390 0.203250 0.451380 -0.039870
Ni1   Ni    Ni4+2 0.629830 0.882720 0.617850 0.210180
Ni2   Ni    Ni4+2 0.370170 0.117280 0.382150 0.215693
Ni3   Ni    Ni4+2 0.629830 0.013030 0.487540 0.218790
Ni4   Ni    Ni4+2 0.370170 0.986970 0.512460 0.227887

loop_
_geom_bond_atom_site_label_1
_geom_bond_atom_site_label_2
_ccdc_geom_bond_type
N9    Ni2   S    
C32   C35   A    
C8    H4    S    
C30   C43   A    
C55   N16   A    
C43   H15   S    
C22   C25   D    
N1    Ni1   S    
C53   C66   A    
C37   C39   A    
C51   C52   S    
C68   H44   S    
C4    H2    S    
C28   C52   D    
C44   C47   A    
C16   H16   S    
C12   N9    A    
C22   H13   S    
C28   H23   S    
N15   Ni3   S    
C17   C34   A    
C35   C49   S    
C11   C68   A    
N4    N15   A    
C44   C50   A    
Br1   C29   S    
N3    N14   A    
C52   H40   S    
C58   N3    A    
Br2   C30   S    
C14   H7    S    
C63   N8    A    
N6    N11   A    
C26   H9    S    
C2    H45   S    
C41   C56   A    
C46   C49   A    
C44   H25   S    
C63   C65   A    
C6    C20   S    
C12   C65   A    
C41   H28   S    
C58   H33   S    
C1    N1    A    
C28   C65   S    
C40   N12   A    
C40   C45   A    
C11   H42   S    
C51   H41   S    
C46   C48   A    
C59   N4    A    
C16   C23   A    
C7    H3    S    
N12   N16   A    
N10   Ni2   S    
C37   H21   S    
C62   H38   S    
C35   C37   A    
C29   C42   A    
N8    Ni4   S    
C48   C56   S    
C41   N13   A    
C33   C36   A    
C22   C23   S    
C2    C4    A    
C25   H10   S    
N12   Ni3   S    
C3    C5    A    
C4    C6    A    
C47   C49   A    
C56   C57   A    
C15   C19   A    
C27   H34   S    
N7    Ni3   S    
C62   C64   A    
C1    H1    S    
C3    C68   A    
C45   C55   A    
N13   Ni4   S    
C48   C50   A    
C39   H24   S    
C10   C13   A    
C14   C18   A    
C53   N14   A    
C13   H43   S    
N3    Ni1   S    
C38   H22   S    
C7    C9    A    
C63   H39   S    
N2    Ni1   S    
C8    C10   A    
N16   Ni2   S    
C24   C34   S    
C18   C20   A    
C14   C21   A    
C19   C21   A    
C3    H46   S    
C18   C67   S    
C40   H27   S    
C1    C64   A    
C54   H30   S    
C61   H37   S    
C34   C61   A    
C25   C26   S    
C61   N6    A    
C59   H35   S    
C59   C67   A    
C5    C7    A    
C29   C31   A    
C39   C43   A    
C46   H26   S    
C57   H32   S    
C31   H18   S    
N14   Ni4   S    
N11   Ni1   S    
C42   H14   S    
C60   H36   S    
C24   H11   S    
C62   N7    A    
C55   H31   S    
C36   H20   S    
C24   C26   D    
C15   C20   A    
C2    C13   A    
C10   H6    S    
N1    N7    A    
C17   H17   S    
N5    N10   A    
C19   C66   S    
N2    N13   A    
C9    H5    S    
C45   C47   S    
C16   N10   A    
C36   C38   A    
C9    C11   A    
C27   C51   D    
C5    C21   S    
C17   N11   A    
C15   H8    S    
C31   C33   A    
N4    Ni2   S    
C23   C60   A    
N5    Ni4   S    
N6    Ni3   S    
C32   H19   S    
C54   N15   A    
C27   C64   S    
C38   C42   A    
C57   N2    A    
C58   C66   A    
C6    C8    A    
C54   C67   A    
C53   H29   S    
C33   C50   S    
C12   H12   S    
C60   N5    A    
C30   C32   A    
N8    N9    A    
