data_mof_unit_13639.cif
_audit_creation_date              2012-12-11T14:08:18-0500
_audit_creation_method            fapswitch 2.2
_symmetry_space_group_name_H-M    P1
_symmetry_Int_Tables_number       1
_space_group_crystal_system       triclinic
_cell_length_a                    10.993364
_cell_length_b                    10.982499
_cell_length_c                    18.766612
_cell_angle_alpha                 89.960503
_cell_angle_beta                  89.38265
_cell_angle_gamma                 59.865351
_cell_volume                      1959.41194739

loop_
_atom_site_label
_atom_site_type_symbol
_atom_type_description
_atom_site_fract_x
_atom_site_fract_y
_atom_site_fract_z
_atom_type_partial_charge
C1    C     C_R   0.231830 0.647192 0.606725 0.560642
C2    C     C_3   0.695265 0.530823 0.801353 -0.063587
C3    C     C_3   0.697187 0.670247 0.814318 0.001252
C4    C     C_3   0.667018 0.644666 0.678357 0.063496
C5    C     C_3   0.803870 0.648412 0.690005 0.218769
C6    C     C_3   0.672437 0.519232 0.721162 0.201189
C7    C     C_2   0.677716 0.142134 0.666406 -0.068829
C8    C     C_2   0.699366 0.143665 0.822738 -0.153468
C9    C     C_2   0.809303 0.078679 0.777112 -0.165567
C10   C     C_2   0.793664 0.117652 0.701047 -0.083294
C11   C     C_2   0.179270 0.657475 0.678533 -0.041166
C12   C     C_R   0.651924 0.620462 0.602557 0.635035
C13   C     C_2   0.176586 0.679055 0.835413 0.316725
C14   C     C_2   0.230388 0.555543 0.800119 -0.018625
C15   C     C_2   0.263892 0.555742 0.723986 -0.103951
C16   C     C_2   0.619391 0.603834 0.310392 -0.099607
C17   C     C_2   0.634511 0.663874 0.159022 -0.121087
C18   C     C_2   0.697365 0.533918 0.186326 -0.133159
C19   C     C_2   0.713893 0.505757 0.263879 -0.017343
C20   C     C_2   0.640351 0.188621 0.321861 0.366464
C21   C     C_2   0.629594 0.201573 0.164073 -0.052505
C22   C     C_2   0.527298 0.215901 0.208931 0.009946
C23   C     C_R   0.628919 0.224994 0.600870 0.572148
C24   C     C_2   0.531662 0.265776 0.278984 -0.115713
C25   C     C_2   0.250119 0.628637 0.319999 -0.086410
C26   C     C_2   0.192358 0.644736 0.169662 -0.095812
C27   C     C_2   0.242572 0.719940 0.201058 -0.140311
C28   C     C_2   0.276547 0.707431 0.275902 -0.161738
C29   C     C_R   0.706840 0.094441 0.895545 0.537817
C30   C     C_R   0.722747 0.686891 0.889269 0.538113
C31   C     C_R   0.118143 0.707160 0.907255 0.557902
C32   C     C_R   0.672576 0.111197 0.102363 0.562580
C33   C     C_R   0.691541 0.687938 0.093993 0.554281
C34   C     C_R   0.288000 0.620219 0.393124 0.540377
C35   C     C_R   0.101284 0.704971 0.109566 0.567700
C36   C     C_R   0.615910 0.585650 0.387616 0.536423
C37   C     C_R   0.617863 0.228754 0.395369 0.571927
C38   C     C_3   0.553330 0.797792 0.788477 -0.157173
C39   C     C_3   0.540202 0.784607 0.707004 -0.275250
C40   C     C_3   0.815717 0.674566 0.769280 -0.193053
Cr1   Cr    Cr6+3 0.393010 0.398050 0.501480 1.028543
Cr2   Cr    Cr6+3 0.398820 0.707980 0.501630 1.039113
Cr3   Cr    Cr6+3 0.708140 0.393940 0.496850 1.059616
Cr4   Cr    Cr6+3 0.937950 0.938450 0.008940 1.020664
Cr5   Cr    Cr6+3 0.626180 0.937030 0.994750 0.994237
Cr6   Cr    Cr6+3 0.937790 0.625760 0.001410 0.990842
H1    H     H_    0.556136 0.896781 0.797512 0.177025
H2    H     H_    0.922717 0.598252 0.787787 0.109653
H3    H     H_    0.896557 0.546609 0.673284 0.172684
H4    H     H_    0.912036 0.000914 0.796231 0.213861
H5    H     H_    0.873467 0.133424 0.675245 0.208147
H6    H     H_    0.598205 0.224615 0.803798 0.102139
H7    H     H_    0.606336 0.113380 0.691661 0.107459
H8    H     H_    0.364830 0.471105 0.704858 0.122459
H9    H     H_    0.077953 0.746097 0.694122 0.184620
H10   H     H_    0.760211 0.447347 0.150153 0.143085
H11   H     H_    0.564891 0.757285 0.189582 0.095361
H12   H     H_    0.533520 0.700728 0.291100 0.077525
H13   H     H_    0.435651 0.355008 0.299239 0.081352
H14   H     H_    0.696821 0.242856 0.179217 0.101696
H15   H     H_    0.239339 0.809555 0.174558 0.152119
H16   H     H_    0.439398 0.789177 0.694175 0.151658
H17   H     H_    0.311215 0.776820 0.296702 0.135654
H18   H     H_    0.203609 0.548456 0.191664 0.089470
H19   H     H_    0.206909 0.564195 0.302801 0.108520
H20   H     H_    0.537545 0.875791 0.679547 0.176161
H21   H     H_    0.806592 0.779683 0.775872 0.160674
H22   H     H_    0.600015 0.542606 0.829051 0.054567
H23   H     H_    0.570500 0.521972 0.714477 0.103585
O1    O     O_R   0.507110 0.256280 0.580300 -0.520801
O2    O     O_R   0.524640 0.695370 0.425100 -0.498213
O3    O     O_R   0.735890 0.504390 0.415980 -0.512636
O4    O     O_R   0.690560 0.277820 0.422350 -0.535318
O5    O     O_3   0.499990 0.499990 0.499980 -0.317470
O6    O     O_R   0.089190 0.825870 0.932320 -0.492068
O7    O     O_R   0.819070 0.053960 0.931440 -0.499712
O8    O     O_R   0.607070 0.076440 0.916460 -0.525695
O9    O     O_R   0.647110 0.806550 0.917690 -0.512428
O10   O     O_R   0.837080 0.593860 0.915300 -0.536332
O11   O     O_R   0.064770 0.636080 0.932550 -0.550068
O12   O     O_R   0.280830 0.527190 0.577940 -0.491636
O13   O     O_R   0.068250 0.829200 0.092940 -0.511621
O14   O     O_R   0.799650 0.057040 0.080330 -0.489502
O15   O     O_R   0.586130 0.079760 0.077080 -0.535939
O16   O     O_R   0.627700 0.809630 0.066580 -0.502085
O17   O     O_R   0.816140 0.597180 0.075920 -0.511329
O18   O     O_R   0.045360 0.639170 0.081440 -0.499058
O19   O     O_3   0.833980 0.833750 0.001700 -0.241380
O20   O     O_R   0.261360 0.738990 0.584270 -0.502587
O21   O     O_R   0.532590 0.694780 0.574370 -0.518582
O22   O     O_R   0.744470 0.503750 0.577000 -0.441344
O23   O     O_R   0.698520 0.277230 0.571620 -0.452495
O24   O     O_R   0.498530 0.256920 0.419280 -0.547773
O25   O     O_R   0.272880 0.527780 0.428680 -0.493828
O26   O     O_R   0.252780 0.739630 0.423250 -0.487130
F1    F     F_    0.775609 0.390835 0.694227 -0.672373
C41   C     C_3   0.280015 0.415672 0.837751 -0.308896
C42   C     C_3   0.311180 0.293772 0.787229 -0.449180
H24   H     H_    0.216329 0.317262 0.756532 0.151739
H25   H     H_    0.397244 0.271619 0.749267 0.144804
H26   H     H_    0.345021 0.197464 0.818764 0.146038
H27   H     H_    0.375807 0.389295 0.868561 0.136640
H28   H     H_    0.199590 0.421966 0.875626 0.167920
F2    F     F_    0.156710 0.795744 0.800064 -0.717923
C43   C     C_3   0.423781 0.810329 0.829600 -0.259500
C44   C     C_3   0.302376 0.961813 0.834025 -0.402262
H29   H     H_    0.331803 0.022999 0.869683 0.127025
H30   H     H_    0.275824 0.010126 0.780293 0.159367
H31   H     H_    0.208164 0.965172 0.858009 0.215679
H32   H     H_    0.389335 0.742759 0.803516 0.203350
H33   H     H_    0.449911 0.771096 0.885005 0.155812
C45   C     C_3   0.844037 0.371294 0.289655 -0.236347
C46   C     C_3   0.948699 0.273562 0.232997 -0.444343
H34   H     H_    0.900334 0.231767 0.196307 0.163249
H35   H     H_    0.993628 0.328765 0.202431 0.152988
H36   H     H_    0.035271 0.181455 0.260034 0.154212
H37   H     H_    0.905973 0.401667 0.324203 0.187599
H38   H     H_    0.810165 0.308294 0.320855 0.200335
C47   C     C_3   0.425037 0.163000 0.194804 -0.242536
C48   C     C_3   0.321226 0.188452 0.255681 -0.454215
H39   H     H_    0.377777 0.139117 0.305673 0.185034
H40   H     H_    0.249035 0.303029 0.264252 0.146548
H41   H     H_    0.258525 0.138800 0.241464 0.128068
H42   H     H_    0.362652 0.215953 0.146700 0.155673
H43   H     H_    0.485810 0.047329 0.185567 0.187692
F3    F     F_    0.761844 0.074065 0.298962 -0.635525
F4    F     F_    0.804551 0.753644 0.649349 -0.662677
C49   C     C_3   0.813567 0.391947 0.834721 -0.197097
C50   C     C_3   0.966086 0.340818 0.812523 -0.384671
H44   H     H_    0.030211 0.226014 0.822409 0.123828
H45   H     H_    0.976953 0.358546 0.755408 0.195846
H46   H     H_    0.011242 0.391526 0.845229 0.153034
H47   H     H_    0.804455 0.395871 0.893762 0.138202
H48   H     H_    0.791824 0.308952 0.819483 0.186264

loop_
_geom_bond_atom_site_label_1
_geom_bond_atom_site_label_2
_ccdc_geom_bond_type
Cr3   O4    S    
C7    C10   D    
Cr6   O11   S    
C43   H32   S    
Cr3   O3    S    
C6    H23   S    
C12   O22   A    
C1    C11   S    
Cr4   O14   S    
C49   C50   S    
C41   C42   S    
C31   O11   A    
C29   O7    A    
C47   H42   S    
C25   C28   D    
C50   H45   S    
C26   C27   D    
C8    C29   S    
C12   O21   A    
Cr6   O18   S    
Cr4   O13   S    
C16   C19   D    
C45   H37   S    
C44   H29   S    
C35   O18   A    
C18   C19   S    
Cr4   O7    S    
C26   H18   S    
C33   O16   A    
C27   H15   S    
Cr1   O5    S    
C11   C15   D    
Cr1   O24   S    
Cr6   O10   S    
C20   C24   D    
Cr4   O6    S    
C8    C9    D    
C40   H21   S    
Cr5   O9    S    
C13   C14   D    
C4    C12   S    
C9    C10   S    
C8    H6    S    
C41   H27   S    
C48   H41   S    
C18   H10   S    
C25   C34   S    
C50   H46   S    
Cr3   O5    S    
C43   H33   S    
C21   C22   D    
C23   O1    A    
C5    H3    S    
C2    C6    S    
C17   C33   S    
C10   H5    S    
C45   C46   S    
C35   O13   A    
C48   H40   S    
Cr6   O19   S    
C22   C47   S    
C32   O15   A    
C21   C32   S    
Cr2   O5    S    
Cr2   O26   S    
C15   H8    S    
Cr5   O19   S    
C25   H19   S    
C34   O26   A    
C3    C38   S    
C21   H14   S    
C4    C6    S    
C19   C45   S    
Cr3   O22   S    
Cr2   O21   S    
C3    C30   S    
Cr5   O16   S    
C33   O17   A    
C20   F3    S    
C49   H48   S    
C31   O6    A    
Cr1   O25   S    
C4    C39   S    
Cr1   O12   S    
C5    F4    S    
C17   C18   D    
C37   O24   A    
C16   H12   S    
C13   F2    S    
C38   H1    S    
C41   H28   S    
C30   O10   A    
C47   H43   S    
C3    C40   S    
C6    F1    S    
C39   H20   S    
C22   C24   S    
Cr5   O15   S    
C7    H7    S    
C11   H9    S    
C48   H39   S    
C14   C41   S    
C46   H34   S    
C40   H2    S    
C32   O14   A    
C37   O4    A    
C1    O20   A    
C14   C15   S    
C13   C31   S    
C9    H4    S    
C34   O25   A    
C4    C5    S    
C47   C48   S    
C36   O2    A    
C42   H26   S    
C43   C44   S    
C2    H22   S    
Cr3   O23   S    
Cr2   O20   S    
C46   H36   S    
C38   C43   S    
C2    C3    S    
C50   H44   S    
C49   H47   S    
C16   C36   S    
C45   H38   S    
C20   C37   S    
C38   C39   S    
C44   H30   S    
C24   H13   S    
C7    C23   S    
Cr2   O2    S    
C42   H25   S    
C30   O9    A    
C28   H17   S    
C26   C35   S    
C29   O8    A    
C42   H24   S    
C5    C40   S    
C27   C28   S    
C39   H16   S    
C23   O23   A    
Cr5   O8    S    
Cr6   O17   S    
Cr4   O19   S    
C1    O12   A    
C36   O3    A    
C17   H11   S    
Cr1   O1    S    
C46   H35   S    
C44   H31   S    
C2    C49   S    
