data_mof_unit_44772.cif
_audit_creation_date              2012-12-11T16:33:21-0500
_audit_creation_method            fapswitch 2.2
_symmetry_space_group_name_H-M    P1
_symmetry_Int_Tables_number       1
_space_group_crystal_system       triclinic
_cell_length_a                    6.944396
_cell_length_b                    18.27861
_cell_length_c                    20.139336
_cell_angle_alpha                 68.463728
_cell_angle_beta                  90.610854
_cell_angle_gamma                 90.75668
_cell_volume                      2377.63911058

loop_
_atom_site_label
_atom_site_type_symbol
_atom_type_description
_atom_site_fract_x
_atom_site_fract_y
_atom_site_fract_z
_atom_type_partial_charge
O1    O     O_R   0.488960 0.443750 0.941980 -0.540383
O2    O     O_R   0.823890 0.406510 0.087590 -0.538556
O3    O     O_R   0.999680 0.556250 0.058020 -0.540509
C1    C     C_R   0.655162 0.383539 0.115089 0.693615
O4    O     O_R   0.818360 0.434410 0.944340 -0.536079
O5    O     O_R   0.994110 0.584350 0.913750 -0.536215
C2    C     C_R   0.648740 0.420271 0.923857 0.722033
O6    O     O_R   0.494530 0.415650 0.086250 -0.536495
O7    O     O_3   0.662590 0.549160 0.990130 -0.367473
V1    V     V_3+5 0.935320 0.490880 0.001830 1.422694
O8    O     O_R   0.324180 0.593490 0.912410 -0.538834
C3    C     C_R   0.155219 0.616488 0.884925 0.693299
O9    O     O_R   0.329720 0.565590 0.055660 -0.535766
C4    C     C_R   0.162046 0.579754 0.076157 0.721687
V2    V     V_3+5 0.435990 0.509120 0.998170 1.422149
O10   O     O_3   0.158850 0.450840 0.009870 -0.367309
C5    C     C_3   0.052912 0.705441 0.312281 -0.139242
C6    C     C_3   0.239488 0.685347 0.281151 -0.141065
H1    H     H_    0.327275 0.631841 0.306675 0.107267
H2    H     H_    0.986559 0.668905 0.363927 0.106956
H3    H     H_    0.460132 0.788865 0.271797 0.109996
C7    C     C_1   0.155420 0.625586 0.121655 -0.196667
C8    C     C_1   0.110750 0.874340 0.378196 -0.196636
C9    C     C_3   0.954207 0.728715 0.238046 -0.141100
C10   C     C_3   0.140686 0.709226 0.207536 0.172006
C11   C     C_3   0.027024 0.814575 0.218710 -0.141063
C12   C     C_3   0.125825 0.790696 0.292325 0.172014
C13   C     C_3   0.213600 0.794481 0.187579 -0.139225
C14   C     C_3   0.312306 0.771209 0.261816 -0.141121
C15   C     C_1   0.149011 0.663426 0.160185 -0.068927
C16   C     C_1   0.117384 0.836498 0.339673 -0.069025
H4    H     H_    0.279951 0.831018 0.135934 0.106958
H5    H     H_    0.939236 0.868080 0.193185 0.107235
H6    H     H_    0.806381 0.711058 0.228065 0.110019
H7    H     H_    0.443266 0.548728 0.693804 0.113781
C17   C     C_R   0.984419 0.764052 0.875295 -0.130943
C18   C     C_R   0.899073 0.833720 0.872372 -0.123639
C19   C     C_R   0.885939 0.896944 0.807884 -0.127156
C20   C     C_R   0.958232 0.891019 0.745825 -0.141368
C21   C     C_R   0.043634 0.820672 0.746820 0.068776
C22   C     C_R   0.056825 0.755756 0.812986 0.069696
C23   C     C_R   0.119158 0.814978 0.683691 -0.186770
C24   C     C_R   0.207495 0.744183 0.686839 0.069696
C25   C     C_R   0.220645 0.679258 0.753000 0.068858
C26   C     C_R   0.145183 0.684961 0.816137 -0.186810
C27   C     C_R   0.279916 0.735897 0.624528 -0.130919
C28   C     C_R   0.365176 0.666217 0.627439 -0.123635
C29   C     C_R   0.378214 0.602975 0.691918 -0.127227
C30   C     C_R   0.305940 0.608897 0.753981 -0.141380
H8    H     H_    0.994431 0.717309 0.927108 0.105842
H9    H     H_    0.844226 0.838866 0.920573 0.111226
H10   H     H_    0.820803 0.951180 0.805987 0.113821
H11   H     H_    0.947531 0.942522 0.697415 0.112861
H12   H     H_    0.269976 0.782657 0.572722 0.105660
H13   H     H_    0.420022 0.661076 0.579237 0.111205
H14   H     H_    0.316558 0.557377 0.802378 0.112560
H15   H     H_    0.934760 0.339864 0.420653 0.111236
C31   C     C_R   0.452346 0.108444 0.254222 -0.141134
C32   C     C_R   0.376225 0.102297 0.192193 -0.127164
C33   C     C_R   0.388529 0.165613 0.127724 -0.123730
C34   C     C_R   0.476922 0.235582 0.124791 -0.131058
C35   C     C_R   0.553383 0.244075 0.187068 0.069582
C36   C     C_R   0.540948 0.179095 0.253217 0.068725
C37   C     C_R   0.644962 0.315143 0.183907 -0.186651
C38   C     C_R   0.724385 0.321080 0.247001 0.068727
C39   C     C_R   0.711905 0.256106 0.313157 0.069581
C40   C     C_R   0.620292 0.185042 0.316322 -0.186806
C41   C     C_R   0.813122 0.391710 0.245974 -0.141070
C42   C     C_R   0.889266 0.397859 0.308001 -0.127041
C43   C     C_R   0.876859 0.334561 0.372482 -0.123701
C44   C     C_R   0.788372 0.264602 0.375430 -0.131154
H16   H     H_    0.442084 0.056870 0.302616 0.112234
H17   H     H_    0.308722 0.047830 0.194100 0.113807
H18   H     H_    0.330642 0.160314 0.079549 0.111201
H19   H     H_    0.486007 0.282419 0.073001 0.105468
H20   H     H_    0.823494 0.443259 0.197561 0.112297
H21   H     H_    0.956871 0.452312 0.306082 0.113826
H22   H     H_    0.779227 0.217775 0.427223 0.105807
O11   O     O_R   0.770540 0.084530 0.414050 -0.536452
O12   O     O_R   0.445710 0.065660 0.555720 -0.535890
O13   O     O_R   0.270420 0.915650 0.586190 -0.536153
C45   C     C_R   0.615137 0.079841 0.576342 0.722814
O14   O     O_R   0.441140 0.093540 0.412470 -0.538594
O15   O     O_R   0.265820 0.943740 0.441930 -0.540591
C46   C     C_R   0.609971 0.116634 0.385133 0.693212
O16   O     O_R   0.775150 0.056440 0.558310 -0.540976
O17   O     O_3   0.602370 0.950960 0.510050 -0.367567
V3    V     V_3+5 0.329450 0.009140 0.498150 1.422806
O18   O     O_R   0.935790 0.934280 0.444060 -0.536514
C47   C     C_R   0.103671 0.920172 0.423685 0.720933
O19   O     O_R   0.940370 0.906390 0.587310 -0.538748
C48   C     C_R   0.109254 0.883465 0.614913 0.693478
V4    V     V_3+5 0.828810 0.990710 0.501460 1.422337
O20   O     O_3   0.105780 0.049100 0.489960 -0.367173
C49   C     C_3   0.746093 0.313557 0.722586 -0.140945
C50   C     C_3   0.565582 0.295116 0.685259 -0.138435
H23   H     H_    0.511355 0.332095 0.631483 0.107086
H24   H     H_    0.840636 0.366222 0.700124 0.107444
H25   H     H_    0.302877 0.292072 0.760738 0.108549
C51   C     C_1   0.624880 0.125555 0.621870 -0.195628
C52   C     C_1   0.638519 0.374515 0.878373 -0.196461
C53   C     C_3   0.811560 0.227048 0.744450 -0.141665
C54   C     C_3   0.631102 0.209221 0.707754 0.172454
C55   C     C_3   0.697430 0.204921 0.815013 -0.138444
C56   C     C_3   0.631910 0.290817 0.792519 0.172475
C57   C     C_3   0.516918 0.186479 0.777687 -0.140935
C58   C     C_3   0.451449 0.272991 0.755823 -0.141735
C59   C     C_1   0.629152 0.163393 0.660422 -0.068583
C60   C     C_1   0.634000 0.336655 0.839841 -0.068562
H26   H     H_    0.422375 0.133814 0.800148 0.107457
H27   H     H_    0.751657 0.167943 0.868789 0.107078
H28   H     H_    0.960134 0.207968 0.739535 0.108573

loop_
_geom_bond_atom_site_label_1
_geom_bond_atom_site_label_2
_ccdc_geom_bond_type
C25   C30   A    
O17   V3    S    
V4    O20   S    
C12   C14   S    
C42   H21   S    
C49   C50   S    
C1    O6    A    
C55   C57   S    
C49   H24   S    
C34   H19   S    
C10   C13   S    
C56   C58   S    
C11   C12   S    
C18   C19   A    
C17   C18   A    
C9    C11   S    
O11   V4    S    
C42   C43   A    
O5    C3    A    
C19   C20   A    
C18   H9    S    
C19   H10   S    
C57   C58   S    
C52   C60   T    
V2    O10   S    
C31   C36   A    
C5    H2    S    
C6    H1    S    
C35   C37   A    
C49   C56   S    
O13   C48   A    
C53   H28   S    
C39   C44   A    
C41   C42   A    
C43   C44   A    
O1    V2    S    
H15   C43   S    
O7    V1    S    
C32   H17   S    
C49   C53   S    
C21   C23   A    
C39   C40   A    
C32   C33   A    
O9    C4    A    
C17   C22   A    
C53   C54   S    
C6    C10   S    
O15   C47   A    
H7    C29   S    
C55   C56   S    
C36   C40   A    
V3    O20   S    
C40   C46   S    
C5    C9    S    
C51   C59   T    
C12   C16   S    
C5    C12   S    
C13   H4    S    
C9    C10   S    
O12   C45   A    
O19   C48   A    
O4    C2    A    
C31   C32   A    
C45   O16   A    
H3    C14   S    
C9    H6    S    
C33   C34   A    
C8    C16   T    
O2    C1    A    
C24   C25   A    
C35   C36   A    
O16   V4    S    
O19   V4    S    
C11   H5    S    
C28   C29   A    
C38   C41   A    
C50   H23   S    
C27   H12   S    
C5    C6    S    
C8    C47   S    
C6    C14   S    
C53   C55   S    
C54   C59   S    
O3    C4    A    
C21   C22   A    
O14   C46   A    
C50   C58   S    
O6    V2    S    
O8    V2    S    
O9    V2    S    
C23   C24   A    
O2    V1    S    
O11   C46   A    
C17   H8    S    
C25   C26   A    
C28   H13   S    
C57   H26   S    
C10   C15   S    
C56   C60   S    
C27   C28   A    
C13   C14   S    
C7    C15   T    
O1    C2    A    
C45   C51   S    
O15   V3    S    
C3    C26   S    
O5    V1    S    
C55   H27   S    
O8    C3    A    
C41   H20   S    
C30   H14   S    
H25   C58   S    
C1    C37   S    
C11   C13   S    
C37   C38   A    
C4    C7    S    
O7    V2    S    
O4    V1    S    
O12   V3    S    
O3    V1    S    
V1    O10   S    
C31   H16   S    
C20   H11   S    
C29   C30   A    
O17   V4    S    
C33   H18   S    
O14   V3    S    
C54   C57   S    
C23   C48   S    
O18   V4    S    
C34   C35   A    
C24   C27   A    
O13   V3    S    
C20   C21   A    
C38   C39   A    
C2    C52   S    
C50   C54   S    
C22   C26   A    
O18   C47   A    
C44   H22   S    
