data_mof_unit_39817.cif
_audit_creation_date              2013-03-05T16:23:14-0500
_audit_creation_method            fapswitch 2.2
_symmetry_space_group_name_H-M    P1
_symmetry_Int_Tables_number       1
_space_group_crystal_system       triclinic
_cell_length_a                    27.662349
_cell_length_b                    10.481059
_cell_length_c                    9.829088
_cell_angle_alpha                 90.902499
_cell_angle_beta                  89.372931
_cell_angle_gamma                 89.946514
_cell_volume                      2849.22856718

loop_
_atom_site_label
_atom_site_type_symbol
_atom_site_description
_atom_site_fract_x
_atom_site_fract_y
_atom_site_fract_z
_atom_type_partial_charge
O1    O     O_R   0.500000 0.313960 0.616610 -0.556784
O2    O     O_R   0.500000 0.686040 0.383390 -0.557132
O3    O     O_R   0.500020 0.313950 0.383350 -0.590760
O4    O     O_R   0.499980 0.686050 0.616650 -0.591109
C1    C     C_R   0.499994 0.257961 0.498940 0.917846
C2    C     C_R   0.500004 0.742037 0.501059 0.916821
O5    O     O_R   0.428750 0.500030 0.616610 -0.585156
O6    O     O_R   0.571250 0.499970 0.383390 -0.581228
O7    O     O_R   0.428770 0.500020 0.383360 -0.579133
O8    O     O_R   0.571230 0.499980 0.616640 -0.583167
C3    C     C_R   0.406170 0.501071 0.500677 0.881022
C4    C     C_R   0.593836 0.499507 0.499376 0.882005
Zn1   Zn    Zn3+2 0.499990 0.500010 0.655740 1.089757
Zn2   Zn    Zn3+2 0.500010 0.499990 0.344260 1.091150
C5    C     C_R   0.177229 0.419304 0.561915 0.563078
C6    C     C_R   0.821590 0.616669 0.502524 0.568937
O9    O     O_2   0.202312 0.317454 0.605522 -0.549281
O10   O     O_2   0.795328 0.725361 0.503739 -0.544597
N1    N     N_R   0.201145 0.522355 0.512306 -0.332776
N2    N     N_R   0.798905 0.501438 0.497010 -0.339842
C7    C     C_R   0.177520 0.627831 0.467197 0.598328
C8    C     C_R   0.823752 0.388796 0.494946 0.598986
C9    C     C_R   0.278369 0.533470 0.628214 -0.202674
C10   C     C_R   0.722071 0.513420 0.619195 -0.199910
C11   C     C_R   0.328429 0.526987 0.626062 -0.178211
C12   C     C_R   0.671932 0.513139 0.620349 -0.169137
C13   C     C_R   0.327520 0.492779 0.381064 -0.298263
C14   C     C_R   0.672295 0.482967 0.374722 -0.305296
C15   C     C_R   0.276897 0.498823 0.382807 0.511294
C16   C     C_R   0.722948 0.483062 0.373142 0.506642
C17   C     C_R   0.252678 0.519231 0.507395 0.281281
C18   C     C_R   0.747433 0.498774 0.496294 0.279570
C19   C     C_R   0.101262 0.524877 0.518766 -0.094857
C20   C     C_R   0.898650 0.507654 0.504830 -0.107837
C21   C     C_R   0.126931 0.418527 0.566660 -0.096235
C22   C     C_R   0.871872 0.622219 0.507968 -0.090344
C23   C     C_R   0.102062 0.314706 0.621359 -0.148924
C24   C     C_R   0.895525 0.739517 0.522812 -0.157541
C25   C     C_R   0.126352 0.631977 0.467461 -0.114530
C26   C     C_R   0.874797 0.388636 0.494783 -0.093719
C27   C     C_R   0.353355 0.506319 0.502619 -0.072005
C28   C     C_R   0.646692 0.498503 0.498073 -0.072580
H1    H     H_    0.346533 0.476804 0.285340 0.175979
H2    H     H_    0.653092 0.470524 0.280066 0.203255
H3    H     H_    0.121447 0.236706 0.667168 0.211317
H4    H     H_    0.875104 0.827378 0.534595 0.201650
C29   C     C_R   0.976045 0.399130 0.525556 -0.023313
C30   C     C_R   0.024021 0.632101 0.486097 -0.037748
C31   C     C_R   0.973348 0.632158 0.509919 -0.011644
C32   C     C_R   0.025735 0.409170 0.557173 -0.019173
C33   C     C_R   0.949313 0.512825 0.513274 -0.036057
C34   C     C_R   0.050385 0.522444 0.521051 -0.040724
C35   C     C_R   0.953523 0.280632 0.496628 0.367231
C36   C     C_R   0.048212 0.733924 0.421609 0.412978
C37   C     C_R   0.902498 0.274650 0.484166 0.100409
C38   C     C_R   0.099362 0.735333 0.413901 0.100516
O11   O     O_2   0.798751 0.278357 0.495535 -0.507821
O12   O     O_2   0.203988 0.727240 0.423542 -0.553269
C39   C     C_R   0.051917 0.311044 0.622184 0.504343
C40   C     C_R   0.945609 0.745440 0.529983 0.491522
H5    H     H_    0.653023 0.525222 0.716789 0.188469
H6    H     H_    0.347524 0.538959 0.720941 0.213604
H7    H     H_    0.741399 0.525461 0.713758 0.164211
H8    H     H_    0.259341 0.549170 0.723912 0.167004
C41   C     C_3   0.538142 0.043092 0.564111 0.499426
C42   C     C_3   0.461853 0.956900 0.435886 0.498727
C43   C     C_3   0.540807 0.956015 0.437323 -0.316556
C44   C     C_3   0.459187 0.043978 0.562674 -0.318159
H9    H     H_    0.574248 0.916396 0.389495 0.182778
H10   H     H_    0.425746 0.083592 0.610505 0.182160
C45   C     C_3   0.500343 0.876916 0.503104 -0.081348
C46   C     C_3   0.499652 0.123079 0.496894 -0.081437
C47   C     C_3   0.498625 0.962553 0.631645 -0.233617
C48   C     C_3   0.501370 0.037439 0.368351 -0.233260
H11   H     H_    0.498425 0.929676 0.738386 0.214090
H12   H     H_    0.501569 0.070316 0.261610 0.214139
C49   C     C_3   0.489228 0.389111 0.045909 0.283228
C50   C     C_3   0.510770 0.610890 0.954091 0.282569
C51   C     C_3   0.530985 0.419776 0.949825 0.274662
C52   C     C_3   0.469014 0.580224 0.050176 0.274632
N3    N     N_3   0.499960 0.500030 0.863290 -0.127634
N4    N     N_3   0.500040 0.499970 0.136710 -0.127614
C53   C     C_3   0.458194 0.469378 0.953425 0.275001
C54   C     C_3   0.541804 0.530624 0.046572 0.276091
O13   O     O_3   0.578073 0.095258 0.630795 -0.711658
H13   H     H_    0.596222 0.021170 0.665432 0.341971
O14   O     O_3   0.421922 0.904722 0.369207 -0.712477
H14   H     H_    0.403770 0.978804 0.334566 0.341087
O15   O     O_3   0.564090 0.334014 0.890874 -0.688452
H15   H     H_    0.579991 0.292266 0.968340 0.344881
O16   O     O_3   0.435907 0.665981 0.109133 -0.687804
H16   H     H_    0.419992 0.707695 0.031671 0.344491
O17   O     O_3   0.477381 0.270436 0.099612 -0.743518
H17   H     H_    0.472833 0.213044 0.019681 0.346958
O18   O     O_3   0.522617 0.729564 0.900389 -0.743430
H18   H     H_    0.527163 0.786958 0.980319 0.347081
O19   O     O_3   0.413458 0.435691 0.899048 -0.738138
H19   H     H_    0.391788 0.423106 0.978670 0.340114
O20   O     O_3   0.586537 0.564334 0.100944 -0.739127
H20   H     H_    0.608215 0.576855 0.021328 0.339907
O21   O     O_3   0.250272 0.483966 0.265631 -0.750913
H21   H     H_    0.272720 0.470566 0.187335 0.334596
O22   O     O_3   0.749330 0.468911 0.253802 -0.752980
H22   H     H_    0.726693 0.459149 0.176792 0.336614
N5    N     N_2   0.879092 0.154748 0.463929 -0.261769
H23   H     H_    0.892386 0.080768 0.520524 0.251251
C55   C     C_3   0.870017 0.120631 0.323170 -0.619170
H24   H     H_    0.848420 0.031404 0.318673 0.252669
H25   H     H_    0.904541 0.104752 0.266649 0.212341
H26   H     H_    0.849276 0.197209 0.272925 0.264477
N6    N     N_2   0.122223 0.839817 0.348331 -0.307961
H27   H     H_    0.147240 0.890439 0.404078 0.288374
C56   C     C_3   0.133559 0.819805 0.205518 -0.641618
H28   H     H_    0.160698 0.742473 0.191520 0.272922
H29   H     H_    0.148419 0.909094 0.162577 0.240816
H30   H     H_    0.100347 0.793969 0.148866 0.236945
O23   O     O_3   0.982866 0.175610 0.470621 -0.710516
H31   H     H_    0.964321 0.104469 0.430271 0.371343
O24   O     O_3   0.020700 0.824565 0.356368 -0.729178
H32   H     H_    0.040793 0.898016 0.329211 0.374201
O25   O     O_3   0.030163 0.215913 0.696598 -0.709557
H33   H     H_    0.997777 0.246067 0.726886 0.339726
O26   O     O_3   0.965369 0.860948 0.569355 -0.729554
H34   H     H_    0.996532 0.844468 0.614655 0.350746

loop_
_geom_bond_atom_site_label_1
_geom_bond_atom_site_label_2
_geom_bond_distance
_ccdc_geom_bond_type
C39   O25   1.380475 S    
C42   C44   1.534107 S    
O14   H14   0.991098 S    
O17   H17   0.991122 S    
C13   C15   1.401624 A    
C47   H11   1.109414 S    
O18   H18   0.991123 S    
N1    C17   1.426138 S    
C8    O11   1.348994 S    
O19   H19   0.991129 S    
O26   H34   0.990829 S    
O13   H13   0.991100 S    
C19   C34   1.407558 A    
C30   C36   1.414895 A    
N5    C55   1.448180 S    
C20   C33   1.405857 A    
O21   H21   0.991739 S    
C31   C40   1.423036 A    
C48   H12   1.109414 S    
C37   N5    1.426376 S    
O1    C1    1.288718 A    
C32   C39   1.421268 A    
C21   C23   1.399331 A    
C12   H5    1.083250 S    
C10   C12   1.386894 A    
C1    C46   1.413580 S    
C51   C54   1.521746 S    
C50   C52   1.521776 S    
C49   C53   1.520162 S    
C42   C48   1.533508 S    
Zn1   N3    2.040014 S    
C41   C47   1.533500 S    
C14   C28   1.404592 A    
O4    Zn1   1.993318 S    
C4    C28   1.462058 S    
C5    N1    1.361214 A    
C42   C45   1.517931 S    
C14   C16   1.401101 A    
C41   C43   1.534101 S    
C16   O22   1.380622 S    
C32   C34   1.417761 A    
C55   H24   1.110749 S    
C38   N6    1.424482 S    
C43   C45   1.536573 S    
C6    N2    1.362144 A    
C29   C35   1.416231 A    
C56   H30   1.111013 S    
C35   C37   1.419492 A    
C36   O24   1.386169 S    
C55   H25   1.110650 S    
O2    C2    1.288707 A    
C52   C53   1.521759 S    
C5    C21   1.391668 A    
N3    C53   1.486672 S    
C29   C32   1.416201 A    
C49   C51   1.521783 S    
C2    C45   1.413539 S    
C36   C38   1.416209 A    
C24   H4    1.083867 S    
C46   C48   1.538545 S    
C11   C27   1.402720 A    
C42   O14   1.398001 S    
C51   N3    1.484816 S    
C29   C33   1.409338 A    
C31   C33   1.417694 A    
C44   C47   1.552647 S    
C14   H2    1.082548 S    
C44   C46   1.536586 S    
C43   H9    1.110294 S    
C9    C17   1.396662 A    
C40   O26   1.380323 S    
O5    C3    1.305637 A    
O7    Zn2   2.003654 S    
C10   C18   1.396580 A    
C50   C54   1.520145 S    
C13   C27   1.404237 A    
C25   C38   1.425885 A    
C7    C25   1.416015 A    
C30   C34   1.409684 A    
C50   O18   1.396710 S    
O6    C4    1.306070 A    
C26   C37   1.420552 A    
C8    C26   1.411999 A    
C15   O21   1.380706 S    
N6    C56   1.446968 S    
C43   C48   1.552653 S    
C19   C25   1.416932 A    
O7    C3    1.305544 A    
O25   H33   0.990851 S    
C23   C39   1.387634 A    
O3    Zn2   1.993320 S    
O8    C4    1.305222 A    
C24   C40   1.389407 A    
O4    C2    1.286922 A    
C9    H8    1.083069 S    
N2    C8    1.365319 A    
C10   H7    1.083049 S    
N4    C54   1.486651 S    
C55   H26   1.111357 S    
C20   C26   1.414329 A    
O1    Zn1   1.981617 S    
Zn2   N4    2.040015 S    
C23   H3    1.083841 S    
O16   H16   0.991034 S    
C12   C28   1.402941 A    
C45   C47   1.538527 S    
C56   H28   1.110214 S    
N2    C18   1.424220 S    
C5    O9    1.350638 S    
C30   C31   1.418607 A    
O6    Zn2   2.011977 S    
N6    H27   1.029805 S    
N1    C7    1.366098 A    
C54   O20   1.396771 S    
O3    C1    1.286925 A    
O8    Zn1   2.003657 S    
O24   H32   0.988364 S    
C41   O13   1.397993 S    
C41   C46   1.517939 S    
N5    H23   1.031232 S    
O20   H20   0.991116 S    
C52   O16   1.397446 S    
C22   C24   1.399564 A    
C7    O12   1.347006 S    
C15   C17   1.402763 A    
O23   H31   0.986049 S    
C6    C22   1.393769 A    
C16   C18   1.401065 A    
C50   N3    1.486560 S    
C49   N4    1.486564 S    
C35   O23   1.385916 S    
C49   O17   1.396711 S    
C19   C21   1.410904 A    
C52   N4    1.484831 S    
C3    C27   1.461897 S    
C20   C22   1.410033 A    
C11   H6    1.082439 S    
C9    C11   1.386311 A    
O2    Zn2   1.981615 S    
C51   O15   1.397436 S    
C13   H1    1.083482 S    
O5    Zn1   2.011972 S    
C6    O10   1.350390 S    
C53   O19   1.396814 S    
O22   H22   0.991760 S    
C44   H10   1.110287 S    
O15   H15   0.991037 S    
C56   H29   1.110091 S    
