data_mof_unit_49830.cif
_audit_creation_date              2012-12-10T18:18:18-0500
_audit_creation_method            fapswitch 2.2
_symmetry_space_group_name_H-M    P1
_symmetry_Int_Tables_number       1
_space_group_crystal_system       triclinic
_cell_length_a                    14.038046
_cell_length_b                    14.951046
_cell_length_c                    15.505701
_cell_angle_alpha                 89.900715
_cell_angle_beta                  67.780127
_cell_angle_gamma                 89.503471
_cell_volume                      3012.60029875

loop_
_atom_site_label
_atom_site_type_symbol
_atom_type_description
_atom_site_fract_x
_atom_site_fract_y
_atom_site_fract_z
_atom_type_partial_charge
C1    C     C_R   0.501340 0.672804 0.495599 0.892912
C2    C     C_R   0.499490 0.327058 0.502236 0.888868
C3    C     C_R   0.396202 0.411036 0.092439 -0.238537
C4    C     C_R   0.629197 0.482141 0.892230 -0.239849
C5    C     C_R   0.324258 0.403282 0.051283 -0.244101
C6    C     C_R   0.701537 0.489029 0.932912 -0.240992
C7    C     C_R   0.506198 0.185047 0.582230 0.023235
C8    C     C_R   0.494578 0.814588 0.414781 0.037388
C9    C     C_R   0.498777 0.231733 0.505799 -0.086987
C10   C     C_R   0.501920 0.768060 0.491454 -0.087140
C11   C     C_R   0.491654 0.188236 0.429534 -0.287316
C12   C     C_R   0.510427 0.811704 0.567037 -0.287218
C13   C     C_R   0.493522 0.096199 0.425731 0.125826
C14   C     C_R   0.509555 0.903659 0.570327 0.125053
C15   C     C_R   0.501113 0.046717 0.500234 0.038565
C16   C     C_R   0.502081 0.953064 0.495743 0.035757
C17   C     C_R   0.507251 0.090685 0.579224 0.098770
C18   C     C_R   0.495580 0.909023 0.416918 0.098846
C19   C     C_R   0.488534 0.053382 0.347777 -0.211491
C20   C     C_R   0.515409 0.946442 0.647936 -0.209468
C21   C     C_R   0.489981 0.960926 0.343015 -0.231300
C22   C     C_R   0.513840 0.038834 0.652734 -0.234268
C23   C     C_R   0.435847 0.499842 0.676123 0.859499
C24   C     C_R   0.564216 0.498208 0.323935 0.865242
C25   C     C_R   0.171108 0.464941 0.574203 -0.059898
C26   C     C_R   0.828974 0.534693 0.425596 -0.060562
C27   C     C_R   0.232149 0.535397 0.425977 -0.062592
C28   C     C_R   0.767717 0.465705 0.574514 -0.076874
C29   C     C_R   0.132464 0.535808 0.423993 0.013246
C30   C     C_R   0.867452 0.464928 0.576322 0.019597
C31   C     C_R   0.050556 0.500103 0.500047 0.085160
C32   C     C_R   0.949446 0.500143 0.500027 0.087506
C33   C     C_R   0.069675 0.464519 0.576198 0.019537
C34   C     C_R   0.930346 0.535536 0.423792 0.017433
C35   C     C_R   0.112818 0.571029 0.348125 -0.207177
C36   C     C_R   0.887040 0.430012 0.652337 -0.216449
C37   C     C_R   0.012710 0.570816 0.347989 -0.207383
C38   C     C_R   0.987231 0.429654 0.652207 -0.207519
C39   C     C_R   0.397001 0.488034 0.776767 -0.057236
C40   C     C_R   0.604806 0.489224 0.222847 -0.053399
C41   C     C_R   0.274404 0.426517 0.919286 -0.206782
C42   C     C_R   0.741375 0.501221 0.071196 -0.211143
C43   C     C_R   0.299697 0.452525 0.826839 -0.204524
C44   C     C_R   0.708392 0.504344 0.167975 -0.193246
C45   C     C_R   0.466572 0.500057 0.819979 -0.282910
C46   C     C_R   0.536265 0.466044 0.181157 -0.292780
C47   C     C_R   0.447417 0.465652 0.908411 0.090998
C48   C     C_R   0.567301 0.462240 0.084586 0.093539
C49   C     C_R   0.348083 0.431933 0.960132 0.180390
C50   C     C_R   0.670811 0.483267 0.029179 0.179842
C51   C     C_R   0.524328 0.465255 0.946719 0.071896
C52   C     C_R   0.495658 0.445585 0.042317 0.070443
H1    H     H_    0.249217 0.375939 0.091454 0.148558
H2    H     H_    0.780893 0.502838 0.889195 0.147425
H3    H     H_    0.187310 0.437522 0.631928 0.125102
H4    H     H_    0.812842 0.561735 0.367683 0.123882
H5    H     H_    0.295535 0.563575 0.368390 0.132703
H6    H     H_    0.704161 0.438911 0.632706 0.143123
H7    H     H_    0.174879 0.598663 0.288847 0.143555
H8    H     H_    0.824964 0.403017 0.711922 0.142101
H9    H     H_    0.999722 0.598316 0.288635 0.139481
H10   H     H_    0.000169 0.402236 0.711619 0.138035
H11   H     H_    0.456761 0.456701 0.225416 0.160132
H12   H     H_    0.537194 0.534657 0.781973 0.156231
H13   H     H_    0.762690 0.521383 0.199605 0.147102
H14   H     H_    0.244861 0.442540 0.793996 0.147396
H15   H     H_    0.198749 0.399516 0.957773 0.133830
H16   H     H_    0.820956 0.516062 0.029268 0.133819
H17   H     H_    0.372990 0.386404 0.162789 0.149477
H18   H     H_    0.658121 0.488106 0.817392 0.141362
H19   H     H_    0.486246 0.226814 0.372073 0.147465
H20   H     H_    0.515990 0.773272 0.624529 0.148053
H21   H     H_    0.483655 0.091586 0.290058 0.147038
H22   H     H_    0.520875 0.908261 0.705434 0.146629
H23   H     H_    0.487024 0.931701 0.280485 0.159494
H24   H     H_    0.518265 0.068097 0.714687 0.158494
N1    N     N_R   0.249980 0.499930 0.499960 -0.097961
N2    N     N_R   0.750020 0.500070 0.500040 -0.097281
O1    O     O_R   0.419720 0.632140 0.499980 -0.618061
O2    O     O_R   0.580280 0.367860 0.500020 -0.612364
O3    O     O_R   0.580270 0.632160 0.499970 -0.610393
O4    O     O_R   0.419730 0.367840 0.500030 -0.612466
O5    O     O_R   0.373870 0.499980 0.632250 -0.618699
O6    O     O_R   0.626130 0.500020 0.367750 -0.621937
O7    O     O_R   0.534420 0.500000 0.632240 -0.625763
O8    O     O_R   0.465580 0.500000 0.367760 -0.634104
Zn1   Zn    Zn3+2 0.392800 0.499980 0.500010 0.938236
Zn2   Zn    Zn3+2 0.607200 0.500020 0.499990 0.938936
C53   C     C_3   0.509901 0.235496 0.666435 -0.407215
C54   C     C_3   0.619847 0.237498 0.665035 -0.323249
C55   C     C_3   0.621388 0.276745 0.755170 -0.897206
H25   H     H_    0.591271 0.346250 0.764355 0.268452
H26   H     H_    0.573640 0.235971 0.815824 0.267544
H27   H     H_    0.701520 0.277263 0.752429 0.246261
H28   H     H_    0.653905 0.169205 0.655840 0.222403
H29   H     H_    0.669114 0.278583 0.605338 0.237957
H30   H     H_    0.481429 0.305285 0.669395 0.195846
H31   H     H_    0.455783 0.205055 0.731775 0.194562
C56   C     C_3   0.488706 0.764207 0.331198 -0.438221
C57   C     C_3   0.594543 0.758652 0.251310 -0.361154
C58   C     C_3   0.585512 0.724789 0.161926 -0.863001
H32   H     H_    0.544166 0.660221 0.174404 0.271520
H33   H     H_    0.542941 0.774338 0.136356 0.254729
H34   H     H_    0.663503 0.714799 0.107428 0.256383
H35   H     H_    0.631707 0.825282 0.237409 0.230967
H36   H     H_    0.644942 0.712202 0.271372 0.219792
H37   H     H_    0.460236 0.695201 0.348776 0.214266
H38   H     H_    0.430520 0.795937 0.308229 0.200333

loop_
_geom_bond_atom_site_label_1
_geom_bond_atom_site_label_2
_ccdc_geom_bond_type
O5    Zn1   S    
C58   H32   S    
C27   C29   A    
C34   C37   A    
C22   H24   S    
C4    H18   S    
C54   H28   S    
C41   H15   S    
C40   C46   A    
C56   H38   S    
C57   H35   S    
C26   N2    A    
C23   O5    A    
C25   N1    A    
C5    H1    S    
C3    H17   S    
C8    C56   S    
C11   H19   S    
C1    O3    A    
O4    Zn1   S    
C18   C21   A    
C35   H7    S    
C41   C49   A    
C27   N1    A    
C26   C34   A    
C31   C32   A    
C7    C17   A    
C31   C33   A    
C28   N2    A    
C39   C45   A    
C48   C50   A    
C12   H20   S    
C58   H33   S    
C42   H16   S    
C41   C43   A    
C5    C49   A    
C44   H13   S    
C42   C44   A    
C6    H2    S    
O1    Zn1   S    
C45   C47   A    
C46   C48   A    
C13   C19   A    
C4    C51   A    
C51   C52   A    
C14   C20   A    
C19   H21   S    
C4    C6    A    
C27   H5    S    
C55   H25   S    
O8    Zn1   S    
C39   C43   A    
C36   H8    S    
C53   H31   S    
C8    C18   A    
C53   H30   S    
C32   C34   A    
C55   H26   S    
C37   H9    S    
C56   C57   S    
C40   C44   A    
C29   C31   A    
C20   H22   S    
C6    C50   A    
C9    C11   A    
C10   C12   A    
C42   C50   A    
C16   C18   A    
C20   C22   A    
C58   H34   S    
C13   C15   A    
C1    O1    A    
C14   C16   A    
C2    O4    A    
C35   C37   A    
O7    Zn2   S    
N2    Zn2   S    
C15   C17   A    
C29   C35   A    
C19   C21   A    
C1    C10   S    
O6    Zn2   S    
C12   C14   A    
C3    C5    A    
C26   H4    S    
C47   C51   A    
C3    C52   A    
C54   H29   S    
C28   H6    S    
C47   C49   A    
C56   H37   S    
C21   H23   S    
C45   H12   S    
C57   H36   S    
C17   C22   A    
C30   C36   A    
C46   H11   S    
C28   C30   A    
C24   O6    A    
O2    Zn2   S    
C55   H27   S    
C30   C32   A    
C11   C13   A    
C54   C55   S    
C43   H14   S    
C23   C39   S    
C36   C38   A    
C57   C58   S    
C24   C40   S    
C25   H3    S    
O3    Zn2   S    
C2    O2    A    
C7    C9    A    
C48   C52   A    
N1    Zn1   S    
C8    C10   A    
C23   O7    A    
C33   C38   A    
C53   C54   S    
C2    C9    S    
C24   O8    A    
C15   C16   A    
C25   C33   A    
C38   H10   S    
C7    C53   S    
