data_mof_unit_50068.cif
_audit_creation_date              2012-12-11T15:48:47-0500
_audit_creation_method            fapswitch 2.2
_symmetry_space_group_name_H-M    P1
_symmetry_Int_Tables_number       1
_space_group_crystal_system       triclinic
_cell_length_a                    11.008178
_cell_length_b                    11.001537
_cell_length_c                    18.759386
_cell_angle_alpha                 90.182682
_cell_angle_beta                  89.770106
_cell_angle_gamma                 60.378898
_cell_volume                      1974.93313256

loop_
_atom_site_label
_atom_site_type_symbol
_atom_type_description
_atom_site_fract_x
_atom_site_fract_y
_atom_site_fract_z
_atom_type_partial_charge
C1    C     C_R   0.234775 0.647959 0.608969 0.535187
C2    C     C_R   0.556053 0.201172 0.720477 -0.133036
C3    C     C_R   0.565893 0.214949 0.793064 -0.167645
C4    C     C_R   0.627134 0.587387 0.608777 0.554132
C5    C     C_3   0.920673 0.161800 0.777691 -0.281663
C6    C     C_3   0.900265 0.178934 0.697150 -0.150387
C7    C     C_R   0.667404 0.172827 0.674947 0.028822
C8    C     C_R   0.162938 0.678135 0.831616 0.022878
C9    C     C_R   0.121209 0.599726 0.789857 0.035452
C10   C     C_R   0.127193 0.599548 0.715989 0.012018
C11   C     C_R   0.204913 0.768015 0.723343 -0.166460
C12   C     C_3   0.619266 0.561439 0.815164 -0.265901
C13   C     C_R   0.199305 0.767660 0.797003 -0.164182
C14   C     C_3   0.172648 0.446966 0.791705 -0.286011
C15   C     C_3   0.172410 0.448649 0.710844 -0.289150
C16   C     C_R   0.628665 0.227840 0.602714 0.527276
C17   C     C_R   0.179623 0.675901 0.681680 0.023457
C18   C     C_R   0.707567 0.707470 0.181112 0.009546
C19   C     C_R   0.805824 0.590001 0.217101 -0.005520
C20   C     C_R   0.796010 0.573222 0.288782 0.066235
C21   C     C_R   0.583954 0.797184 0.293846 -0.168844
C22   C     C_R   0.600996 0.816256 0.220999 -0.168548
C23   C     C_3   0.680150 0.661338 0.817897 0.059977
C24   C     C_3   0.860851 0.439272 0.199707 -0.298320
C25   C     C_3   0.853399 0.418470 0.278855 -0.099099
C26   C     C_R   0.677416 0.670092 0.326957 0.009554
C27   C     C_R   0.653229 0.151828 0.176963 0.020580
C28   C     C_R   0.219596 0.650842 0.402393 0.552451
C29   C     C_R   0.555187 0.134678 0.215938 0.004047
C30   C     C_R   0.551623 0.143619 0.288929 0.004729
C31   C     C_R   0.762931 0.158020 0.287492 -0.171814
C32   C     C_R   0.757971 0.162774 0.213238 -0.175574
C33   C     C_3   0.399901 0.211598 0.209226 -0.122378
C34   C     C_3   0.642579 0.617638 0.684408 0.033257
C35   C     C_3   0.394665 0.225812 0.289720 -0.277640
C36   C     C_R   0.651143 0.163447 0.325801 0.024909
C37   C     C_R   0.057335 0.728708 0.195205 0.008769
C38   C     C_R   0.059344 0.835565 0.235835 0.040750
C39   C     C_R   0.096308 0.814304 0.305946 0.014213
C40   C     C_R   0.644939 0.624637 0.393746 0.552788
C41   C     C_R   0.107550 0.590915 0.303663 -0.170870
C42   C     C_R   0.072245 0.610316 0.231322 -0.167034
C43   C     C_3   0.113995 0.938120 0.228387 -0.126102
C44   C     C_3   0.160665 0.906140 0.305299 -0.258236
C45   C     C_3   0.796245 0.578228 0.697807 -0.223451
C46   C     C_R   0.133508 0.687695 0.339363 0.015148
C47   C     C_R   0.703934 0.102576 0.896233 0.574634
C48   C     C_R   0.716780 0.683675 0.891409 0.551908
C49   C     C_R   0.115397 0.707835 0.905033 0.563693
C50   C     C_R   0.674939 0.106856 0.103816 0.549860
C51   C     C_R   0.730391 0.716496 0.105324 0.546340
C52   C     C_R   0.617118 0.228119 0.395473 0.547010
C53   C     C_R   0.030825 0.745744 0.119186 0.549957
C54   C     C_3   0.569776 0.800274 0.780912 -0.069034
C55   C     C_3   0.553245 0.774989 0.701920 -0.206463
C56   C     C_3   0.594682 0.537667 0.736001 -0.255520
C57   C     C_3   0.818478 0.592077 0.775543 -0.208853
C58   C     C_2   0.601235 0.916455 0.785900 0.239590
C59   C     C_3   0.031223 0.085542 0.651839 -0.262452
C60   C     C_3   0.039420 0.160699 0.584599 -0.296329
C61   C     C_3   0.173082 0.070412 0.542040 -0.420947
C62   C     C_2   0.995038 0.329433 0.311807 0.191353
C63   C     C_2   0.346637 0.346481 0.169327 0.216994
C64   C     C_3   0.233628 0.906796 0.175280 -0.234450
C65   C     C_3   0.183157 0.022297 0.118299 -0.300867
C66   C     C_3   0.293129 0.990112 0.060852 -0.392807
C67   C     C_R   0.695170 0.163480 0.825415 0.020733
C68   C     C_R   0.814511 0.113920 0.780602 0.080208
C69   C     C_R   0.798916 0.126922 0.706140 0.050305
Cr1   Cr    Cr6+3 0.392960 0.397920 0.502240 1.016416
Cr2   Cr    Cr6+3 0.398340 0.708480 0.501250 0.975842
Cr3   Cr    Cr6+3 0.708670 0.393570 0.496460 1.021854
Cr4   Cr    Cr6+3 0.937650 0.938540 0.007610 0.988904
Cr5   Cr    Cr6+3 0.625330 0.937370 0.994520 0.995854
Cr6   Cr    Cr6+3 0.937940 0.625230 0.001190 1.044318
H1    H     H_    0.648123 0.425105 0.724298 0.115566
H2    H     H_    0.466998 0.837141 0.808007 0.058712
H3    H     H_    0.223103 0.837916 0.826654 0.118985
H4    H     H_    0.099106 0.418520 0.816313 0.139446
H5    H     H_    0.275794 0.393562 0.815924 0.127335
H6    H     H_    0.274795 0.391622 0.684992 0.163843
H7    H     H_    0.092133 0.428966 0.686838 0.124464
H8    H     H_    0.493589 0.876549 0.322360 0.124673
H9    H     H_    0.526816 0.910798 0.194847 0.125332
H10   H     H_    0.967866 0.388896 0.176376 0.135833
H11   H     H_    0.784900 0.421734 0.168719 0.141502
H12   H     H_    0.885421 0.485201 0.796568 0.113328
H13   H     H_    0.774614 0.388156 0.293118 0.140048
H14   H     H_    0.441950 0.813323 0.690834 0.100216
H15   H     H_    0.845570 0.165086 0.314738 0.132457
H16   H     H_    0.833998 0.176471 0.183184 0.115190
H17   H     H_    0.358170 0.144308 0.189534 0.132111
H18   H     H_    0.354958 0.334432 0.308923 0.154618
H19   H     H_    0.348007 0.168175 0.316269 0.135204
H20   H     H_    0.127196 0.495135 0.329263 0.163665
H21   H     H_    0.067143 0.527985 0.202675 0.166056
H22   H     H_    0.031331 0.047904 0.226118 0.125791
H23   H     H_    0.870833 0.469875 0.681340 0.116913
H24   H     H_    0.584588 0.835415 0.665858 0.158083
H25   H     H_    0.275993 0.846172 0.311974 0.157110
H26   H     H_    0.105369 0.997646 0.341701 0.137311
H27   H     H_    0.872631 0.653073 0.781807 0.192509
H28   H     H_    0.823540 0.647130 0.666230 0.160149
H29   H     H_    0.690888 0.460391 0.840924 0.121431
H30   H     H_    0.518775 0.607219 0.845244 0.115840
H31   H     H_    0.482024 0.574433 0.727974 0.127453
H32   H     H_    0.519437 0.014852 0.806173 0.116313
H33   H     H_    0.266585 0.036101 0.576185 0.145908
H34   H     H_    0.460252 0.212817 0.700050 0.122407
H35   H     H_    0.171666 0.977503 0.519904 0.191044
H36   H     H_    0.180121 0.131737 0.496888 0.162473
H37   H     H_    0.949239 0.186554 0.549536 0.211125
H38   H     H_    0.037133 0.259481 0.600049 0.161300
H39   H     H_    0.125392 0.060356 0.683760 0.135834
H40   H     H_    0.032246 0.987674 0.635983 0.183997
H41   H     H_    0.083604 0.258720 0.278920 0.081381
H42   H     H_    0.368562 0.427114 0.188114 0.112865
H43   H     H_    0.381825 0.996974 0.084002 0.191345
H44   H     H_    0.330283 0.884406 0.037669 0.165503
H45   H     H_    0.476735 0.238642 0.825576 0.116380
H46   H     H_    0.247712 0.068582 0.017653 0.130332
H47   H     H_    0.086056 0.037888 0.092532 0.202294
H48   H     H_    0.157521 0.123269 0.144279 0.132972
H49   H     H_    0.320564 0.908269 0.203850 0.124249
H50   H     H_    0.276517 0.801102 0.151135 0.191331
H51   H     H_    0.025099 0.077260 0.794455 0.139018
H52   H     H_    0.886523 0.261801 0.806351 0.106287
H53   H     H_    0.848242 0.288504 0.680341 0.154124
H54   H     H_    0.241137 0.832680 0.699656 0.122291
O1    O     O_R   0.507380 0.255700 0.581440 -0.528077
O2    O     O_R   0.837170 0.593410 0.915250 -0.529096
O3    O     O_R   0.065200 0.635530 0.931570 -0.484333
O4    O     O_R   0.280320 0.527350 0.578930 -0.502681
O5    O     O_R   0.068260 0.828890 0.091840 -0.531528
O6    O     O_R   0.798870 0.057410 0.079340 -0.537055
O7    O     O_R   0.584930 0.080350 0.076780 -0.508406
O8    O     O_R   0.626960 0.809650 0.067060 -0.528859
O9    O     O_R   0.816040 0.596610 0.076510 -0.518715
O10   O     O_R   0.045610 0.638500 0.081060 -0.466731
O11   O     O_3   0.833640 0.833710 0.001100 -0.288206
O12   O     O_R   0.524480 0.695810 0.424040 -0.510419
O13   O     O_R   0.260510 0.739590 0.584590 -0.554091
O14   O     O_R   0.532300 0.695080 0.573820 -0.511343
O15   O     O_R   0.744840 0.503500 0.576370 -0.531542
O16   O     O_R   0.699120 0.276560 0.571960 -0.536484
O17   O     O_R   0.498940 0.256500 0.419860 -0.517222
O18   O     O_R   0.272500 0.528080 0.429150 -0.499439
O19   O     O_R   0.252060 0.740380 0.423010 -0.534231
O20   O     O_2   0.712977 0.902172 0.765507 -0.535424
O21   O     O_2   0.010986 0.332063 0.376003 -0.505500
O22   O     O_2   0.280946 0.364583 0.114422 -0.497291
O23   O     O_R   0.736390 0.504290 0.414790 -0.459837
O24   O     O_R   0.691300 0.277290 0.422170 -0.506287
O25   O     O_3   0.499990 0.499990 0.499980 -0.269798
O26   O     O_R   0.089400 0.825690 0.930570 -0.524346
O27   O     O_R   0.818460 0.054440 0.929850 -0.497345
O28   O     O_R   0.606060 0.077150 0.915510 -0.523392
O29   O     O_R   0.646550 0.806680 0.917570 -0.500636

loop_
_geom_bond_atom_site_label_1
_geom_bond_atom_site_label_2
_ccdc_geom_bond_type
C6    C69   S    
C21   C26   A    
C2    H34   S    
C34   C56   S    
C8    C13   A    
C56   H1    S    
C10   C15   S    
C27   C29   A    
C11   C13   A    
C41   C42   A    
C2    C7    A    
C43   C44   S    
C4    O14   A    
C15   H6    S    
C41   H20   S    
C57   H27   S    
C12   C23   S    
C45   C57   S    
C4    O15   A    
C29   C30   A    
C20   C26   A    
C30   C35   S    
C42   H21   S    
C12   H29   S    
Cr6   O11   S    
C31   C36   A    
C54   C58   S    
C12   H30   S    
C63   H42   S    
C32   H16   S    
C20   C25   S    
C10   C17   A    
Cr3   O16   S    
C29   C33   S    
Cr1   O1    S    
C40   O23   A    
C23   C57   S    
C18   C19   A    
C37   C42   A    
C61   H33   S    
C1    O13   A    
C45   H28   S    
C54   C55   S    
C21   H8    S    
C68   C69   A    
Cr3   O23   S    
Cr5   O7    S    
C5    H51   S    
C18   C51   S    
Cr1   O4    S    
C41   C46   A    
C48   O2    A    
Cr1   O17   S    
C14   H5    S    
C16   O1    A    
C24   H10   S    
C36   C52   S    
C27   C50   S    
Cr2   O12   S    
C54   H2    S    
C37   C53   S    
Cr2   O19   S    
C34   C55   S    
Cr1   O25   S    
C21   C22   A    
Cr4   O26   S    
C60   H38   S    
C63   O22   D    
C5    C68   S    
C1    O4    A    
C61   H35   S    
C11   H54   S    
C9    C10   A    
C47   C67   S    
Cr5   O8    S    
Cr6   O2    S    
C43   C64   S    
C15   H7    S    
C35   H18   S    
C38   C39   A    
C49   O3    A    
C4    C34   S    
C28   O19   A    
Cr3   O25   S    
Cr5   O29   S    
C67   C68   A    
Cr4   O6    S    
C24   C25   S    
C33   H17   S    
C8    C9    A    
C52   O24   A    
C64   H49   S    
Cr2   O25   S    
C48   O29   A    
C25   H13   S    
C57   H12   S    
C16   O16   A    
C22   H9    S    
C9    C14   S    
C62   H41   S    
C37   C38   A    
C60   H37   S    
C31   C32   A    
C33   C63   S    
C31   H15   S    
C28   C46   S    
C5    H52   S    
C66   H46   S    
C34   C45   S    
C65   H47   S    
Cr3   O24   S    
C56   H31   S    
C12   C56   S    
C39   C46   A    
C51   O8    A    
C7    C16   S    
C64   H50   S    
C66   H44   S    
Cr2   O13   S    
C66   H43   S    
C61   H36   S    
C58   H32   S    
Cr6   O3    S    
C23   C54   S    
Cr2   O14   S    
C47   O28   A    
C35   H19   S    
Cr3   O15   S    
C13   H3    S    
C11   C17   A    
C28   O18   A    
C52   O17   A    
C23   C48   S    
C62   O21   D    
Cr5   O28   S    
C27   C32   A    
C53   O10   A    
C19   C24   S    
C6    C59   S    
C49   O26   A    
C3    C67   A    
C53   O5    A    
C43   H22   S    
Cr6   O9    S    
C7    C69   A    
C44   H26   S    
C58   O20   D    
C39   C44   S    
Cr4   O11   S    
C1    C17   S    
C30   C36   A    
C50   O6    A    
C64   C65   S    
C19   C20   A    
C18   C22   A    
C45   H23   S    
C6    H53   S    
C38   C43   S    
C55   H14   S    
C50   O7    A    
C44   H25   S    
C26   C40   S    
C5    C6    S    
Cr5   O11   S    
C59   H39   S    
Cr4   O27   S    
C33   C35   S    
C2    C3    A    
C25   C62   S    
C65   H48   S    
C14   H4    S    
C3    H45   S    
C51   O9    A    
C59   C60   S    
Cr4   O5    S    
C59   H40   S    
C65   C66   S    
C47   O27   A    
C55   H24   S    
C14   C15   S    
C60   C61   S    
Cr6   O10   S    
Cr1   O18   S    
C40   O12   A    
C24   H11   S    
C8    C49   S    
