data_mof_unit_46130.cif
_audit_creation_date              2012-12-11T15:36:46-0500
_audit_creation_method            fapswitch 2.2
_symmetry_space_group_name_H-M    P1
_symmetry_Int_Tables_number       1
_space_group_crystal_system       triclinic
_cell_length_a                    8.240419
_cell_length_b                    17.335856
_cell_length_c                    18.975421
_cell_angle_alpha                 97.992413
_cell_angle_beta                  94.434636
_cell_angle_gamma                 97.317266
_cell_volume                      2650.04536857

loop_
_atom_site_label
_atom_site_type_symbol
_atom_type_description
_atom_site_fract_x
_atom_site_fract_y
_atom_site_fract_z
_atom_type_partial_charge
Ba1   Ba    Ba6+2 0.162080 0.538580 0.468810 1.663078
Ba2   Ba    Ba6+2 0.648090 0.461410 0.531130 1.642767
C1    C     C_3   0.375026 0.750850 0.216213 -0.366031
C2    C     C_3   0.398126 0.717905 0.285943 0.364749
C3    C     C_3   0.587291 0.705538 0.671274 0.309152
C4    C     C_3   0.721763 0.749440 0.727314 -0.383160
C5    C     C_3   0.897149 0.242368 0.701816 0.353162
C6    C     C_3   0.984533 0.217209 0.767285 -0.320074
C7    C     C_3   0.396372 0.286169 0.714461 0.363892
C8    C     C_3   0.425831 0.261359 0.787713 -0.346666
C9    C     C_2   0.740881 0.725163 0.490738 -0.248416
C10   C     C_3   0.666007 0.772410 0.438956 -0.040817
C11   C     C_2   0.719141 0.859414 0.459194 -0.098894
C12   C     C_3   0.937893 0.752363 0.316719 0.356008
C13   C     C_2   0.859506 0.886576 0.502189 0.006820
C14   C     C_2   0.948200 0.828041 0.535942 -0.128390
C15   C     C_1   0.885150 0.752280 0.527041 0.028515
C16   C     C_R   0.104954 0.139282 0.530741 -0.128879
C17   C     C_R   0.167661 0.219206 0.541093 0.003949
C18   C     C_R   0.922235 0.248601 0.477001 0.063256
C19   C     C_R   0.859741 0.167989 0.465415 -0.134469
C20   C     C_R   0.948446 0.112730 0.493861 0.008134
C21   C     C_2   0.926915 0.972396 0.517833 -0.038587
C22   C     C_2   0.879513 0.027563 0.479408 -0.056104
C23   C     C_3   0.975902 0.833773 0.295708 -0.368579
C24   C     C_R   0.073542 0.273718 0.517067 -0.274345
C25   C     C_R   0.613159 0.534672 0.301445 -0.285006
C26   C     C_R   0.458930 0.492644 0.276423 0.069440
C27   C     C_R   0.403936 0.484048 0.203685 -0.126535
C28   C     C_R   0.504353 0.516129 0.155129 -0.017731
C29   C     C_R   0.662821 0.555702 0.180945 -0.136385
C30   C     C_R   0.717720 0.563466 0.253762 0.007371
C31   C     C_R   0.480859 0.566430 0.037183 -0.078009
C32   C     C_R   0.427924 0.556164 0.964204 -0.077545
C33   C     C_R   0.339863 0.484257 0.929438 0.060706
C34   C     C_3   0.759847 0.367472 0.311535 0.312146
C35   C     C_R   0.304083 0.423226 0.969802 -0.078734
C36   C     C_R   0.357159 0.433492 0.042889 -0.075698
C37   C     C_R   0.446712 0.505193 0.077469 0.062937
C38   C     C_R   0.130024 0.434888 0.823053 -0.144769
C39   C     C_R   0.081294 0.428113 0.749585 0.016275
C40   C     C_R   0.344259 0.498420 0.731671 0.036375
C41   C     C_R   0.394433 0.504762 0.804560 -0.123139
C42   C     C_R   0.288311 0.472956 0.851226 -0.008369
C43   C     C_R   0.191127 0.457330 0.704054 -0.272899
C44   C     C_3   0.735656 0.347436 0.230460 -0.393110
C45   C     C_3   0.051219 0.628354 0.687031 0.333002
C46   C     C_3   0.111037 0.649566 0.766350 -0.378069
C47   C     C_3   0.247383 0.301872 0.369620 0.313476
C48   C     C_3   0.219600 0.213180 0.346745 -0.389463
H1    H     H_    0.317446 0.660697 0.281390 0.094664
H2    H     H_    0.629383 0.300405 0.214128 0.124465
H3    H     H_    0.711951 0.399938 0.206275 0.066028
H4    H     H_    0.847959 0.326895 0.210074 0.125363
H5    H     H_    0.145875 0.600613 0.658529 0.017072
H6    H     H_    0.936711 0.586022 0.680936 0.050027
H7    H     H_    0.229911 0.689029 0.773799 0.173586
H8    H     H_    0.126262 0.595919 0.790074 0.051395
H9    H     H_    0.021810 0.680171 0.796191 0.103983
H10   H     H_    0.129492 0.321772 0.382350 0.006369
H11   H     H_    0.337522 0.315839 0.417752 0.070003
H12   H     H_    0.245711 0.760773 0.205370 0.152453
H13   H     H_    0.125838 0.197368 0.299927 0.122556
H14   H     H_    0.176110 0.182977 0.390889 0.063630
H15   H     H_    0.336473 0.192535 0.332139 0.128559
H16   H     H_    0.528149 0.707526 0.293117 -0.077549
H17   H     H_    0.406212 0.708572 0.171431 0.070105
H18   H     H_    0.643953 0.670579 0.628508 -0.051949
H19   H     H_    0.780939 0.706187 0.754120 0.121854
H20   H     H_    0.814583 0.786313 0.702361 0.090575
H21   H     H_    0.668757 0.788048 0.768675 0.124732
H22   H     H_    0.457115 0.807484 0.219333 0.104979
H23   H     H_    0.927792 0.877661 0.334068 0.067918
H24   H     H_    0.991595 0.266324 0.668786 -0.139296
H25   H     H_    0.893357 0.192406 0.801265 0.136565
H26   H     H_    0.063731 0.172175 0.750168 0.099538
H27   H     H_    0.062699 0.268579 0.799800 0.066265
H28   H     H_    0.265664 0.294658 0.706027 -0.065440
H29   H     H_    0.475541 0.342915 0.714183 0.091902
H30   H     H_    0.389763 0.305845 0.829353 0.059796
H31   H     H_    0.557511 0.256290 0.799816 0.158050
H32   H     H_    0.999140 0.753464 0.371266 0.067015
H33   H     H_    0.352174 0.203539 0.789323 0.117183
H34   H     H_    0.785764 0.010799 0.434798 0.061487
H35   H     H_    0.062315 0.848473 0.569731 0.114469
H36   H     H_    0.181951 0.098383 0.548621 0.083074
H37   H     H_    0.020616 0.989796 0.562533 0.089179
H38   H     H_    0.646746 0.898209 0.434686 0.069141
H39   H     H_    0.742815 0.148342 0.433871 0.086111
H40   H     H_    0.680106 0.666469 0.493460 0.070502
H41   H     H_    0.123709 0.335391 0.524926 0.070598
H42   H     H_    0.513954 0.536920 0.825024 0.077279
H43   H     H_    0.802897 0.739009 0.316770 -0.063943
H44   H     H_    0.454559 0.605025 0.935092 0.063073
H45   H     H_    0.546933 0.622763 0.062336 0.061865
H46   H     H_    0.283628 0.451621 0.185084 0.084544
H47   H     H_    0.238030 0.366939 0.944501 0.061274
H48   H     H_    0.330796 0.384638 0.072024 0.060631
H49   H     H_    0.042936 0.413575 0.858234 0.071404
H50   H     H_    0.745691 0.577547 0.144356 0.077445
H51   H     H_    0.152041 0.454186 0.647829 0.059134
H52   H     H_    0.656725 0.539928 0.357420 0.068448
H53   H     H_    0.110697 0.850397 0.296531 0.148577
H54   H     H_    0.916881 0.834456 0.241202 0.110399
H55   H     H_    0.645475 0.385235 0.331166 0.006238
H56   H     H_    0.862139 0.416725 0.326303 0.065250
O1    O     O_2   0.166667 0.691630 0.546720 -0.417246
O2    O     O_3   0.306063 0.337300 0.312970 -0.635872
O3    O     O_3   0.995869 0.696864 0.267275 -0.599403
O4    O     O_2   0.643630 0.308330 0.453260 -0.459419
O5    O     O_3   0.916470 0.406310 0.458240 -0.501757
O6    O     O_3   0.419940 0.355340 0.582140 -0.492043
O7    O     O_3   0.795848 0.300612 0.339723 -0.635705
O8    O     O_3   0.383960 0.539280 0.585630 -0.467431
O9    O     O_3   0.845010 0.394580 0.619730 -0.469918
O10   O     O_2   0.749536 0.443867 0.746998 -0.494064
O11   O     O_3   0.791109 0.296356 0.725172 -0.611560
O12   O     O_3   0.893830 0.593690 0.541700 -0.503493
O13   O     O_3   0.426330 0.460710 0.414310 -0.490401
O14   O     O_2   0.638540 0.536570 0.671920 -0.465306
O15   O     O_3   0.474691 0.659887 0.706346 -0.635265
O16   O     O_2   0.499361 0.217202 0.527624 -0.486275
O17   O     O_3   0.435149 0.228040 0.661567 -0.582758
O18   O     O_3   0.390350 0.644650 0.417800 -0.487653
O19   O     O_2   0.345279 0.785645 0.482296 -0.463047
O20   O     O_3   0.021540 0.697045 0.660309 -0.608749
O21   O     O_3   0.356819 0.771063 0.342712 -0.598750
O22   O     O_2   0.171750 0.463380 0.328050 -0.463909
O23   O     O_3   0.965290 0.605410 0.380210 -0.490326
O24   O     O_2   0.050303 0.551347 0.251490 -0.488233
P1    P     P_3+3 0.992230 0.679190 0.566750 1.021274
P2    P     P_3+3 0.339610 0.439630 0.337240 0.982573
P3    P     P_3+3 0.931450 0.603082 0.287602 0.940220
P4    P     P_3+3 0.818060 0.320800 0.433200 0.982684
P5    P     P_3+3 0.868411 0.391519 0.711738 0.953867
P6    P     P_3+3 0.438572 0.745767 0.422826 0.964541
P7    P     P_3+3 0.460455 0.558720 0.675541 0.959006
P8    P     P_3+3 0.380784 0.253599 0.577684 0.959392
C49   C     C_2   0.502879 0.765566 0.638377 0.568908
H57   H     H_    0.559606 0.794813 0.597739 -0.080628
O25   O     O_2   0.375306 0.784856 0.659245 -0.536508
C50   C     C_2   0.795966 0.173299 0.654491 0.547572
H58   H     H_    0.736448 0.182438 0.604138 0.034733
O26   O     O_2   0.779958 0.107299 0.671038 -0.593958

loop_
_geom_bond_atom_site_label_1
_geom_bond_atom_site_label_2
_ccdc_geom_bond_type
C12   O3    S    
C44   H2    S    
C15   P1    S    
C48   H14   S    
C5    O11   S    
Ba1   O22   S    
C36   H48   S    
Ba1   P2    S    
C38   H49   S    
C35   H47   S    
Ba2   O12   S    
C46   H7    S    
O10   P5    D    
C19   H39   S    
O17   P8    S    
Ba2   O6    S    
C16   H36   S    
C47   H10   S    
C18   C24   A    
C46   H9    S    
C26   C27   A    
C33   C35   A    
C35   C36   A    
C16   C17   A    
Ba1   O23   S    
Ba1   O13   S    
C28   C29   A    
C13   C14   S    
O22   P2    D    
C8    H33   S    
C6    H26   S    
C44   H3    S    
C32   C33   A    
C7    H29   S    
O8    P7    S    
O15   P7    S    
C17   C24   A    
O12   P1    S    
Ba2   O4    S    
C45   C46   S    
C14   C15   D    
C21   C22   D    
C34   C44   S    
C47   O2    S    
C7    C8    S    
C12   H43   S    
C23   H23   S    
Ba1   O12   S    
C13   C21   S    
C34   H55   S    
C21   H37   S    
C19   C20   A    
C40   P7    S    
C48   H13   S    
C3    H18   S    
C34   O7    S    
C31   H45   S    
C3    C49   S    
C5    H24   S    
C4    H21   S    
C49   H57   S    
Ba2   O5    S    
C47   H11   S    
O18   P6    S    
C2    H1    S    
O3    P3    S    
O6    P8    S    
C5    C6    S    
C36   C37   A    
O21   P6    S    
O16   P8    D    
O1    P1    D    
Ba2   O14   S    
C23   H53   S    
C6    H27   S    
C24   H41   S    
C34   H56   S    
C6    H25   S    
C26   P2    S    
C40   C43   A    
C41   C42   A    
C27   C28   A    
Ba2   O9    S    
C29   C30   A    
C9    C10   S    
C44   H4    S    
O13   P2    S    
O5    P4    S    
C31   C37   A    
C29   H50   S    
C49   O25   D    
C33   C42   S    
Ba2   O8    S    
C43   H51   S    
Ba1   O1    S    
O23   P3    S    
O19   P6    D    
C38   C39   A    
O7    P4    S    
C11   C13   D    
C10   P6    S    
C14   H35   S    
C20   C22   S    
O4    P4    D    
O24   P3    D    
Ba1   O8    S    
C12   H32   S    
C1    C2    S    
O11   P5    S    
C39   P5    S    
C45   O20   S    
C45   H5    S    
C1    H12   S    
C4    H20   S    
C9    C15   D    
C3    O15   S    
C8    H30   S    
C25   H52   S    
C2    O21   S    
C25   C30   A    
C16   C20   A    
C1    H17   S    
C32   H44   S    
Ba1   P1    S    
C27   H46   S    
Ba2   O13   S    
Ba2   P4    S    
C23   H54   S    
C46   H8    S    
C30   P3    S    
C8    H31   S    
C41   H42   S    
C1    H22   S    
C22   H34   S    
Ba1   O18   S    
Ba1   O5    S    
C2    H16   S    
C4    H19   S    
C9    H40   S    
C3    C4    S    
O9    P5    S    
O20   P1    S    
C17   P8    S    
Ba1   Ba2   S    
C11   H38   S    
C7    O17   S    
C31   C32   A    
C28   C37   S    
C50   O26   D    
C7    H28   S    
C12   C23   S    
C48   H15   S    
O2    P2    S    
C38   C42   A    
C10   C11   S    
C18   C19   A    
C47   C48   S    
C40   C41   A    
C25   C26   A    
C39   C43   A    
C50   H58   S    
O14   P7    D    
C18   P4    S    
C5    C50   S    
C45   H6    S    
