data_mof_unit_34784.cif
_audit_creation_date              2013-03-05T15:45:13-0500
_audit_creation_method            fapswitch 2.2
_symmetry_space_group_name_H-M    P1
_symmetry_Int_Tables_number       1
_space_group_crystal_system       triclinic
_cell_length_a                    16.969345
_cell_length_b                    7.015562
_cell_length_c                    16.737881
_cell_angle_alpha                 90.001189
_cell_angle_beta                  100.927802
_cell_angle_gamma                 89.998563
_cell_volume                      1956.50343906

loop_
_atom_site_label
_atom_site_type_symbol
_atom_site_description
_atom_site_fract_x
_atom_site_fract_y
_atom_site_fract_z
_atom_type_partial_charge
O1    O     O_R   0.579510 0.506290 0.439030 -0.548933
O2    O     O_R   0.420490 0.006290 0.560970 -0.548790
O3    O     O_R   0.412540 0.170090 0.405290 -0.579329
O4    O     O_R   0.587460 0.670090 0.594710 -0.579334
C1    C     C_R   0.385517 0.345919 0.381435 0.923701
C2    C     C_R   0.614484 0.845919 0.618564 0.923960
O5    O     O_R   0.578390 0.176230 0.429330 -0.593998
O6    O     O_R   0.421610 0.676230 0.570670 -0.594123
O7    O     O_R   0.587530 0.011250 0.585190 -0.596451
O8    O     O_R   0.412470 0.511250 0.414810 -0.596600
C3    C     C_R   0.604271 0.344236 0.412990 1.039975
C4    C     C_R   0.395738 0.844245 0.587019 1.040371
O9    O     O_3   0.502800 0.340940 0.551110 -0.256225
O10   O     O_3   0.497200 0.840940 0.448890 -0.256311
V1    V     V_3+5 0.499480 0.064020 0.490520 1.280489
V2    V     V_3+5 0.500520 0.564020 0.509480 1.280394
C5    C     C_R   0.167320 0.924270 0.862310 -0.140431
C6    C     C_R   0.832698 0.424302 0.137721 -0.140470
C7    C     C_R   0.333854 0.844612 0.639565 -0.327724
C8    C     C_R   0.666177 0.344581 0.360470 -0.327765
C9    C     C_R   0.220670 0.677917 0.680562 0.341950
C10   C     C_R   0.779335 0.177823 0.319437 0.341680
C11   C     C_R   0.277485 0.695736 0.630125 -0.167259
C12   C     C_R   0.722530 0.195663 0.369889 -0.167120
C13   C     C_R   0.332600 0.981761 0.701057 0.324016
C14   C     C_R   0.667454 0.481755 0.299007 0.324154
C15   C     C_R   0.276615 0.963704 0.754038 0.020067
C16   C     C_R   0.723437 0.463726 0.246028 0.020155
C17   C     C_R   0.221044 0.809378 0.744751 -0.003666
C18   C     C_R   0.778973 0.309331 0.255268 -0.003737
C19   C     C_R   0.168344 0.788882 0.800790 -0.143314
C20   C     C_R   0.831651 0.288833 0.199206 -0.143276
C21   C     C_R   0.222074 0.076065 0.870159 -0.100370
C22   C     C_R   0.777996 0.576211 0.129944 -0.100437
C23   C     C_R   0.276487 0.094239 0.817851 -0.036976
C24   C     C_R   0.723604 0.594395 0.182277 -0.036826
H1    H     H_    0.126739 0.670946 0.796306 0.164808
H2    H     H_    0.873223 0.170830 0.203645 0.164810
H3    H     H_    0.318118 0.212452 0.827811 0.167365
H4    H     H_    0.682026 0.712735 0.172403 0.167188
C25   C     C_3   0.759540 0.727733 0.824414 -0.231773
C26   C     C_3   0.240461 0.227722 0.175586 -0.231789
H5    H     H_    0.741807 0.727976 0.884936 0.196947
H6    H     H_    0.258194 0.227950 0.115063 0.196924
C27   C     C_3   0.684084 0.711329 0.756108 -0.294747
C28   C     C_3   0.315918 0.211319 0.243892 -0.294731
H7    H     H_    0.629324 0.730150 0.782821 0.193989
H8    H     H_    0.370677 0.230130 0.217178 0.194016
H9    H     H_    0.880452 0.754306 0.735885 0.222260
H10   H     H_    0.119548 0.254337 0.264115 0.222264
C29   C     C_3   0.839976 0.880225 0.731419 -0.503070
C30   C     C_3   0.160027 0.380247 0.268579 -0.503080
C31   C     C_3   0.756016 0.088788 0.804343 0.240368
C32   C     C_3   0.243990 0.588779 0.195653 0.240460
C33   C     C_3   0.810742 0.908068 0.813254 -0.153489
C34   C     C_3   0.189261 0.408069 0.186743 -0.153514
H11   H     H_    0.792183 0.210515 0.788029 0.101465
H12   H     H_    0.207824 0.710518 0.211963 0.101447
C35   C     C_3   0.685658 0.865089 0.689785 -0.150081
C36   C     C_3   0.314345 0.365089 0.310214 -0.149986
C37   C     C_3   0.767231 0.857300 0.659083 0.278605
C38   C     C_3   0.232771 0.357318 0.340915 0.278643
C39   C     C_3   0.683039 0.062461 0.733220 -0.466743
C40   C     C_3   0.316966 0.562454 0.266778 -0.466861
H13   H     H_    0.683993 0.180927 0.689164 0.182629
H14   H     H_    0.316008 0.680926 0.310833 0.182619
H15   H     H_    0.768276 0.981649 0.617788 0.088277
H16   H     H_    0.231726 0.481671 0.382210 0.088278
O11   O     O_R   0.087500 0.266000 0.085220 -0.601925
O12   O     O_R   0.912500 0.766000 0.914780 -0.601920
O13   O     O_R   0.921600 0.589950 0.070670 -0.602974
O14   O     O_R   0.078400 0.089950 0.929330 -0.602964
C41   C     C_R   0.895014 0.422798 0.086154 0.985703
C42   C     C_R   0.104988 0.922792 0.913853 0.985676
O15   O     O_R   0.087460 0.596020 0.094710 -0.575427
O16   O     O_R   0.912540 0.096020 0.905290 -0.575420
O17   O     O_R   0.079520 0.760970 0.939020 -0.577864
O18   O     O_R   0.920480 0.260970 0.060980 -0.577862
C43   C     C_R   0.117183 0.426208 0.116799 0.932449
C44   C     C_R   0.882818 0.926208 0.883199 0.932453
O19   O     O_3   0.997180 0.425140 0.948910 -0.273295
O20   O     O_3   0.002820 0.925140 0.051090 -0.273311
V3    V     V_3+5 0.000520 0.702080 0.009480 1.218149
V4    V     V_3+5 0.999480 0.202080 0.990520 1.218153
H17   H     H_    0.680285 0.565546 0.729837 0.196640
H18   H     H_    0.319718 0.065540 0.270164 0.196627
N1    N     N_R   0.774795 0.683594 0.612118 0.244678
O21   O     O_R   0.773819 0.695580 0.534359 -0.349120
O22   O     O_R   0.785763 0.517877 0.647436 -0.428301
N2    N     N_R   0.225206 0.183618 0.387880 0.244676
O23   O     O_R   0.226180 0.195611 0.465638 -0.349186
O24   O     O_R   0.214236 0.017899 0.352562 -0.428297
N3    N     N_R   0.729591 0.137777 0.880480 0.238581
O25   O     O_R   0.677893 0.032354 0.908543 -0.384964
O26   O     O_R   0.753771 0.295887 0.917838 -0.432501
N4    N     N_R   0.270418 0.637746 0.119516 0.238590
O27   O     O_R   0.322118 0.532308 0.091458 -0.384863
O28   O     O_R   0.246240 0.795851 0.082154 -0.432522
H19   H     H_    0.625571 0.076368 0.755331 0.249803
H20   H     H_    0.374439 0.576354 0.244674 0.249756
H21   H     H_    0.876632 0.005237 0.719879 0.172868
H22   H     H_    0.123372 0.505270 0.280117 0.172875
H23   H     H_    0.222806 0.182163 0.917362 0.141788
H24   H     H_    0.777291 0.682401 0.082785 0.141796
N5    N     N_R   0.162665 0.526671 0.664697 0.236820
O29   O     O_R   0.086468 0.565030 0.655759 -0.355364
O30   O     O_R   0.184398 0.358767 0.643900 -0.333786
N6    N     N_R   0.837324 0.026531 0.335275 0.236813
O31   O     O_R   0.913523 0.064825 0.344172 -0.355366
O32   O     O_R   0.815585 0.858655 0.356092 -0.333872
H25   H     H_    0.276894 0.592538 0.581799 0.198241
H26   H     H_    0.723110 0.092440 0.418202 0.198366
N7    N     N_R   0.391037 0.131841 0.712836 0.234807
O33   O     O_R   0.466869 0.091771 0.734875 -0.423574
O34   O     O_R   0.368842 0.308001 0.698732 -0.380000
N8    N     N_R   0.609003 0.631782 0.287220 0.234621
O35   O     O_R   0.631119 0.807851 0.301805 -0.379774
O36   O     O_R   0.533223 0.591718 0.264520 -0.423353
H27   H     H_    0.796489 0.597194 0.822816 0.195965
H28   H     H_    0.203512 0.097190 0.177186 0.195960

loop_
_geom_bond_atom_site_label_1
_geom_bond_atom_site_label_2
_geom_bond_distance
_ccdc_geom_bond_type
N1    O21   1.301195 A    
C39   H13   1.113249 S    
N3    O25   1.301364 A    
C33   C44   1.529657 S    
C15   C17   1.424815 A    
C27   H17   1.110291 S    
O1    C3    1.314700 A    
O2    C4    1.314686 A    
O16   V4    1.991820 S    
C2    O7    1.330315 A    
N6    O31   1.301280 A    
O5    C3    1.304792 A    
N5    O30   1.301286 A    
C30   H22   1.113101 S    
C34   C43   1.529664 S    
C26   H6    1.110101 S    
O17   V3    1.989522 S    
N8    O35   1.300582 A    
C36   C38   1.566173 S    
C26   C28   1.550771 S    
C27   H7    1.112815 S    
C25   C33   1.565892 S    
C39   H19   1.110999 S    
C37   N1    1.468918 S    
C26   C34   1.565889 S    
C8    C12   1.404850 A    
N6    O32   1.301286 A    
H9    C29   1.112766 S    
C42   O17   1.312297 A    
N4    O28   1.300945 A    
H10   C30   1.112766 S    
C41   O18   1.312331 A    
C20   H2    1.081026 S    
C32   N4    1.469641 S    
O5    V1    1.995443 S    
O6    V2    1.995400 S    
C25   H5    1.110100 S    
C5    C21   1.402986 A    
O19   V3    2.187233 S    
O13   V3    1.995351 S    
C31   C33   1.561899 S    
C28   H8    1.112815 S    
C3    C8    1.492147 S    
C35   C37   1.566172 S    
O12   C44   1.302088 A    
C24   H4    1.081728 S    
O14   C42   1.300076 A    
O13   C41   1.300077 A    
C31   H11   1.115392 S    
C7    C11   1.404838 A    
C15   C23   1.407229 A    
C9    C17   1.415028 A    
C22   H24   1.083813 S    
C19   H1    1.081024 S    
C40   H14   1.113251 S    
O4    V2    1.991846 S    
C23   H3    1.081678 S    
O12   V3    2.011687 S    
C13   N7    1.434123 S    
C37   H15   1.115243 S    
N2    O24   1.301552 A    
O6    C4    1.304805 A    
N4    O27   1.301365 A    
O1    V2    1.987569 S    
C25   H27   1.113045 S    
O2    V1    1.987590 S    
C6    C22   1.403046 A    
C16   C24   1.407181 A    
O14   V4    1.995309 S    
O4    C2    1.349789 A    
C6    C41   1.486406 S    
O20   V4    2.187268 S    
C9    C11   1.402290 A    
C5    C42   1.486334 S    
C5    C19   1.403399 A    
C10   C12   1.402346 A    
O11   C43   1.302089 A    
C6    C20   1.403435 A    
O19   V4    1.710323 S    
O3    V1    1.991840 S    
N7    O33   1.300388 A    
C32   H12   1.115392 S    
C27   C35   1.551761 S    
C10   C18   1.415060 A    
C1    C36   1.533601 S    
C28   C36   1.551765 S    
C21   H23   1.083814 S    
C14   C16   1.422745 A    
C2    C35   1.533607 S    
O16   C44   1.318959 A    
O3    C1    1.349782 A    
C32   C34   1.561910 S    
C13   C15   1.422837 A    
C11   H25   1.084176 S    
N5    O29   1.301279 A    
C35   C39   1.568452 S    
C38   H16   1.115243 S    
C36   C40   1.568449 S    
C16   C18   1.424786 A    
O7    V1    1.995686 S    
C1    O8    1.330313 A    
C17   C19   1.420644 A    
O11   V4    2.011690 S    
O8    V2    1.995688 S    
C18   C20   1.420661 A    
C29   C37   1.564916 S    
C31   C39   1.557533 S    
O15   V3    1.991813 S    
N2    O23   1.301195 A    
C8    C14   1.411897 A    
C10   N6    1.437431 S    
C38   N2    1.468920 S    
C4    C7    1.492148 S    
C21   C23   1.393537 A    
C22   C24   1.393559 A    
N8    O36   1.300676 A    
C29   C33   1.555029 S    
C7    C13   1.412025 A    
C14   N8    1.433985 S    
C12   H26   1.084173 S    
O18   V4    1.989496 S    
C40   H20   1.111018 S    
C32   C40   1.557544 S    
N3    O26   1.300944 A    
O20   V3    1.710298 S    
O9    V2    1.710606 S    
C26   H28   1.113046 S    
N1    O22   1.301552 A    
C25   C27   1.550769 S    
O10   V1    1.710581 S    
C30   C38   1.564912 S    
C28   H18   1.110291 S    
O15   C43   1.318955 A    
C31   N3    1.469644 S    
C9    N5    1.437424 S    
C29   H21   1.113101 S    
C30   C34   1.555028 S    
N7    O34   1.300470 A    
