data_mof_unit_5016.cif
_audit_creation_date              2013-03-05T16:41:04-0500
_audit_creation_method            fapswitch 2.2
_symmetry_space_group_name_H-M    P1
_symmetry_Int_Tables_number       1
_space_group_crystal_system       triclinic
_cell_length_a                    8.558701
_cell_length_b                    10.705049
_cell_length_c                    9.892505
_cell_angle_alpha                 89.512117
_cell_angle_beta                  97.897756
_cell_angle_gamma                 90.907724
_cell_volume                      897.636249995

loop_
_atom_site_label
_atom_site_type_symbol
_atom_site_description
_atom_site_fract_x
_atom_site_fract_y
_atom_site_fract_z
_atom_type_partial_charge
O1    O     O_R   0.500020 0.316790 0.614690 -0.603142
O2    O     O_R   0.500000 0.316760 0.385350 -0.643877
C1    C     C_R   0.503937 0.260005 0.500916 0.937189
O3    O     O_R   0.271760 0.500010 0.587850 -0.603658
O4    O     O_R   0.271740 0.499970 0.358500 -0.589625
C2    C     C_R   0.201697 0.502926 0.465311 0.994873
Zn1   Zn    Zn3+2 0.500010 0.500020 0.653130 0.964469
Zn2   Zn    Zn3+2 0.499990 0.499980 0.346870 0.974385
O5    O     O_R   0.500000 0.683240 0.614650 -0.625469
O6    O     O_R   0.499980 0.683210 0.385310 -0.619609
O7    O     O_R   0.728260 0.500030 0.641500 -0.622315
O8    O     O_R   0.728240 0.499990 0.412150 -0.637890
C3    C     C_R   0.506273 0.739776 0.500208 0.870264
C4    C     C_R   0.797891 0.509648 0.534528 0.949884
C5    C     C_2   0.037060 0.494912 0.451014 -0.298614
H1    H     H_    0.980518 0.435392 0.369219 0.176786
C6    C     C_2   0.959732 0.541640 0.547408 -0.034152
C7    C     C_R   0.534113 0.061410 0.625831 0.068467
C8    C     C_R   0.525213 0.128403 0.503554 -0.066836
C9    C     C_R   0.548484 0.066144 0.383460 -0.196143
H2    H     H_    0.554814 0.115842 0.288565 0.174612
C10   C     C_R   0.550831 0.936887 0.382719 -0.182695
H3    H     H_    0.556285 0.889528 0.287169 0.176494
C11   C     C_R   0.532527 0.871005 0.502729 -0.066987
C12   C     C_R   0.542348 0.934463 0.625582 0.023040
C13   C     C_3   0.455504 0.917264 0.745549 -0.470994
C14   C     C_3   0.443487 0.059362 0.746610 0.424423
H4    H     H_    0.340577 0.867265 0.718533 0.215380
H5    H     H_    0.532024 0.876923 0.834731 0.198228
C15   C     C_R   0.361044 0.494650 0.054363 0.196126
N1    N     N_R   0.498950 0.499140 0.142680 -0.144166
C16   C     C_R   0.635828 0.517785 0.087815 -0.075375
H6    H     H_    0.745853 0.530588 0.154440 0.210145
C17   C     C_R   0.635828 0.517937 0.944171 -0.066083
H7    H     H_    0.745993 0.530836 0.903593 0.196926
N2    N     N_R   0.498950 0.499180 0.857030 -0.121332
C18   C     C_R   0.361586 0.493938 0.912131 0.067507
C19   C     C_3   0.238826 0.393116 0.890188 -0.469885
C20   C     C_3   0.233614 0.394682 0.043520 0.371050
H8    H     H_    0.127728 0.423588 0.828615 0.220191
H9    H     H_    0.286271 0.306764 0.852289 0.240626
N3    N     N_R   0.081599 0.439452 0.075001 0.212374
O9    O     O_R   0.958916 0.364964 0.059212 -0.423663
O10   O     O_R   0.064349 0.555224 0.108764 -0.434975
C21   C     C_3   0.280646 0.270903 0.115886 -0.785953
H10   H     H_    0.407074 0.251462 0.113016 0.207909
H11   H     H_    0.257665 0.274215 0.223324 0.262464
H12   H     H_    0.208495 0.192964 0.065432 0.272440
C22   C     C_3   0.022732 0.645799 0.644382 -0.815653
H13   H     H_    0.925679 0.690109 0.689737 0.237360
H14   H     H_    0.108720 0.611592 0.729521 0.260573
H15   H     H_    0.079967 0.719778 0.587940 0.238495
N4    N     N_R   0.278163 0.098368 0.718561 0.214947
O11   O     O_R   0.183101 0.072845 0.807362 -0.402270
O12   O     O_R   0.220881 0.148780 0.602504 -0.423633
C23   C     C_3   0.534691 0.119829 0.874478 -0.880889
H16   H     H_    0.658617 0.087389 0.891802 0.250265
H17   H     H_    0.537189 0.222906 0.863547 0.255272
H18   H     H_    0.477849 0.093834 0.965170 0.242720

loop_
_geom_bond_atom_site_label_1
_geom_bond_atom_site_label_2
_geom_bond_distance
_ccdc_geom_bond_type
O4    Zn2   1.972625 S    
C19   H8    1.108523 S    
C11   C12   1.389151 A    
C14   N4    1.470473 S    
C1    C8    1.422945 S    
C18   C19   1.490406 S    
Zn1   N2    2.018290 S    
C13   H4    1.113079 S    
N1    C16   1.368321 A    
C23   H18   1.109255 S    
C20   C21   1.533578 S    
Zn2   O8    1.971444 S    
C22   H15   1.110965 S    
C16   H6    1.080192 S    
N4    O12   1.301102 A    
O2    C1    1.286666 A    
C2    C5    1.398020 S    
O1    Zn1   2.001188 S    
N4    O11   1.301386 A    
C23   H16   1.111594 S    
Zn1   O7    1.972625 S    
C4    C6    1.410451 S    
C13   C14   1.526492 S    
O4    C2    1.285335 A    
C7    C12   1.361954 A    
N3    O10   1.302197 A    
C19   H9    1.104354 S    
O3    Zn1   1.971445 S    
C5    C6    1.337759 D    
Zn2   O6    2.001187 S    
N2    C18   1.362327 A    
C23   H17   1.107968 S    
C15   C20   1.509660 S    
C22   H13   1.111218 S    
C20   N3    1.467332 S    
C17   N2    1.368875 A    
C21   H11   1.108091 S    
C15   N1    1.369035 A    
O7    C4    1.286507 A    
C10   C11   1.401690 A    
N3    O9    1.301262 A    
C5    H1    1.089176 S    
O8    C4    1.278095 A    
C19   C20   1.523850 S    
C9    H2    1.082493 S    
C15   C18   1.407762 A    
C13   H5    1.112401 S    
O3    C2    1.276798 A    
C17   H7    1.080802 S    
C21   H12   1.110244 S    
C6    C22   1.520301 S    
Zn1   O5    1.994792 S    
O5    C3    1.286421 A    
C14   C23   1.534582 S    
C7    C8    1.394615 A    
C22   H14   1.103647 S    
C12   C13   1.493023 S    
C21   H10   1.109348 S    
Zn2   N1    2.018843 S    
C10   H3    1.083376 S    
O2    Zn2   1.994791 S    
C7    C14   1.511080 S    
C8    C9    1.406419 A    
C3    C11   1.419033 S    
C9    C10   1.384264 A    
O1    C1    1.288439 A    
O6    C3    1.286611 A    
C16   C17   1.420988 A    
