data_mof_unit_62633.cif
_audit_creation_date              2013-03-05T15:43:16-0500
_audit_creation_method            fapswitch 2.2
_symmetry_space_group_name_H-M    P1
_symmetry_Int_Tables_number       1
_space_group_crystal_system       triclinic
_cell_length_a                    18.514795
_cell_length_b                    18.515981
_cell_length_c                    59.900429
_cell_angle_alpha                 90.021598
_cell_angle_beta                  89.996777
_cell_angle_gamma                 89.974463
_cell_volume                      20535.0371254

loop_
_atom_site_label
_atom_site_type_symbol
_atom_site_description
_atom_site_fract_x
_atom_site_fract_y
_atom_site_fract_z
_atom_type_partial_charge
Zn1   Zn    Zn3+2 0.585740 0.000000 0.981400 0.993341
Zn2   Zn    Zn3+2 1.000000 0.585740 0.981400 0.993203
Zn3   Zn    Zn3+2 0.414260 0.000000 0.981400 0.993048
Zn4   Zn    Zn3+2 0.000000 0.414260 0.981400 0.993153
Zn5   Zn    Zn3+2 0.085740 0.500000 0.481400 0.993163
Zn6   Zn    Zn3+2 0.500000 0.085740 0.481400 0.993464
Zn7   Zn    Zn3+2 0.914260 0.500000 0.481400 0.992815
Zn8   Zn    Zn3+2 0.500000 0.914260 0.481400 0.993476
Zn9   Zn    Zn3+2 0.500000 0.914160 0.018820 0.971419
Zn10  Zn    Zn3+2 0.085840 0.500000 0.018820 0.971497
Zn11  Zn    Zn3+2 0.500000 0.085840 0.018820 0.971490
Zn12  Zn    Zn3+2 0.914160 0.500000 0.018820 0.971387
Zn13  Zn    Zn3+2 1.000000 0.414160 0.518820 0.971537
Zn14  Zn    Zn3+2 0.585840 0.000000 0.518820 0.971380
Zn15  Zn    Zn3+2 1.000000 0.585840 0.518820 0.971462
Zn16  Zn    Zn3+2 0.414160 0.000000 0.518820 0.971454
O1    O     O_3   0.500000 0.000000 0.000110 -0.500161
O2    O     O_3   1.000000 0.500000 0.000110 -0.500245
O3    O     O_3   0.000000 0.500000 0.500110 -0.500239
O4    O     O_3   0.500000 0.000000 0.500110 -0.500382
O5    O     O_R   0.500000 0.060060 0.050050 -0.643397
O6    O     O_R   0.939940 0.500000 0.050050 -0.643074
O7    O     O_R   0.500000 0.939940 0.050050 -0.643028
O8    O     O_R   0.060060 0.500000 0.050050 -0.643337
O9    O     O_R   0.000000 0.560060 0.550050 -0.644071
O10   O     O_R   0.439940 0.000000 0.550050 -0.642982
O11   O     O_R   0.000000 0.439940 0.550050 -0.642455
O12   O     O_R   0.560060 0.000000 0.550050 -0.643032
O13   O     O_R   0.559990 1.000000 0.950170 -0.602027
O14   O     O_R   0.000000 0.559990 0.950170 -0.601752
O15   O     O_R   0.440010 1.000000 0.950170 -0.601936
O16   O     O_R   0.000000 0.440010 0.950170 -0.601582
O17   O     O_R   0.059990 0.500000 0.450170 -0.602019
O18   O     O_R   0.500000 0.059990 0.450170 -0.602526
O19   O     O_R   0.940010 0.500000 0.450170 -0.602194
O20   O     O_R   0.500000 0.940010 0.450170 -0.602120
O21   O     O_R   0.584430 0.855390 0.013200 -0.644012
O22   O     O_R   0.144610 0.584430 0.013200 -0.644089
O23   O     O_R   0.415570 0.144610 0.013200 -0.643719
O24   O     O_R   0.855390 0.415570 0.013200 -0.643986
O25   O     O_R   0.415570 0.855390 0.013200 -0.643962
O26   O     O_R   0.855390 0.584430 0.013200 -0.643770
O27   O     O_R   0.584430 0.144610 0.013200 -0.644119
O28   O     O_R   0.144610 0.415570 0.013200 -0.643370
O29   O     O_R   0.084430 0.355390 0.513200 -0.643484
O30   O     O_R   0.644610 0.084430 0.513200 -0.644619
O31   O     O_R   0.915570 0.644610 0.513200 -0.643224
O32   O     O_R   0.355390 0.915570 0.513200 -0.644085
O33   O     O_R   0.915570 0.355390 0.513200 -0.644310
O34   O     O_R   0.355390 0.084430 0.513200 -0.643593
O35   O     O_R   0.084430 0.644610 0.513200 -0.644114
O36   O     O_R   0.644610 0.915570 0.513200 -0.643129
O37   O     O_R   0.355260 0.084530 0.987020 -0.636910
O38   O     O_R   0.915470 0.355260 0.987020 -0.637357
O39   O     O_R   0.644740 0.915470 0.987020 -0.636621
O40   O     O_R   0.084530 0.644740 0.987020 -0.636962
O41   O     O_R   0.644740 0.084530 0.987020 -0.636666
O42   O     O_R   0.084530 0.355260 0.987020 -0.636632
O43   O     O_R   0.355260 0.915470 0.987020 -0.637184
O44   O     O_R   0.915470 0.644740 0.987020 -0.636287
O45   O     O_R   0.855260 0.584530 0.487020 -0.637078
O46   O     O_R   0.415470 0.855260 0.487020 -0.636388
O47   O     O_R   0.144740 0.415470 0.487020 -0.636794
O48   O     O_R   0.584530 0.144740 0.487020 -0.635622
O49   O     O_R   0.144740 0.584530 0.487020 -0.636689
O50   O     O_R   0.584530 0.855260 0.487020 -0.637372
O51   O     O_R   0.855260 0.415470 0.487020 -0.636863
O52   O     O_R   0.415470 0.144740 0.487020 -0.637046
C1    C     C_R   0.500001 0.000012 0.060767 0.803592
C2    C     C_R   0.999998 0.500000 0.060766 0.802935
C3    C     C_R   0.000054 0.500068 0.560748 0.803495
C4    C     C_R   0.500002 0.000002 0.560766 0.803026
C5    C     C_R   0.500006 0.000006 0.939431 0.921444
C6    C     C_R   0.999945 0.499968 0.939440 0.920372
C7    C     C_R   0.000002 0.500001 0.439431 0.921318
C8    C     C_R   0.500003 0.999988 0.439443 0.922733
C9    C     C_R   0.638361 0.861247 0.000066 0.853911
C10   C     C_R   0.138507 0.638612 0.000176 0.848571
C11   C     C_R   0.361641 0.138762 0.000068 0.854106
C12   C     C_R   0.861187 0.361686 0.000043 0.849921
C13   C     C_R   0.361689 0.861192 0.000042 0.849949
C14   C     C_R   0.861551 0.638666 0.000205 0.854215
C15   C     C_R   0.638616 0.138511 0.000175 0.848820
C16   C     C_R   0.138445 0.361325 0.000203 0.854470
C17   C     C_R   0.138361 0.361247 0.500065 0.853894
C18   C     C_R   0.638508 0.138611 0.500176 0.848683
C19   C     C_R   0.861329 0.638451 0.500205 0.854194
C20   C     C_R   0.361187 0.861686 0.500043 0.850165
C21   C     C_R   0.861689 0.361193 0.500043 0.849777
C22   C     C_R   0.361551 0.138666 0.500205 0.853616
C23   C     C_R   0.138617 0.638510 0.500176 0.848923
C24   C     C_R   0.638758 0.861637 0.500066 0.853839
C25   C     C_2   0.807341 0.248790 0.987163 -0.157956
C26   C     C_2   0.752032 0.808171 0.987557 -0.146239
C27   C     C_2   0.193880 0.749924 0.986661 -0.159694
C28   C     C_2   0.247993 0.191817 0.987551 -0.146452
C29   C     C_2   0.193072 0.249218 0.987004 -0.147560
C30   C     C_2   0.248777 0.807347 0.987175 -0.157477
C31   C     C_2   0.806947 0.750760 0.987014 -0.147162
C32   C     C_2   0.749923 0.193890 0.986649 -0.159640
C33   C     C_2   0.307368 0.748763 0.487176 -0.156578
C34   C     C_2   0.252031 0.308169 0.487556 -0.146634
C35   C     C_2   0.693873 0.249932 0.486665 -0.158630
C36   C     C_2   0.749230 0.693052 0.487009 -0.148098
C37   C     C_2   0.691820 0.747966 0.487553 -0.146985
C38   C     C_2   0.748774 0.307351 0.487178 -0.157298
C39   C     C_2   0.306945 0.250758 0.487014 -0.147972
C40   C     C_2   0.249945 0.693868 0.486659 -0.159580
C41   C     C_2   0.803722 0.308508 0.999794 -0.296900
C42   C     C_2   0.691651 0.803873 0.999850 -0.294109
C43   C     C_2   0.193477 0.694303 0.001002 -0.293614
C44   C     C_2   0.308355 0.196139 0.999854 -0.294069
C45   C     C_2   0.193278 0.305499 0.001102 -0.294798
C46   C     C_2   0.308507 0.803728 0.999794 -0.296880
C47   C     C_2   0.806705 0.694487 0.001104 -0.294886
C48   C     C_2   0.694303 0.193482 0.000999 -0.293810
C49   C     C_2   0.303719 0.808509 0.499793 -0.297736
C50   C     C_2   0.191650 0.303872 0.499850 -0.293872
C51   C     C_2   0.693484 0.194296 0.501001 -0.294859
C52   C     C_2   0.805507 0.693292 0.501104 -0.294615
C53   C     C_2   0.696133 0.808350 0.499850 -0.293826
C54   C     C_2   0.808505 0.303731 0.499796 -0.297517
C55   C     C_2   0.306704 0.194485 0.501104 -0.294629
C56   C     C_2   0.194311 0.693474 0.501004 -0.294372
H1    H     H_    0.853858 0.239558 0.976479 0.186278
H2    H     H_    0.761778 0.855222 0.977156 0.187437
H3    H     H_    0.151812 0.754622 0.974100 0.185149
H4    H     H_    0.238270 0.144750 0.977145 0.187200
H5    H     H_    0.150523 0.243982 0.974621 0.188500
H6    H     H_    0.239533 0.853865 0.976501 0.186498
H7    H     H_    0.849525 0.755985 0.974641 0.188748
H8    H     H_    0.754622 0.151825 0.974082 0.185569
H9    H     H_    0.353911 0.739502 0.476506 0.187247
H10   H     H_    0.261776 0.355220 0.477155 0.187329
H11   H     H_    0.651789 0.254646 0.474110 0.186735
H12   H     H_    0.744001 0.650475 0.474631 0.188205
H13   H     H_    0.644756 0.738217 0.477151 0.187111
H14   H     H_    0.739530 0.353869 0.476504 0.186858
H15   H     H_    0.349523 0.255983 0.474640 0.188354
H16   H     H_    0.254654 0.651794 0.474095 0.185826
H17   H     H_    0.757502 0.320867 0.010138 0.153004
H18   H     H_    0.678861 0.757201 0.009934 0.152323
H19   H     H_    0.233224 0.688480 0.014095 0.153354
H20   H     H_    0.321131 0.242827 0.009943 0.152369
H21   H     H_    0.233399 0.311736 0.014067 0.153369
H22   H     H_    0.320873 0.757507 0.010128 0.153014
H23   H     H_    0.766554 0.688256 0.014060 0.153305
H24   H     H_    0.688475 0.233225 0.014097 0.153431
H25   H     H_    0.257473 0.820893 0.510123 0.153098
H26   H     H_    0.178861 0.257201 0.509934 0.152514
H27   H     H_    0.733246 0.188455 0.514088 0.153335
H28   H     H_    0.811740 0.733439 0.514065 0.153602
H29   H     H_    0.742818 0.821145 0.509935 0.152638
H30   H     H_    0.820869 0.257514 0.510131 0.152985
H31   H     H_    0.266553 0.188255 0.514060 0.153539
H32   H     H_    0.188481 0.733222 0.514100 0.153455
C57   C     C_R   0.487267 0.063175 0.832582 0.639355
C58   C     C_R   0.945383 0.533739 0.832686 0.637630
C59   C     C_R   0.513277 0.936936 0.832559 0.640258
C60   C     C_R   0.053161 0.463322 0.832694 0.636743
C61   C     C_R   0.987306 0.563208 0.332576 0.639533
C62   C     C_R   0.454603 0.045696 0.332558 0.637751
C63   C     C_R   0.012754 0.436855 0.332561 0.639553
C64   C     C_R   0.545413 0.954216 0.332539 0.637778
O53   O     O_2   0.474451 0.124445 0.844133 -0.540151
O54   O     O_2   0.891980 0.566476 0.844222 -0.533389
O55   O     O_2   0.526018 0.875635 0.844087 -0.539203
O56   O     O_2   0.104850 0.428004 0.844238 -0.531502
O57   O     O_2   0.974792 0.624550 0.344122 -0.539611
O58   O     O_2   0.410081 0.089782 0.344082 -0.523521
O59   O     O_2   0.025269 0.375514 0.344093 -0.539582
O60   O     O_2   0.589933 0.910112 0.344046 -0.523412
N1    N     N_R   0.500225 0.000038 0.843754 -0.288321
N2    N     N_R   0.999585 0.499047 0.843863 -0.289286
N3    N     N_R   0.000029 0.500032 0.343753 -0.288345
N4    N     N_R   0.500009 0.999950 0.343754 -0.292353
C65   C     C_R   0.440739 0.972650 0.879363 0.539832
C66   C     C_R   0.025165 0.559612 0.879362 0.539013
C67   C     C_R   0.559522 0.027393 0.879396 0.539780
C68   C     C_R   0.974056 0.439216 0.879486 0.539912
C69   C     C_R   0.940595 0.472723 0.379374 0.539657
C70   C     C_R   0.529596 0.058297 0.379434 0.543155
C71   C     C_R   0.059441 0.527329 0.379383 0.539682
C72   C     C_R   0.470452 0.941605 0.379426 0.543156
C73   C     C_R   0.440801 0.971028 0.902741 0.327116
C74   C     C_R   0.026977 0.559778 0.902726 0.329073
C75   C     C_R   0.559338 0.029029 0.902773 0.327638
C76   C     C_R   0.972361 0.439593 0.902847 0.329630
C77   C     C_R   0.940713 0.471079 0.402751 0.326842
C78   C     C_R   0.531093 0.058153 0.402811 0.329378
C79   C     C_R   0.059313 0.528951 0.402761 0.327159
C80   C     C_R   0.468950 0.941769 0.402803 0.329349
C81   C     C_R   0.500164 0.000017 0.867709 -0.084143
C82   C     C_R   0.999629 0.499261 0.867784 -0.086465
C83   C     C_R   0.000021 0.500031 0.367708 -0.084260
C84   C     C_R   0.500023 0.999948 0.367733 -0.096604
C85   C     C_R   0.500395 0.000105 0.797286 -0.053830
C86   C     C_R   0.001466 0.501787 0.797363 -0.051865
C87   C     C_R   0.000028 0.500028 0.297284 -0.053966
C88   C     C_R   0.500010 0.999984 0.297258 -0.053767
C89   C     C_R   0.486774 0.064337 0.809141 -0.050307
C90   C     C_R   0.945011 0.535180 0.809254 -0.051447
C91   C     C_R   0.513948 0.935841 0.809117 -0.051056
C92   C     C_R   0.054665 0.463487 0.809260 -0.053841
C93   C     C_R   0.986733 0.564338 0.309134 -0.051300
C94   C     C_R   0.453732 0.046551 0.309115 -0.056403
C95   C     C_R   0.013325 0.435721 0.309119 -0.051301
C96   C     C_R   0.546285 0.953397 0.309096 -0.056445
C97   C     C_R   0.474222 0.128282 0.797346 -0.142381
C98   C     C_R   0.887965 0.566341 0.797534 -0.142540
C99   C     C_R   0.526618 0.871937 0.797297 -0.139709
C100  C     C_R   0.106181 0.423797 0.797544 -0.142980
C101  C     C_R   0.974415 0.628319 0.297334 -0.141301
C102  C     C_R   0.408667 0.093636 0.297324 -0.138674
C103  C     C_R   0.025642 0.371738 0.297305 -0.141313
C104  C     C_R   0.591352 0.906333 0.297286 -0.138676
C105  C     C_R   0.500040 0.000028 0.914712 -0.421512
C106  C     C_R   0.999742 0.499807 0.914738 -0.423749
C107  C     C_R   0.000009 0.500011 0.414711 -0.421565
C108  C     C_R   0.500018 0.999967 0.414744 -0.423015
H33   H     H_    0.466646 0.179101 0.806005 0.193174
H34   H     H_    0.841480 0.588205 0.806209 0.194875
H35   H     H_    0.534177 0.821100 0.805934 0.193416
H36   H     H_    0.144857 0.390024 0.806225 0.197223
H37   H     H_    0.967081 0.679181 0.305988 0.194127
H38   H     H_    0.374810 0.132289 0.305985 0.197413
H39   H     H_    0.032978 0.320877 0.305947 0.194123
H40   H     H_    0.625207 0.867664 0.305931 0.197411
C109  C     C_R   0.999996 0.500003 0.085394 -0.014182
C110  C     C_R   0.500006 0.000038 0.085399 -0.014763
C111  C     C_R   0.500031 0.000017 0.585393 -0.014468
C112  C     C_R   0.000590 0.500650 0.585343 -0.013957
C113  C     C_R   0.969867 0.559710 0.238320 -0.039874
C114  C     C_R   0.442393 0.034011 0.238278 -0.039806
C115  C     C_R   0.030166 0.440332 0.238305 -0.039873
C116  C     C_R   0.557655 0.966073 0.238264 -0.039810
C117  C     C_R   0.470056 0.059719 0.738325 -0.040588
C118  C     C_R   0.951632 0.548144 0.738186 -0.037967
C119  C     C_R   0.530902 0.940618 0.738304 -0.040240
C120  C     C_R   0.064128 0.474842 0.738175 -0.037165
C121  C     C_R   0.000013 0.500019 0.226560 -0.054019
C122  C     C_R   0.500027 0.000053 0.226521 -0.053057
C123  C     C_R   0.500451 0.000160 0.726562 -0.053642
C124  C     C_R   0.006990 0.510129 0.726472 -0.050253
C125  C     C_R   0.930414 0.612952 0.226192 0.512339
C126  C     C_R   0.380495 0.057630 0.226125 0.509915
C127  C     C_R   0.069613 0.387086 0.226163 0.512337
C128  C     C_R   0.619560 0.942479 0.226102 0.509923
C129  C     C_R   0.430371 0.112796 0.726200 0.512954
C130  C     C_R   0.903001 0.592592 0.725714 0.510268
C131  C     C_R   0.570603 0.887570 0.726159 0.513395
C132  C     C_R   0.124464 0.448397 0.725677 0.510956
C133  C     C_R   0.928424 0.609480 0.202747 -0.241374
C134  C     C_R   0.380594 0.053355 0.202691 -0.239885
C135  C     C_R   0.071589 0.390550 0.202718 -0.241369
C136  C     C_R   0.619470 0.946793 0.202671 -0.239892
C137  C     C_R   0.428335 0.109295 0.702757 -0.241309
C138  C     C_R   0.902158 0.587815 0.702324 -0.239316
C139  C     C_R   0.572491 0.891018 0.702712 -0.239989
C140  C     C_R   0.120793 0.446466 0.702273 -0.237337
C141  C     C_R   0.964908 0.555329 0.191067 -0.071059
C142  C     C_R   0.440521 0.027473 0.191017 -0.072312
C143  C     C_R   0.035098 0.444697 0.191053 -0.071066
C144  C     C_R   0.559546 0.972689 0.191007 -0.072309
C145  C     C_R   0.465005 0.055281 0.691073 -0.071219
C146  C     C_R   0.951500 0.544787 0.690874 -0.070680
C147  C     C_R   0.535690 0.944965 0.691051 -0.071325
C148  C     C_R   0.061452 0.474086 0.690826 -0.072625
C149  C     C_R   0.000006 0.500015 0.202921 -0.056771
C150  C     C_R   0.500032 0.000073 0.202877 -0.056451
C151  C     C_R   0.500384 0.000137 0.702923 -0.056605
C152  C     C_R   0.006308 0.509124 0.702774 -0.055520
C153  C     C_R   0.034515 0.445693 0.167583 0.535759
C154  C     C_R   0.558756 0.973768 0.167538 0.536054
C155  C     C_R   0.965478 0.554326 0.167597 0.535749
C156  C     C_R   0.441313 0.026416 0.167548 0.536074
C157  C     C_R   0.535008 0.945918 0.667581 0.536376
C158  C     C_R   0.058648 0.471868 0.667378 0.536662
C159  C     C_R   0.465497 0.054247 0.667603 0.535687
C160  C     C_R   0.950027 0.540663 0.667454 0.534692
N5    N     N_R   0.999995 0.500008 0.156345 -0.353303
N6    N     N_R   0.500033 0.000094 0.156315 -0.353947
N7    N     N_R   0.500202 0.000059 0.656346 -0.353307
N8    N     N_R   0.002943 0.504162 0.656202 -0.353220
C161  C     C_R   0.934944 0.493021 0.120566 -0.103207
C162  C     C_R   0.499477 0.934646 0.120573 -0.104336
C163  C     C_R   0.065045 0.506992 0.120565 -0.103198
C164  C     C_R   0.500559 0.065490 0.120578 -0.104271
C165  C     C_R   0.435079 0.992855 0.620580 -0.102543
C166  C     C_R   0.994414 0.437152 0.620775 -0.104286
C167  C     C_R   0.565137 0.007215 0.620551 -0.103497
C168  C     C_R   0.008876 0.567205 0.620180 -0.101968
C169  C     C_R   0.934861 0.493202 0.097270 -0.209297
C170  C     C_R   0.499484 0.934555 0.097277 -0.208146
C171  C     C_R   0.065129 0.506806 0.097270 -0.209438
C172  C     C_R   0.500535 0.065541 0.097282 -0.208331
C173  C     C_R   0.434942 0.993033 0.597283 -0.209330
C174  C     C_R   0.993913 0.436023 0.597472 -0.209779
C175  C     C_R   0.565169 0.007015 0.597256 -0.209185
C176  C     C_R   0.008002 0.566255 0.596928 -0.209089
C177  C     C_R   0.999994 0.500008 0.132337 0.298274
C178  C     C_R   0.500023 0.000077 0.132327 0.302050
C179  C     C_R   0.500137 0.000038 0.632338 0.297577
C180  C     C_R   0.001887 0.502763 0.632225 0.298882
O61   O     O_2   0.932603 0.607736 0.156111 -0.561235
O62   O     O_2   0.383741 0.051195 0.156038 -0.559681
O63   O     O_2   0.067385 0.392280 0.156083 -0.561211
O64   O     O_2   0.616329 0.949000 0.156019 -0.559689
O65   O     O_2   0.432357 0.107504 0.656121 -0.561391
O66   O     O_2   0.895959 0.572660 0.656015 -0.561208
O67   O     O_2   0.568068 0.892628 0.656078 -0.560542
O68   O     O_2   0.111678 0.438548 0.655829 -0.560424
C181  C     C_R   0.479623 0.063164 0.761873 0.067970
C182  C     C_R   0.948278 0.542237 0.761902 0.065055
C183  C     C_R   0.521340 0.937139 0.761850 0.067688
C184  C     C_R   0.059992 0.469328 0.761898 0.063473
C185  C     C_R   0.979453 0.563132 0.261867 0.067041
C186  C     C_R   0.448540 0.041954 0.261835 0.065371
C187  C     C_R   0.020591 0.436916 0.261852 0.067048
C188  C     C_R   0.551495 0.958084 0.261818 0.065377
C189  C     C_R   0.500456 0.000136 0.773593 0.074425
C190  C     C_R   0.003759 0.505234 0.773612 0.073654
C191  C     C_R   0.000024 0.500026 0.273591 0.074005
C192  C     C_R   0.500015 0.000007 0.273559 0.074716
C193  C     C_R   0.471233 0.127831 0.774132 -0.134748
C194  C     C_R   0.888278 0.567253 0.774369 -0.138387
C195  C     C_R   0.529738 0.872450 0.774083 -0.131562
C196  C     C_R   0.106993 0.424474 0.774375 -0.138694
C197  C     C_R   0.971359 0.627849 0.274120 -0.133257
C198  C     C_R   0.406599 0.091862 0.274110 -0.132595
C199  C     C_R   0.028690 0.372202 0.274091 -0.133269
C200  C     C_R   0.593430 0.908151 0.274073 -0.132596
H41   H     H_    0.883877 0.487685 0.088579 0.169788
H42   H     H_    0.499011 0.883258 0.088591 0.170074
H43   H     H_    0.116115 0.512322 0.088578 0.169713
H44   H     H_    0.501002 0.116823 0.088598 0.169999
H45   H     H_    0.383958 0.987362 0.588601 0.170011
H46   H     H_    0.988032 0.384727 0.588976 0.169394
H47   H     H_    0.616120 0.012681 0.588555 0.169932
H48   H     H_    0.013540 0.616874 0.588042 0.170796
H49   H     H_    0.884428 0.487248 0.129498 0.149998
H50   H     H_    0.498819 0.883845 0.129520 0.147229
H51   H     H_    0.115560 0.512768 0.129498 0.149984
H52   H     H_    0.501224 0.116306 0.129529 0.147233
H53   H     H_    0.384600 0.986933 0.629523 0.150782
H54   H     H_    0.988854 0.387089 0.629952 0.148936
H55   H     H_    0.615656 0.013151 0.629471 0.150399
H56   H     H_    0.015226 0.618090 0.628879 0.151112
H57   H     H_    0.896495 0.648385 0.193582 0.198754
H58   H     H_    0.332669 0.068801 0.193537 0.199590
H59   H     H_    0.103514 0.351643 0.193543 0.198762
H60   H     H_    0.667399 0.931363 0.193511 0.199592
H61   H     H_    0.396220 0.148064 0.693598 0.199041
H62   H     H_    0.865544 0.621559 0.692887 0.198257
H63   H     H_    0.604585 0.852271 0.693529 0.199060
H64   H     H_    0.166654 0.426956 0.692852 0.199229
H65   H     H_    0.465549 0.179529 0.766065 0.185199
H66   H     H_    0.838778 0.584723 0.766734 0.190264
H67   H     H_    0.535516 0.820778 0.765993 0.185323
H68   H     H_    0.142919 0.386169 0.766757 0.194740
H69   H     H_    0.965866 0.679559 0.266047 0.186511
H70   H     H_    0.374081 0.132501 0.266070 0.188401
H71   H     H_    0.034180 0.320490 0.266006 0.186509
H72   H     H_    0.625953 0.867529 0.266016 0.188393
O69   O     O_3   0.618762 0.056622 0.913839 -0.525408
C201  C     C_3   0.608956 0.131659 0.916506 -0.154324
H73   H     H_    0.559559 0.143874 0.926421 0.109040
H74   H     H_    0.606717 0.159639 0.900078 0.189388
H75   H     H_    0.655842 0.153649 0.925820 0.174336
O70   O     O_3   0.946307 0.379543 0.913939 -0.523056
C202  C     C_3   0.871037 0.387426 0.916601 -0.156204
H76   H     H_    0.842992 0.388759 0.900172 0.183785
H77   H     H_    0.857544 0.436591 0.926470 0.109335
H78   H     H_    0.850281 0.340086 0.925958 0.177245
O71   O     O_3   0.381330 0.943434 0.913779 -0.525580
C203  C     C_3   0.391111 0.868390 0.916420 -0.152535
H79   H     H_    0.440466 0.856152 0.926348 0.108749
H80   H     H_    0.393408 0.840433 0.899983 0.189464
H81   H     H_    0.344183 0.846395 0.925710 0.175621
O72   O     O_3   0.052996 0.620093 0.913700 -0.523014
C204  C     C_3   0.128317 0.612457 0.916290 -0.155656
H82   H     H_    0.156187 0.610935 0.899833 0.184879
H83   H     H_    0.142052 0.563488 0.926209 0.109113
H84   H     H_    0.149045 0.660004 0.925563 0.176176
O73   O     O_3   0.118792 0.556469 0.413817 -0.525667
C205  C     C_3   0.109093 0.631521 0.416481 -0.152710
H85   H     H_    0.059724 0.643809 0.426401 0.108513
H86   H     H_    0.106875 0.659495 0.400052 0.189843
H87   H     H_    0.156021 0.653451 0.425789 0.174828
O74   O     O_3   0.439231 0.883401 0.413872 -0.522782
C206  C     C_3   0.364706 0.896184 0.416710 -0.162999
H88   H     H_    0.336474 0.899808 0.400345 0.183868
H89   H     H_    0.354707 0.945867 0.426726 0.108667
H90   H     H_    0.341048 0.850075 0.425997 0.178129
O75   O     O_3   0.881238 0.443532 0.413798 -0.525806
C207  C     C_3   0.890958 0.368478 0.416435 -0.151683
H91   H     H_    0.940322 0.356191 0.426352 0.108431
H92   H     H_    0.893198 0.340528 0.399995 0.189544
H93   H     H_    0.844029 0.346521 0.425732 0.176040
O76   O     O_3   0.560794 0.116540 0.413888 -0.522936
C208  C     C_3   0.635316 0.103768 0.416732 -0.163921
H94   H     H_    0.663570 0.100129 0.400368 0.184198
H95   H     H_    0.645307 0.054096 0.426742 0.108980
H96   H     H_    0.658956 0.149889 0.426027 0.176889
F1    F     F_    0.617525 0.052985 0.868012 -0.600289
F2    F     F_    0.949654 0.380634 0.868128 -0.602110
F3    F     F_    0.382794 0.947062 0.867947 -0.599745
F4    F     F_    0.049422 0.617969 0.867878 -0.598971
F5    F     F_    0.117453 0.552847 0.367988 -0.600148
F6    F     F_    0.441854 0.884989 0.368049 -0.598240
F7    F     F_    0.882591 0.447207 0.367970 -0.600175
F8    F     F_    0.558192 0.114907 0.368067 -0.598272
O77   O     O_3   0.883997 0.659478 0.237469 -0.601889
C209  C     C_3   0.890244 0.731151 0.229556 -0.358205
H97   H     H_    0.853398 0.740124 0.215197 0.183420
H98   H     H_    0.946811 0.745846 0.225084 0.162908
H99   H     H_    0.872996 0.768366 0.243058 0.197920
O78   O     O_3   0.316336 0.072162 0.237345 -0.602090
C210  C     C_3   0.284036 0.136688 0.229593 -0.344828
H100  H     H_    0.248652 0.125578 0.215029 0.183690
H101  H     H_    0.324435 0.179296 0.225488 0.161596
H102  H     H_    0.249127 0.158481 0.243053 0.201735
O79   O     O_3   0.116037 0.340565 0.237427 -0.601905
C211  C     C_3   0.109789 0.268890 0.229500 -0.358208
H103  H     H_    0.146630 0.259914 0.215136 0.183458
H104  H     H_    0.053221 0.254191 0.225029 0.162915
H105  H     H_    0.127044 0.231679 0.242992 0.197882
O80   O     O_3   0.683714 0.927932 0.237318 -0.602069
C212  C     C_3   0.716025 0.863424 0.229540 -0.344878
H106  H     H_    0.751414 0.874564 0.214981 0.183724
H107  H     H_    0.675632 0.820819 0.225417 0.161577
H108  H     H_    0.750929 0.841609 0.242992 0.201709
O81   O     O_3   0.383796 0.159156 0.737478 -0.599387
C213  C     C_3   0.389890 0.230866 0.729585 -0.360431
H109  H     H_    0.353056 0.239796 0.715221 0.184667
H110  H     H_    0.446430 0.245715 0.725129 0.159665
H111  H     H_    0.372527 0.267992 0.743095 0.196104
O82   O     O_3   0.867383 0.649653 0.736100 -0.593498
C214  C     C_3   0.794306 0.654330 0.729344 -0.343510
H112  H     H_    0.769089 0.600352 0.726675 0.146068
H113  H     H_    0.789212 0.688294 0.714154 0.191642
H114  H     H_    0.763329 0.681563 0.742780 0.206185
O83   O     O_3   0.617305 0.841318 0.737421 -0.596567
C215  C     C_3   0.611523 0.769617 0.729483 -0.357056
H115  H     H_    0.648346 0.760932 0.715098 0.183344
H116  H     H_    0.555033 0.754541 0.725038 0.160324
H117  H     H_    0.629120 0.732493 0.742957 0.193784
O84   O     O_3   0.190855 0.438004 0.736073 -0.602158
C216  C     C_3   0.223597 0.372447 0.729344 -0.353866
H118  H     H_    0.256934 0.380879 0.714161 0.186350
H119  H     H_    0.183700 0.328202 0.726668 0.163102
H120  H     H_    0.260636 0.354520 0.742799 0.199215

loop_
_geom_bond_atom_site_label_1
_geom_bond_atom_site_label_2
_geom_bond_distance
_ccdc_geom_bond_type
C206  H90   1.109423 S    
C4    C111  1.475210 S    
C74   O72   1.382530 S    
C154  N6    1.368036 A    
C117  C129  1.425880 A    
C153  O63   1.349790 S    
C161  C169  1.395423 A    
C154  O64   1.349788 S    
C100  C196  1.387921 A    
C67   F1    1.357739 S    
C65   C81   1.398321 A    
C207  H92   1.113040 S    
C30   C46   1.341220 D    
C87   C93   1.407617 A    
C97   H33   1.083314 S    
C109  C171  1.405842 A    
C156  O62   1.349786 S    
C209  H99   1.109152 S    
O34   C22   1.275974 A    
Zn14  O36   1.933722 S    
C216  H119  1.114862 S    
C32   C48   1.341375 D    
O52   C22   1.277922 A    
C172  H44   1.082875 S    
C18   C51   1.449999 S    
C159  N7    1.368618 A    
C162  H50   1.082863 S    
C76   O70   1.382540 S    
C203  H81   1.109417 S    
Zn4   O2    1.942947 S    
C168  H56   1.082933 S    
C26   H2    1.086395 S    
C184  C190  1.420291 A    
C200  H72   1.077280 S    
O47   C17   1.277997 A    
C209  H98   1.114880 S    
C61   C93   1.404372 A    
C60   N2    1.366786 A    
C40   C56   1.341363 D    
C137  H61   1.081552 S    
N3    C83   1.434909 S    
C36   C37   1.470977 S    
C187  C191  1.415587 A    
C113  C185  1.423000 A    
C210  H102  1.109126 S    
C137  C145  1.396353 A    
C111  C173  1.405814 A    
O22   C10   1.276078 A    
C185  C197  1.412897 A    
O46   C20   1.277699 A    
C144  C154  1.405988 A    
Zn12  O24   1.934528 S    
C205  H86   1.113037 S    
C198  H70   1.077278 S    
C7    C107  1.480721 S    
Zn16  O4    1.944679 S    
C99   H35   1.083312 S    
C92   C100  1.393301 A    
Zn1   O13   1.930518 S    
C188  C200  1.412928 A    
Zn3   O15   1.930466 S    
C25   C32   1.471528 S    
Zn4   O16   1.930674 S    
C135  C143  1.396377 A    
N2    C82   1.432876 S    
C193  H65   1.077577 S    
C136  C144  1.396030 A    
C86   C92   1.407401 A    
C204  H82   1.112993 S    
C205  H87   1.109425 S    
C115  C187  1.423002 A    
C66   F4    1.357745 S    
C130  O82   1.391785 S    
O11   C3    1.284388 A    
C132  C140  1.404002 A    
C67   C81   1.398272 A    
C133  C141  1.396375 A    
O49   C23   1.277542 A    
C124  C152  1.419644 A    
C116  C188  1.423260 A    
C176  H48   1.082931 S    
Zn11  O1    1.944467 S    
C88   C192  1.419616 A    
O50   C24   1.277806 A    
O71   C203  1.410141 S    
C194  H66   1.074049 S    
C33   H9    1.086406 S    
Zn9   O25   1.934522 S    
C101  C197  1.391682 A    
Zn10  O22   1.934710 S    
C165  C173  1.395484 A    
O84   C216  1.415049 S    
C33   C49   1.341221 D    
O69   C201  1.410140 S    
Zn13  O29   1.933706 S    
C113  C125  1.425874 A    
C156  N6    1.368035 A    
Zn10  O2    1.944781 S    
C59   O55   1.349517 S    
Zn3   O1    1.943261 S    
C60   O56   1.349656 S    
C70   F8    1.357804 S    
N6    C178  1.436891 S    
C66   C74   1.399902 A    
C186  C198  1.412926 A    
Zn10  O8    1.930598 S    
O5    C1    1.284081 A    
C119  C123  1.424097 A    
C70   C78   1.400565 A    
C181  C193  1.412888 A    
C77   C107  1.416264 A    
Zn8   O46   1.938532 S    
O72   C204  1.410197 S    
C98   H34   1.083564 S    
C47   H23   1.080891 S    
O27   C15   1.275822 A    
C22   C55   1.449597 S    
C116  C128  1.426338 A    
C210  H100  1.110228 S    
C174  H46   1.082888 S    
C120  C124  1.427349 A    
C86   C190  1.424799 A    
C63   N3    1.368382 A    
C208  H94   1.113028 S    
O8    C2    1.283953 A    
C212  H106  1.110226 S    
C74   C106  1.416346 A    
C28   H4    1.086393 S    
C104  H40   1.083332 S    
C187  C199  1.412895 A    
C75   O69   1.382486 S    
C14   C47   1.449599 S    
O42   C16   1.277795 A    
C214  H113  1.110260 S    
O16   C6    1.283029 A    
O14   C6    1.283628 A    
Zn15  O9    1.930806 S    
C21   C54   1.450090 S    
Zn6   O48   1.938418 S    
Zn12  O6    1.930650 S    
O40   C10   1.277769 A    
C162  C170  1.395399 A    
C128  O80   1.390949 S    
O45   C19   1.277754 A    
O82   C214  1.414860 S    
O17   C7    1.283535 A    
C148  C152  1.405171 A    
C163  C171  1.395420 A    
Zn5   O17   1.930518 S    
C13   C46   1.450104 S    
C86   C90   1.407526 A    
C204  H84   1.109428 S    
Zn12  O26   1.933947 S    
C10   C43   1.450005 S    
O9    C3    1.282610 A    
C140  C148  1.392365 A    
C141  C149  1.405514 A    
C103  C199  1.391682 A    
C43   H19   1.080843 S    
C61   O57   1.349525 S    
C164  C172  1.395429 A    
C118  C130  1.430421 A    
C91   C99   1.398397 A    
C69   C77   1.400642 A    
C89   C97   1.398366 A    
C203  H80   1.113038 S    
C123  C151  1.416005 A    
C163  H51   1.082864 S    
Zn10  O28   1.933722 S    
C132  O84   1.391323 S    
C64   C96   1.404420 A    
C57   O53   1.349525 S    
C157  O67   1.349790 S    
Zn9   O7    1.930457 S    
C158  O68   1.349925 S    
C170  H42   1.082875 S    
C117  C181  1.423015 A    
Zn11  O5    1.930806 S    
C161  C177  1.401656 A    
C215  H115  1.110314 S    
O31   C19   1.275779 A    
Zn11  O23   1.933881 S    
C166  H54   1.082830 S    
Zn1   O41   1.938424 S    
C87   C191  1.419209 A    
C202  H78   1.109425 S    
C6    C106  1.479679 S    
O41   C15   1.277534 A    
C34   C39   1.470993 S    
C134  H58   1.081544 S    
C104  C200  1.391443 A    
C201  H75   1.109425 S    
C114  C122  1.424409 A    
C211  H103  1.110343 S    
Zn15  O35   1.934632 S    
C64   O60   1.349562 S    
C57   C89   1.404347 A    
C114  C186  1.423262 A    
Zn4   O42   1.937774 S    
C138  C146  1.392346 A    
C208  H96   1.109429 S    
O80   C212  1.414399 S    
C112  C174  1.405635 A    
C100  H36   1.083570 S    
C212  H108  1.109119 S    
Zn9   O1    1.945159 S    
C206  H89   1.113506 S    
C144  C150  1.405691 A    
C36   H12   1.086395 S    
O76   C208  1.410116 S    
C78   C108  1.415541 A    
C49   H25   1.080870 S    
C76   C106  1.416780 A    
Zn1   O1    1.943156 S    
C186  C192  1.415811 A    
Zn2   O14   1.930325 S    
C56   H32   1.080847 S    
Zn1   O39   1.937844 S    
C2    C109  1.475216 S    
Zn2   O40   1.938418 S    
Zn3   O37   1.937616 S    
C94   C102  1.398192 A    
Zn12  O2    1.944679 S    
C97   C193  1.391660 A    
C121  C149  1.415998 A    
C103  H39   1.083314 S    
C39   H15   1.086392 S    
C155  N5    1.368617 A    
C101  H37   1.083313 S    
Zn7   O51   1.938609 S    
C143  C149  1.405512 A    
C138  H62   1.081387 S    
C88   C96   1.407415 A    
C216  H118  1.110228 S    
C41   H17   1.080861 S    
O6    C2    1.283962 A    
O18   C8    1.283209 A    
C167  H55   1.082868 S    
C199  H71   1.077602 S    
O77   C209  1.414152 S    
O10   C4    1.284017 A    
C166  C174  1.396064 A    
C39   C55   1.341151 D    
C167  C179  1.401630 A    
C213  H109  1.110339 S    
C85   C91   1.407620 A    
Zn14  O30   1.934710 S    
C55   H31   1.080891 S    
Zn15  O3    1.944467 S    
C66   C82   1.397567 A    
C53   H29   1.080894 S    
C11   C44   1.449566 S    
C215  H117  1.109202 S    
C188  C192  1.415804 A    
C210  H101  1.114887 S    
Zn16  O34   1.933947 S    
C31   C47   1.341148 D    
Zn2   O44   1.937602 S    
C37   C53   1.341058 D    
C67   C75   1.400606 A    
C184  C196  1.416168 A    
C160  O66   1.349995 S    
C202  H76   1.113000 S    
C164  H52   1.082862 S    
C148  C158  1.406069 A    
C65   C73   1.400698 A    
Zn5   O47   1.937844 S    
Zn8   O20   1.930674 S    
C45   H21   1.080893 S    
C50   H26   1.080888 S    
C201  H73   1.113543 S    
Zn7   O45   1.937616 S    
C129  O81   1.391267 S    
C68   C76   1.399723 A    
C131  C139  1.406399 A    
C147  C151  1.405497 A    
C211  H105  1.109147 S    
C143  C153  1.405997 A    
C12   C41   1.450061 S    
C71   C83   1.398311 A    
C72   C80   1.400593 A    
C159  O65   1.349791 S    
C63   O59   1.349524 S    
C161  H49   1.082864 S    
C112  C176  1.405544 A    
C33   C40   1.471517 S    
C93   C101  1.398383 A    
C62   C94   1.404410 A    
O12   C4    1.283892 A    
Zn7   O19   1.930466 S    
O48   C18   1.277776 A    
O70   C202  1.410199 S    
O38   C12   1.277694 A    
Zn16  O10   1.930650 S    
C117  C123  1.424112 A    
Zn14  O4    1.944781 S    
C207  H91   1.113546 S    
C87   C95   1.407616 A    
C181  C189  1.415588 A    
C71   F5    1.357736 S    
Zn13  O3    1.945159 S    
C182  C194  1.416140 A    
C58   N2    1.366659 A    
C126  C134  1.405873 A    
C72   C84   1.399414 A    
O21   C9    1.275881 A    
C26   C42   1.341049 D    
Zn6   O18   1.930325 S    
O23   C11   1.275771 A    
C38   C54   1.341210 D    
C127  O79   1.391344 S    
C142  C150  1.405691 A    
C155  O61   1.349791 S    
C197  H69   1.077604 S    
C62   O58   1.349562 S    
C216  H120  1.109105 S    
O25   C13   1.275919 A    
C136  H60   1.081540 S    
C95   C103  1.398380 A    
C120  C132  1.430821 A    
N1    C81   1.434879 S    
C209  H97   1.110342 S    
C165  C179  1.401718 A    
C168  C176  1.392992 A    
C166  C180  1.401779 A    
C58   O54   1.349682 S    
C48   H24   1.080835 S    
O73   C205  1.410141 S    
C195  H67   1.077621 S    
C118  C182  1.426178 A    
C164  C178  1.401073 A    
C162  C178  1.401061 A    
C126  O78   1.390942 S    
O43   C13   1.277953 A    
C129  C137  1.406273 A    
O28   C16   1.275727 A    
C60   C92   1.403992 A    
O75   C207  1.410145 S    
O74   C206  1.410119 S    
Zn5   O3    1.943156 S    
C133  H57   1.081540 S    
Zn6   O4    1.943636 S    
C102  C198  1.391440 A    
C153  N5    1.368615 A    
C205  H85   1.113545 S    
C145  C151  1.405514 A    
C146  C152  1.404921 A    
C32   H8    1.086454 S    
C114  C126  1.426343 A    
C125  C133  1.406333 A    
C8    C108  1.479481 S    
C61   N3    1.368380 A    
C63   C95   1.404368 A    
C64   N4    1.368904 A    
C17   C50   1.449567 S    
C69   C83   1.398309 A    
C25   H1    1.086417 S    
C139  C147  1.396393 A    
C27   H3    1.086457 S    
O83   C215  1.414127 S    
O13   C5    1.283476 A    
C204  H83   1.113557 S    
C24   C53   1.449545 S    
C125  O77   1.391345 S    
C57   N1    1.368360 A    
C36   C52   1.341126 D    
C127  C135  1.406334 A    
O32   C20   1.275692 A    
C111  C175  1.405849 A    
Zn8   O50   1.937774 S    
C16   C45   1.449544 S    
Zn2   O2    1.943636 S    
C175  H47   1.082896 S    
O7    C1    1.284058 A    
C135  H59   1.081537 S    
O26   C14   1.275973 A    
C207  H93   1.109416 S    
Zn15  O31   1.933881 S    
C214  H112  1.114789 S    
Zn16  O32   1.934528 S    
C85   C189  1.419216 A    
C27   C30   1.471547 S    
C206  H88   1.113025 S    
C28   C44   1.341120 D    
O19   C7    1.283551 A    
Zn8   O4    1.942947 S    
C73   C105  1.416235 A    
C122  C150  1.416274 A    
C215  H116  1.114865 S    
O37   C11   1.277764 A    
O39   C9    1.277999 A    
C80   O74   1.382543 S    
C38   H14   1.086412 S    
C62   N4    1.368907 A    
C65   F3    1.357732 S    
C99   C195  1.391713 A    
C118  C124  1.427335 A    
O51   C21   1.277955 A    
C72   F6    1.357802 S    
C116  C122  1.424411 A    
C42   H18   1.080889 S    
C35   H11   1.086453 S    
C110  C172  1.406098 A    
O20   C8    1.283255 A    
O44   C14   1.277923 A    
C115  C121  1.424104 A    
C202  H77   1.113555 S    
C3    C112  1.473290 S    
O24   C12   1.275692 A    
Zn11  O27   1.934632 S    
C167  C175  1.395360 A    
C34   C50   1.341052 D    
Zn6   O52   1.937602 S    
C157  N7    1.368644 A    
C96   C104  1.398187 A    
C158  N8    1.367235 A    
O35   C23   1.275816 A    
C54   H30   1.080859 S    
C30   H6    1.086411 S    
C90   C98   1.393266 A    
C115  C127  1.425869 A    
C208  H95   1.113502 S    
C183  C195  1.412905 A    
C182  C190  1.420021 A    
C69   F7    1.357736 S    
C212  H107  1.114888 S    
C51   H27   1.080838 S    
C52   H28   1.080890 S    
C119  C131  1.425854 A    
C46   H22   1.080863 S    
Zn5   O49   1.938424 S    
C214  H114  1.109190 S    
C79   C107  1.416278 A    
O79   C211  1.414152 S    
C40   H16   1.086455 S    
C145  C159  1.405997 A    
C196  H68   1.073798 S    
C146  C160  1.405182 A    
C169  H41   1.082891 S    
C147  C157  1.406014 A    
C171  H43   1.082892 S    
O29   C17   1.275881 A    
C34   H10   1.086395 S    
C165  H53   1.082863 S    
C85   C89   1.407625 A    
C185  C191  1.415590 A    
C59   C91   1.404403 A    
C73   O71   1.382474 S    
C173  H45   1.082894 S    
C28   C29   1.470976 S    
Zn9   O21   1.933706 S    
C5    C105  1.480697 S    
C77   O75   1.382478 S    
N4    C84   1.436358 S    
C109  C169  1.405842 A    
C134  C142  1.396031 A    
Zn13  O33   1.934522 S    
C113  C121  1.424106 A    
O15   C5    1.283598 A    
C98   C194  1.387726 A    
C23   C56   1.449958 S    
C79   O73   1.382485 S    
C59   N1    1.368373 A    
C58   C90   1.403868 A    
C70   C84   1.399404 A    
C80   C108  1.415525 A    
C29   C45   1.341067 D    
N5    C177  1.438072 S    
C68   C82   1.397366 A    
C203  H79   1.113549 S    
C68   F2    1.357749 S    
O78   C210  1.414399 S    
C75   C105  1.416289 A    
N7    C179  1.438114 S    
N8    C180  1.436537 S    
C88   C94   1.407410 A    
Zn4   O38   1.938532 S    
C119  C183  1.423002 A    
C15   C48   1.449955 S    
C35   C51   1.341389 D    
C160  N8    1.367442 A    
O33   C21   1.275912 A    
C71   C79   1.400647 A    
C120  C184  1.426797 A    
C213  H110  1.114887 S    
C128  C136  1.405871 A    
C78   O76   1.382551 S    
C141  C155  1.406000 A    
C142  C156  1.405996 A    
Zn7   O3    1.943261 S    
C31   H7    1.086396 S    
C44   H20   1.080890 S    
C37   H13   1.086394 S    
C140  H64   1.081403 S    
C29   H5    1.086398 S    
C19   C52   1.449562 S    
C110  C170  1.406098 A    
C27   C43   1.341396 D    
C1    C110  1.475449 S    
C183  C189  1.415587 A    
C131  O83   1.391406 S    
C26   C31   1.470995 S    
C211  H104  1.114880 S    
C168  C180  1.400670 A    
C35   C38   1.471542 S    
C9    C42   1.449567 S    
C102  H38   1.083333 S    
C201  H74   1.113041 S    
C213  H111  1.109104 S    
O36   C24   1.275718 A    
C139  H63   1.081515 S    
O81   C213  1.414152 S    
C163  C177  1.401650 A    
C25   C41   1.341223 D    
Zn13  O11   1.930457 S    
Zn14  O12   1.930598 S    
C20   C49   1.450072 S    
C130  C138  1.403915 A    
O30   C18   1.276068 A    
Zn3   O43   1.938609 S    
