data_mof_unit_12575.cif
_audit_creation_date              2012-12-11T14:44:28-0500
_audit_creation_method            fapswitch 2.2
_symmetry_space_group_name_H-M    P1
_symmetry_Int_Tables_number       1
_space_group_crystal_system       triclinic
_cell_length_a                    25.139397
_cell_length_b                    16.818871
_cell_length_c                    15.516177
_cell_angle_alpha                 90.086305
_cell_angle_beta                  50.131451
_cell_angle_gamma                 89.963879
_cell_volume                      5035.27360321

loop_
_atom_site_label
_atom_site_type_symbol
_atom_type_description
_atom_site_fract_x
_atom_site_fract_y
_atom_site_fract_z
_atom_type_partial_charge
Br1   Br    Br    0.292203 0.232548 0.276700 -0.671608
Br2   Br    Br    0.704936 0.786750 0.767684 -0.620184
Br3   Br    Br    0.708418 0.232524 0.723311 -0.676393
Br4   Br    Br    0.255097 0.829045 0.270314 -0.583483
Br5   Br    Br    0.853125 0.820469 0.236156 -0.639468
Br6   Br    Br    0.244457 0.329649 0.730800 -0.584084
Br7   Br    Br    0.208568 0.731850 0.722963 -0.662753
Br8   Br    Br    0.753896 0.329830 0.271572 -0.595968
C1    C     C_R   0.333175 0.108992 0.803280 -0.078270
C2    C     C_3   0.749096 0.790445 0.609527 0.377275
C3    C     C_3   0.551763 0.958067 0.776877 -0.922286
C4    C     C_3   0.067859 0.657679 0.766682 -0.873226
C5    C     C_3   0.962117 0.440806 0.210734 -0.942646
C6    C     C_3   0.919386 0.627709 0.246781 -0.920824
C7    C     C_3   0.051940 0.457884 0.773361 -0.927586
C8    C     C_3   0.716905 0.264658 0.594470 0.403064
C9    C     C_3   0.239402 0.800033 0.405803 0.390583
C10   C     C_3   0.805179 0.806426 0.394963 0.384132
C11   C     C_3   0.260572 0.300668 0.594842 0.390809
C12   C     C_3   0.217380 0.764077 0.593845 0.404142
C13   C     C_3   0.738580 0.300859 0.406761 0.384528
C14   C     C_2   0.699847 0.141210 0.008894 -0.179325
C15   C     C_2   0.361661 0.734020 0.844907 -0.203325
C16   C     C_2   0.300438 0.141333 0.991611 -0.176672
C17   C     C_R   0.646452 0.852242 0.246782 -0.106889
C18   C     C_2   0.637715 0.732765 0.157004 -0.188110
C19   C     C_2   0.197953 0.646778 0.011890 -0.170556
C20   C     C_2   0.861747 0.234106 0.845263 -0.199498
C21   C     C_2   0.800223 0.640727 0.991779 -0.187810
C22   C     C_2   0.135708 0.230143 0.163561 -0.203552
C23   C     C_2   0.768323 0.139987 0.952045 -0.087241
C24   C     C_2   0.312188 0.692733 0.855508 -0.089322
C25   C     C_2   0.231835 0.139511 0.049677 -0.080236
C26   C     C_2   0.687025 0.690941 0.146325 -0.103677
C27   C     C_2   0.266559 0.642185 0.953431 -0.082539
C28   C     C_R   0.666755 0.108878 0.197079 -0.077312
C29   C     C_2   0.812823 0.191988 0.855334 -0.092954
C30   C     C_2   0.731702 0.639002 0.049135 -0.079626
C31   C     C_2   0.187120 0.190081 0.148649 -0.084452
C32   C     C_R   0.587170 0.149875 0.591516 0.169482
C33   C     C_R   0.388756 0.883403 0.406275 0.165929
C34   C     C_R   0.412940 0.150078 0.408948 0.169138
C35   C     C_R   0.616216 0.894056 0.591180 0.168884
C36   C     C_R   0.087150 0.649980 0.591397 0.165916
C37   C     C_R   0.888020 0.384074 0.406699 0.163790
C38   C     C_R   0.911058 0.649923 0.410151 0.178184
C39   C     C_R   0.353136 0.852949 0.754829 -0.102314
C40   C     C_R   0.111368 0.383812 0.593719 0.167967
C41   C     C_R   0.662648 0.147423 0.406254 -0.142621
C42   C     C_R   0.314431 0.884154 0.592652 -0.138352
C43   C     C_R   0.337409 0.147638 0.594149 -0.149746
C44   C     C_R   0.689544 0.895948 0.405998 -0.156050
C45   C     C_R   0.162657 0.647402 0.406174 -0.149356
C46   C     C_R   0.813978 0.385179 0.593095 -0.132919
C47   C     C_R   0.836078 0.646446 0.595876 -0.139503
C48   C     C_R   0.185868 0.384697 0.407413 -0.139642
C49   C     C_R   0.582206 0.100245 0.189909 -0.116767
C50   C     C_R   0.833137 0.608563 0.803493 -0.091738
C51   C     C_R   0.441694 0.854729 0.755505 -0.122364
C52   C     C_R   0.417895 0.100594 0.810019 -0.116698
C53   C     C_R   0.558600 0.854410 0.244447 -0.119347
C54   C     C_R   0.080419 0.604820 0.192665 -0.118298
C55   C     C_R   0.941270 0.354931 0.756276 -0.121972
C56   C     C_R   0.917911 0.600342 0.810091 -0.117709
C57   C     C_R   0.056667 0.351668 0.250849 -0.124878
C58   C     C_R   0.349132 0.121288 0.871738 0.114560
C59   C     C_R   0.614145 0.809158 0.216187 0.127500
C60   C     C_R   0.650925 0.120931 0.128480 0.114783
C61   C     C_R   0.146269 0.351924 0.247845 -0.100095
C62   C     C_R   0.385707 0.809895 0.784965 0.132659
C63   C     C_R   0.849078 0.620737 0.871950 0.124311
C64   C     C_R   0.112702 0.307149 0.221354 0.132278
C65   C     C_R   0.149281 0.625482 0.131111 0.117007
C66   C     C_R   0.885429 0.310058 0.785529 0.131982
C67   C     C_R   0.637021 0.194318 0.498918 0.022284
C68   C     C_R   0.325598 0.855895 0.499023 0.025686
C69   C     C_R   0.363009 0.194640 0.501824 0.026273
C70   C     C_R   0.683490 0.878055 0.497836 0.010952
C71   C     C_R   0.137086 0.694374 0.498715 0.027031
C72   C     C_R   0.166121 0.610652 0.197990 -0.078297
C73   C     C_R   0.824617 0.357528 0.499854 0.019893
C74   C     C_R   0.859920 0.693303 0.505011 0.002253
C75   C     C_R   0.174783 0.356656 0.500959 0.026358
C76   C     C_3   0.335988 0.307280 0.410101 -0.252676
C77   C     C_3   0.715397 0.762723 0.560159 -0.287757
C78   C     C_3   0.663497 0.306901 0.591561 -0.245289
C79   C     C_3   0.291748 0.757020 0.410186 -0.295725
C80   C     C_3   0.839447 0.833747 0.444320 -0.234815
C81   C     C_3   0.208484 0.257815 0.589777 -0.296125
C82   C     C_3   0.164300 0.806831 0.590588 -0.251597
C83   C     C_R   0.853060 0.352926 0.754917 -0.103495
C84   C     C_3   0.791266 0.258366 0.410753 -0.288939
C85   C     C_3   0.769152 0.870578 0.547013 -0.213411
C86   C     C_3   0.266504 0.204437 0.494465 -0.204325
C87   C     C_3   0.222826 0.861208 0.494609 -0.225842
C88   C     C_3   0.733867 0.204519 0.505546 -0.205145
C89   C     C_3   0.277278 0.361825 0.506191 -0.226277
C90   C     C_3   0.784182 0.727137 0.457826 -0.221530
C91   C     C_3   0.721570 0.361862 0.496025 -0.236386
C92   C     C_3   0.233896 0.703787 0.505413 -0.206194
C93   C     C_3   0.736279 0.841748 0.496654 0.051249
C94   C     C_3   0.283149 0.264693 0.406191 0.403973
C95   C     C_3   0.318317 0.247589 0.500180 0.070367
C96   C     C_3   0.274406 0.817313 0.499227 0.046881
C97   C     C_3   0.681476 0.247345 0.500878 0.074107
C98   C     C_3   0.225956 0.318091 0.500894 0.047449
C99   C     C_3   0.817922 0.754551 0.507714 0.069294
C100  C     C_3   0.773469 0.318488 0.500318 0.047441
C101  C     C_3   0.181834 0.747109 0.500379 0.069148
C102  C     C_3   0.567805 0.157865 0.766878 -0.886194
C103  C     C_3   0.447883 0.957049 0.226792 -0.921007
C104  C     C_3   0.432255 0.157245 0.233633 -0.882342
H1    H     H_    0.281987 0.106918 0.828474 0.090767
H2    H     H_    0.266023 0.886383 0.677840 0.153443
H3    H     H_    0.293635 0.160411 0.680653 0.155464
H4    H     H_    0.736122 0.900797 0.319911 0.172559
H5    H     H_    0.206556 0.659934 0.319795 0.154853
H6    H     H_    0.765730 0.387569 0.678456 0.152809
H7    H     H_    0.793708 0.658401 0.682916 0.167512
H8    H     H_    0.234364 0.387138 0.322360 0.152122
H9    H     H_    0.558928 0.087834 0.152580 0.129808
H10   H     H_    0.477459 0.836988 0.767847 0.139849
H11   H     H_    0.441296 0.088452 0.847198 0.129766
H12   H     H_    0.692206 0.836694 0.235593 0.116547
H13   H     H_    0.523507 0.836541 0.230850 0.139946
H14   H     H_    0.056052 0.596103 0.156390 0.135423
H15   H     H_    0.976434 0.337189 0.769786 0.138308
H16   H     H_    0.941411 0.588063 0.847083 0.128085
H17   H     H_    0.018849 0.329608 0.245667 0.143144
H18   H     H_    0.761825 0.930503 0.583333 0.168289
H19   H     H_    0.262911 0.139018 0.489184 0.155092
H20   H     H_    0.220338 0.926744 0.489237 0.163978
H21   H     H_    0.738027 0.139117 0.509947 0.156629
H22   H     H_    0.279646 0.427353 0.511919 0.163743
H23   H     H_    0.717833 0.106914 0.172299 0.092847
H24   H     H_    0.786493 0.667210 0.425760 0.161985
H25   H     H_    0.718557 0.427370 0.491221 0.160112
H26   H     H_    0.237577 0.638354 0.510360 0.154974
H27   H     H_    0.388129 0.328970 0.337465 0.152154
H28   H     H_    0.664318 0.732857 0.607260 0.158982
H29   H     H_    0.611246 0.328331 0.664587 0.151195
H30   H     H_    0.343738 0.734000 0.338197 0.155832
H31   H     H_    0.891035 0.862166 0.397458 0.161209
H32   H     H_    0.156496 0.234861 0.661428 0.155457
H33   H     H_    0.112168 0.828653 0.663489 0.154831
H34   H     H_    0.306600 0.837970 0.768336 0.127430
H35   H     H_    0.843576 0.236403 0.338289 0.160814
H36   H     H_    0.296035 0.708444 0.807506 0.176573
H37   H     H_    0.789635 0.114302 0.988283 0.131448
H38   H     H_    0.703733 0.706935 0.193522 0.143036
H39   H     H_    0.210300 0.114095 0.013611 0.129106
H40   H     H_    0.796400 0.207561 0.807662 0.175837
H41   H     H_    0.287862 0.614244 0.988444 0.128088
H42   H     H_    0.205259 0.207163 0.193388 0.176160
H43   H     H_    0.710376 0.613065 0.013017 0.133074
H44   H     H_    0.377337 0.718128 0.893676 0.149664
H45   H     H_    0.781922 0.606039 0.828894 0.100044
H46   H     H_    0.679142 0.167168 0.971625 0.172409
H47   H     H_    0.621548 0.716608 0.108972 0.154370
H48   H     H_    0.321398 0.166953 0.028683 0.171865
H49   H     H_    0.877737 0.218347 0.893629 0.148614
H50   H     H_    0.177335 0.674989 0.975719 0.173153
H51   H     H_    0.117899 0.212827 0.118262 0.147238
H52   H     H_    0.820940 0.666934 0.028933 0.154508
H53   H     H_    0.525929 0.233095 0.716826 0.171523
H54   H     H_    0.527964 0.123201 0.842963 0.251133
H55   H     H_    0.574533 0.213815 0.796695 0.282820
H56   H     H_    0.192799 0.337141 0.234477 0.126802
H57   H     H_    0.617050 0.123466 0.715585 0.277652
H58   H     H_    0.382474 0.860380 0.278997 0.203236
H59   H     H_    0.498375 0.939371 0.145909 0.259148
H60   H     H_    0.457226 0.000534 0.268669 0.265470
H61   H     H_    0.416372 0.986118 0.208594 0.268139
H62   H     H_    0.473565 0.233247 0.283996 0.171562
H63   H     H_    0.471964 0.121774 0.158094 0.250140
H64   H     H_    0.425851 0.212920 0.203022 0.282724
H65   H     H_    0.382878 0.123344 0.285164 0.278477
H66   H     H_    0.617767 0.860658 0.720048 0.214047
H67   H     H_    0.217430 0.608658 0.172310 0.089985
H68   H     H_    0.502482 0.938097 0.857734 0.261037
H69   H     H_    0.539688 0.001665 0.738657 0.264348
H70   H     H_    0.583578 0.987393 0.794274 0.266362
H71   H     H_    0.026318 0.733391 0.716548 0.172375
H72   H     H_    0.028086 0.622739 0.842485 0.249096
H73   H     H_    0.074516 0.713497 0.796843 0.285442
H74   H     H_    0.117151 0.623375 0.715214 0.276691
H75   H     H_    0.876665 0.367442 0.284279 0.205117
H76   H     H_    0.008899 0.408732 0.139281 0.263521
H77   H     H_    0.976868 0.484452 0.245024 0.270469
H78   H     H_    0.806669 0.337732 0.768066 0.128098
H79   H     H_    0.940867 0.471979 0.175677 0.262344
H80   H     H_    0.949460 0.730606 0.281133 0.202281
H81   H     H_    0.964502 0.606597 0.162172 0.258670
H82   H     H_    0.889614 0.667180 0.234736 0.291137
H83   H     H_    0.885074 0.577258 0.299820 0.257055
H84   H     H_    0.117430 0.361112 0.721232 0.202709
H85   H     H_    0.001258 0.440553 0.853929 0.256374
H86   H     H_    0.043003 0.501428 0.731121 0.266921
H87   H     H_    0.083186 0.486735 0.792229 0.269161
H88   H     H_    0.706431 0.160104 0.319845 0.156300
N1    N     N_R   0.389620 0.081040 0.705440 -0.048379
N2    N     N_R   0.417680 0.920160 0.443370 -0.058860
N3    N     N_R   0.417680 0.079840 0.443370 -0.068725
N4    N     N_R   0.582320 0.920160 0.556630 -0.059052
N5    N     N_R   0.082320 0.579840 0.556630 -0.068526
N6    N     N_R   0.917680 0.420160 0.443370 -0.058454
N7    N     N_R   0.917680 0.579840 0.443370 -0.062641
N8    N     N_R   0.082320 0.420160 0.556630 -0.058185
N9    N     N_R   0.627920 0.078930 0.443400 -0.061181
N10   N     N_R   0.372080 0.921070 0.556600 -0.059525
N11   N     N_R   0.372080 0.078930 0.556600 -0.062431
N12   N     N_R   0.610380 0.918960 0.294560 -0.048463
N13   N     N_R   0.627920 0.921070 0.443400 -0.060473
N14   N     N_R   0.127920 0.578930 0.443400 -0.062449
N15   N     N_R   0.872080 0.421070 0.556600 -0.059591
N16   N     N_R   0.872080 0.578930 0.556600 -0.062803
N17   N     N_R   0.127920 0.421070 0.443400 -0.059281
N18   N     N_R   0.555090 0.077730 0.294590 -0.049211
N19   N     N_R   0.444910 0.922270 0.705410 -0.044178
N20   N     N_R   0.444910 0.077730 0.705410 -0.049337
N21   N     N_R   0.555090 0.922270 0.294590 -0.044489
N22   N     N_R   0.055090 0.577730 0.294590 -0.050132
N23   N     N_R   0.610380 0.081040 0.294560 -0.048824
N24   N     N_R   0.944910 0.422270 0.705410 -0.043509
N25   N     N_R   0.944910 0.577730 0.705410 -0.048937
N26   N     N_R   0.055090 0.422270 0.294590 -0.044845
N27   N     N_2   0.544418 0.175928 0.704730 -0.124680
N28   N     N_2   0.412239 0.887183 0.294531 -0.126244
N29   N     N_2   0.455515 0.175942 0.295838 -0.124622
N30   N     N_2   0.588689 0.890082 0.704897 -0.126819
N31   N     N_2   0.044486 0.676067 0.704593 -0.125561
N32   N     N_2   0.911487 0.384627 0.294558 -0.125983
N33   N     N_2   0.943129 0.670494 0.297600 -0.116483
N34   N     N_R   0.389620 0.918960 0.705440 -0.049617
N35   N     N_2   0.087668 0.387799 0.705608 -0.126549
N36   N     N_R   0.889620 0.581040 0.705440 -0.049945
N37   N     N_R   0.110380 0.418960 0.294560 -0.049158
N38   N     N_R   0.110380 0.581040 0.294560 -0.048593
N39   N     N_R   0.889620 0.418960 0.705440 -0.049263
N40   N     N_R   0.582320 0.079840 0.556630 -0.067666
Ni1   Ni    Ni4+2 0.382970 1.000000 0.629840 0.211120
Ni2   Ni    Ni4+2 0.617030 0.000000 0.370160 0.215427
Ni3   Ni    Ni4+2 0.882970 0.500000 0.629840 0.212470
Ni4   Ni    Ni4+2 0.117030 0.500000 0.370160 0.210352
Ni5   Ni    Ni4+2 0.514540 1.000000 0.629840 0.215460
Ni6   Ni    Ni4+2 0.485460 0.000000 0.370160 0.214596
Ni7   Ni    Ni4+2 0.014540 0.500000 0.629840 0.214594
Ni8   Ni    Ni4+2 0.985460 0.500000 0.370160 0.216195

loop_
_geom_bond_atom_site_label_1
_geom_bond_atom_site_label_2
_ccdc_geom_bond_type
N6    N15   A    
N25   Ni7   S    
Br2   C2    S    
C6    H83   S    
C2    C77   S    
C68   C96   S    
C37   N6    A    
C102  H54   S    
H58   N28   S    
C52   H11   S    
C76   C94   S    
N11   Ni1   S    
N6    Ni8   S    
C17   C59   A    
N9    N40   A    
C84   C88   S    
C88   C97   S    
C76   C89   S    
C20   C66   S    
N7    Ni8   S    
C43   C69   A    
C26   H38   S    
C35   N30   S    
N1    Ni1   S    
H80   N33   S    
C47   H7    S    
C28   C60   A    
C35   C70   A    
Br6   C11   S    
C55   H15   S    
C25   C31   S    
C4    N31   S    
C78   H29   S    
C11   C81   S    
C18   C59   S    
N18   Ni6   S    
N36   Ni3   S    
N13   Ni2   S    
C45   C71   A    
C36   N31   S    
H66   N30   S    
C82   H33   S    
C50   N36   A    
C102  N27   S    
C52   N20   A    
C19   H50   S    
C23   H37   S    
C45   H5    S    
C50   C63   A    
C41   N9    A    
N21   Ni6   S    
N23   Ni2   S    
N38   Ni4   S    
H53   N27   S    
C5    H77   S    
N14   Ni4   S    
C103  H60   S    
C56   C63   A    
C72   N38   A    
C81   C86   S    
C1    C58   A    
C56   N25   A    
C90   H24   S    
N12   Ni2   S    
C77   C90   S    
C38   C74   A    
C11   C95   S    
C18   C26   D    
C15   C62   S    
C43   N11   A    
C76   H27   S    
C56   H16   S    
C3    H69   S    
C21   C30   D    
C57   N26   A    
C33   C68   A    
N19   Ni5   S    
C54   C65   A    
C9    C87   S    
C37   N32   S    
C7    N35   S    
C80   H31   S    
N4    Ni5   S    
C16   C58   S    
C39   N34   A    
N16   Ni3   S    
C6    H82   S    
C73   C100  S    
C52   C58   A    
C92   C101  S    
N26   N37   A    
C103  H61   S    
C15   H44   S    
C84   H35   S    
C8    C78   S    
C48   H8    S    
N19   N34   A    
N3    N11   A    
C2    C99   S    
C38   N7    A    
C3    H70   S    
N22   Ni8   S    
C30   H43   S    
N2    N10   A    
C45   N14   A    
C44   C70   A    
C32   C67   A    
C48   N17   A    
N24   N39   A    
C84   C100  S    
C20   H49   S    
C53   N21   A    
N12   N21   A    
C44   H4    S    
C11   C89   S    
C46   N15   A    
N2    Ni6   S    
C83   H78   S    
C8    C88   S    
C14   C23   D    
C71   C101  S    
C31   H42   S    
C72   H67   S    
N18   N23   A    
N1    N20   A    
N7    N16   A    
C25   H39   S    
C85   C93   S    
C47   N16   A    
C54   H14   S    
C7    H86   S    
C8    C100  S    
C1    N1    A    
Br5   C10   S    
C14   H46   S    
C2    C85   S    
C19   C27   D    
C12   C82   S    
N4    N13   A    
N22   N38   A    
C10   C80   S    
C104  N29   S    
C23   C29   S    
C9    C101  S    
N34   Ni1   S    
C42   H2    S    
C10   C93   S    
C26   C30   S    
C66   C83   A    
C81   C98   S    
C17   N12   A    
C22   H51   S    
C24   C27   S    
C39   C62   A    
C91   C100  S    
C16   C25   D    
C42   C68   A    
C7    H87   S    
C102  H55   S    
C53   C59   A    
N24   Ni7   S    
C28   N23   A    
C12   C92   S    
C4    H74   S    
C40   N8    A    
N20   Ni5   S    
C41   C67   A    
Br8   C13   S    
C18   H47   S    
C74   C99   S    
C47   C74   A    
C78   C91   S    
C77   H28   S    
C14   C60   S    
C17   H12   S    
C92   H26   S    
C24   H36   S    
Br4   C9    S    
C104  H64   S    
C6    H81   S    
C86   C95   S    
C67   C97   S    
C3    N30   S    
C46   H6    S    
N40   Ni5   S    
C69   C95   S    
C78   C97   S    
C75   C98   S    
C103  N28   S    
C49   C60   A    
C89   H22   S    
C85   H18   S    
C57   C64   A    
C28   H23   S    
H71   N31   S    
C87   H20   S    
C61   C64   A    
C77   C93   S    
C87   C96   S    
C48   C75   A    
C79   C92   S    
C13   C91   S    
N8    N17   A    
C80   C99   S    
C38   N33   S    
C80   C85   S    
C46   C73   A    
N37   Ni4   S    
C9    C79   S    
N25   N36   A    
C55   N24   A    
C36   C71   A    
C37   C73   A    
C27   H41   S    
N10   Ni1   S    
C22   C64   S    
N5    Ni7   S    
C50   H45   S    
C82   C87   S    
N9    Ni2   S    
N5    N14   A    
C57   H17   S    
C16   H48   S    
N26   Ni8   S    
C88   H21   S    
C12   C96   S    
H84   N35   S    
C81   H32   S    
C21   H52   S    
N15   Ni3   S    
C86   H19   S    
C5    H79   S    
C40   C75   A    
C29   H40   S    
C1    H1    S    
C15   C24   D    
C32   N27   S    
N17   Ni4   S    
C32   N40   A    
C51   N19   A    
C5    N32   S    
C55   C66   A    
C4    H72   S    
N3    Ni6   S    
C102  H57   S    
C20   C29   D    
C51   H10   S    
C7    H85   S    
C4    H73   S    
C44   N13   A    
C65   C72   A    
N8    Ni7   S    
C22   C31   D    
C94   C98   S    
C103  H59   S    
C54   N22   A    
C79   H30   S    
H62   N29   S    
C43   H3    S    
C39   H34   S    
C40   N35   S    
C61   H56   S    
C33   N28   S    
C90   C99   S    
C51   C62   A    
C49   H9    S    
C79   C96   S    
C34   N3    A    
C34   N29   S    
C89   C98   S    
C36   N5    A    
C104  H63   S    
C42   N10   A    
C34   C69   A    
N39   Ni3   S    
Br7   C12   S    
C49   N18   A    
C83   N39   A    
C35   N4    A    
C5    H76   S    
C76   C95   S    
C91   H25   S    
C53   H13   S    
C3    H68   S    
C10   C90   S    
C82   C101  S    
C21   C63   S    
C33   N2    A    
C19   C65   S    
C61   N37   A    
Br1   C94   S    
C41   H88   S    
C6    N33   S    
C13   C97   S    
Br3   C8    S    
C86   C94   S    
C104  H65   S    
C70   C93   S    
C13   C84   S    
H75   N32   S    
