data_mof_unit_24908.cif
_audit_creation_date              2012-12-10T17:54:17-0500
_audit_creation_method            fapswitch 2.2
_symmetry_space_group_name_H-M    P1
_symmetry_Int_Tables_number       1
_space_group_crystal_system       triclinic
_cell_length_a                    26.828307
_cell_length_b                    10.556555
_cell_length_c                    10.059439
_cell_angle_alpha                 89.860464
_cell_angle_beta                  92.522879
_cell_angle_gamma                 95.293779
_cell_volume                      2834.0738285

loop_
_atom_site_label
_atom_site_type_symbol
_atom_type_description
_atom_site_fract_x
_atom_site_fract_y
_atom_site_fract_z
_atom_type_partial_charge
C1    C     C_R   0.508720 0.265102 0.501490 0.973597
C2    C     C_R   0.978828 0.636278 0.335772 -0.019901
C3    C     C_R   0.988854 0.785838 0.525084 -0.053999
C4    C     C_R   0.406692 0.515751 0.497051 0.996281
C5    C     C_R   0.957696 0.706001 0.436245 -0.047548
C6    C     C_R   0.948277 0.535598 0.271196 0.453004
C7    C     C_R   0.895829 0.530841 0.275947 0.343269
C8    C     C_R   0.874270 0.613135 0.362801 -0.150828
C9    C     C_R   0.905369 0.689505 0.453045 -0.192772
C10   C     C_R   0.884098 0.746701 0.561342 -0.209233
C11   C     C_R   0.832098 0.721523 0.578155 0.627696
C12   C     C_R   0.302024 0.707711 0.365351 0.353986
C13   C     C_R   0.822272 0.613233 0.370261 0.643994
C14   C     C_R   0.733823 0.486740 0.499756 0.395815
C15   C     C_R   0.682363 0.448617 0.487758 0.393659
C16   C     C_R   0.501184 0.742004 0.501215 0.885182
C17   C     C_R   0.664971 0.666819 0.527208 -0.444423
C18   C     C_R   0.716179 0.708627 0.522400 0.548191
C19   C     C_R   0.750551 0.617758 0.504693 0.013516
C20   C     C_R   0.030963 0.658122 0.315048 -0.040468
C21   C     C_R   0.061734 0.736667 0.404892 -0.051474
C22   C     C_R   0.040634 0.812249 0.499655 -0.029474
C23   C     C_R   0.265221 0.674496 0.456210 0.040162
C24   C     C_R   0.053712 0.610418 0.202499 0.447470
C25   C     C_R   0.124631 0.919445 0.549624 0.353400
C26   C     C_R   0.967785 0.825144 0.643894 0.377790
C27   C     C_R   0.915809 0.816744 0.655595 0.503628
C28   C     C_R   0.594413 0.503492 0.502620 0.952377
C29   C     C_R   0.071690 0.915939 0.559376 0.386755
C30   C     C_R   0.555348 0.129298 0.740298 0.449248
C31   C     C_R   0.550863 0.066966 0.863818 0.342570
C32   C     C_R   0.519279 0.954185 0.870457 -0.207976
C33   C     C_R   0.494625 0.900368 0.755317 0.547512
C34   C     C_R   0.114199 0.738123 0.401125 -0.236304
C35   C     C_R   0.508196 0.950235 0.628867 -0.187332
C36   C     C_R   0.528382 0.076345 0.627660 -0.147083
C37   C     C_R   0.526822 0.140186 0.507094 -0.210539
C38   C     C_R   0.537130 0.075216 0.393146 0.313388
C39   C     C_R   0.532774 0.943075 0.397118 0.461067
C40   C     C_R   0.186770 0.640914 0.330999 0.645492
C41   C     C_R   0.509749 0.880304 0.506754 -0.288557
C42   C     C_R   0.441395 0.303900 0.132296 0.466301
C43   C     C_R   0.431539 0.185964 0.070688 0.257801
C44   C     C_R   0.428158 0.182409 0.932509 0.200044
C45   C     C_R   0.135634 0.657752 0.312420 -0.133243
C46   C     C_R   0.441078 0.296166 0.860259 0.428753
C47   C     C_R   0.470900 0.402586 0.925498 -0.153967
C48   C     C_R   0.470481 0.405363 0.069364 -0.238811
C49   C     C_R   0.530071 0.584959 0.075884 0.493643
C50   C     C_R   0.529811 0.586296 0.932832 0.362734
C51   C     C_R   0.196535 0.800179 0.500357 0.695675
C52   C     C_R   0.275466 0.599208 0.567458 0.376768
C53   C     C_R   0.323458 0.557293 0.588860 0.292924
C54   C     C_R   0.347857 0.651698 0.376178 0.225334
C55   C     C_3   0.216110 0.446766 0.631141 -0.217609
C56   C     C_R   0.105665 0.599250 0.207264 0.392681
C57   C     C_3   0.893802 0.994916 0.753745 -0.167331
C58   C     C_3   0.714186 0.903420 0.625191 -0.216005
C59   C     C_3   0.069687 0.063419 0.732791 -0.165315
C60   C     C_3   0.637787 0.190142 0.715880 -0.236160
C61   C     C_3   0.570132 0.228327 0.014779 -0.183925
C62   C     C_3   0.606331 0.903223 0.303714 -0.139105
C63   C     C_3   0.366481 0.334823 0.216022 -0.192768
C64   C     C_3   0.445793 0.988414 0.150951 -0.159550
C65   C     C_3   0.363260 0.022321 0.895097 -0.184232
C66   C     C_3   0.377689 0.244750 0.692415 -0.083016
C67   C     C_R   0.145296 0.818946 0.486729 -0.112225
C68   C     C_3   0.672774 0.298724 0.324824 -0.245417
C69   C     C_3   0.786233 0.370542 0.621235 -0.286431
C70   C     C_3   0.013664 0.689047 0.020795 -0.218341
C71   C     C_3   0.344121 0.574044 0.810363 -0.165444
C72   C     C_R   0.358134 0.572820 0.487083 -0.362060
C73   C     C_R   0.648217 0.538249 0.508749 -0.212902
H1    H     H_    0.637543 0.734877 0.537172 0.169902
H2    H     H_    0.868803 0.015013 0.666357 0.142477
H3    H     H_    0.931512 0.046912 0.744494 0.171310
H4    H     H_    0.715558 0.849981 0.720767 0.188697
H5    H     H_    0.675503 0.927394 0.600125 0.119421
H6    H     H_    0.737845 0.994532 0.640392 0.187952
H7    H     H_    0.093542 0.153955 0.721321 0.160030
H8    H     H_    0.090955 0.992838 0.788491 0.165406
H9    H     H_    0.038611 0.085881 0.795356 0.204984
H10   H     H_    0.569834 0.222834 0.308322 0.342438
H11   H     H_    0.639921 0.135084 0.622511 0.177942
H12   H     H_    0.513928 0.907745 0.965278 0.195480
H13   H     H_    0.648454 0.131849 0.803002 0.171750
H14   H     H_    0.665786 0.273975 0.714249 0.205973
H15   H     H_    0.533339 0.221926 0.060170 0.159511
H16   H     H_    0.570789 0.300725 0.935073 0.179546
H17   H     H_    0.599131 0.264400 0.090201 0.177131
H18   H     H_    0.323127 0.839688 0.239510 0.348218
H19   H     H_    0.433208 0.808237 0.689170 0.327728
H20   H     H_    0.617218 0.965256 0.218561 0.217729
H21   H     H_    0.624298 0.813542 0.293940 0.192018
H22   H     H_    0.622444 0.948758 0.398015 0.102713
H23   H     H_    0.365854 0.684847 0.193405 0.334312
H24   H     H_    0.584457 0.720458 0.092712 0.364291
H25   H     H_    0.346764 0.250769 0.163544 0.162042
H26   H     H_    0.362747 0.422247 0.155647 0.149734
H27   H     H_    0.346934 0.345463 0.309644 0.165710
H28   H     H_    0.436686 0.918674 0.069546 0.183609
H29   H     H_    0.485673 0.025989 0.146542 0.205410
H30   H     H_    0.441152 0.935815 0.245788 0.191504
H31   H     H_    0.340952 0.094520 0.939031 0.144318
H32   H     H_    0.363420 0.938980 0.962065 0.195926
H33   H     H_    0.343160 0.987663 0.801578 0.167923
H34   H     H_    0.243227 0.374100 0.647898 0.191442
H35   H     H_    0.350483 0.252541 0.771570 0.146506
H36   H     H_    0.380321 0.145707 0.659256 0.175966
H37   H     H_    0.362838 0.292060 0.602778 0.164245
H38   H     H_    0.563029 0.654544 0.778527 0.386245
H39   H     H_    0.102100 0.493388 0.046890 0.369608
H40   H     H_    0.713112 0.305788 0.302529 0.229903
H41   H     H_    0.652732 0.363919 0.258805 0.150646
H42   H     H_    0.657590 0.199647 0.301634 0.188198
H43   H     H_    0.755509 0.333662 0.685686 0.159370
H44   H     H_    0.807462 0.456019 0.667307 0.176286
H45   H     H_    0.199178 0.438712 0.528150 0.151339
H46   H     H_    0.812495 0.295740 0.615095 0.189038
H47   H     H_    0.842565 0.394916 0.266140 0.373881
H48   H     H_    0.945266 0.367246 0.185270 0.379910
H49   H     H_    0.047891 0.750180 0.994723 0.154263
H50   H     H_    0.989223 0.743687 0.081075 0.173456
H51   H     H_    0.992130 0.660887 0.927299 0.222888
H52   H     H_    0.309847 0.617822 0.837519 0.201261
H53   H     H_    0.374507 0.649161 0.789337 0.179777
H54   H     H_    0.357001 0.519812 0.897985 0.158119
H55   H     H_    0.185447 0.425702 0.700596 0.193269
H56   H     H_    0.140809 0.100156 0.557799 0.338869
H57   H     H_    0.026611 0.807781 0.757343 0.312712
H58   H     H_    0.877312 0.031843 0.843437 0.187028
N1    N     N_R   0.215208 0.707289 0.428198 -0.318231
N2    N     N_R   0.802386 0.656503 0.482322 -0.317783
N3    N     N_R   0.499540 0.498800 0.142780 -0.104275
N4    N     N_R   0.499520 0.498720 0.857170 -0.119927
O1    O     O_R   0.500000 0.316780 0.614690 -0.536483
O2    O     O_R   0.571250 0.499990 0.614680 -0.627891
O3    O     O_R   0.571240 0.499970 0.385350 -0.602524
O4    O     O_2   0.207761 0.555708 0.256482 -0.490473
O5    O     O_3   0.383261 0.674443 0.281124 -0.748558
O6    O     O_3   0.238694 0.570591 0.657795 -0.579048
O7    O     O_3   0.156218 0.023615 0.590712 -0.723713
O8    O     O_3   0.996338 0.854830 0.758502 -0.763501
O9    O     O_3   0.896982 0.863117 0.769777 -0.534513
O10   O     O_3   0.733073 0.837026 0.519463 -0.583214
O11   O     O_3   0.048994 0.019575 0.607176 -0.600919
O12   O     O_2   0.791498 0.568593 0.267718 -0.520032
O13   O     O_3   0.555521 0.136218 0.282442 -0.784598
O14   O     O_3   0.589878 0.233515 0.725255 -0.600630
O15   O     O_3   0.580867 0.106331 0.974234 -0.595409
O16   O     O_3   0.291388 0.793063 0.266094 -0.730740
O17   O     O_3   0.454969 0.809964 0.771645 -0.744175
O18   O     O_3   0.553468 0.875538 0.298984 -0.557764
O19   O     O_3   0.562612 0.666794 0.151192 -0.706525
O20   O     O_3   0.417563 0.318842 0.247929 -0.520493
O21   O     O_3   0.412376 0.084097 0.146027 -0.595858
O22   O     O_3   0.412995 0.068960 0.865877 -0.603325
O23   O     O_2   0.227070 0.870273 0.587768 -0.492786
O24   O     O_3   0.425850 0.303895 0.727889 -0.533157
O25   O     O_3   0.561922 0.676143 0.873105 -0.806313
O26   O     O_3   0.128039 0.538351 0.107131 -0.689271
O27   O     O_3   0.665418 0.323404 0.460025 -0.630517
O28   O     O_3   0.767735 0.396296 0.491667 -0.598729
O29   O     O_3   0.867118 0.436480 0.205206 -0.735864
O30   O     O_3   0.970680 0.433690 0.221139 -0.711774
O31   O     O_3   0.026280 0.577423 0.085916 -0.590085
O32   O     O_3   0.334242 0.489205 0.702373 -0.607944
O33   O     O_2   0.811596 0.757863 0.690273 -0.503304
O34   O     O_R   0.500000 0.316750 0.385360 -0.589687
O35   O     O_R   0.428760 0.500030 0.614650 -0.527234
O36   O     O_R   0.428750 0.500010 0.385320 -0.506684
O37   O     O_R   0.500000 0.683250 0.614640 -0.629251
O38   O     O_R   0.500000 0.683220 0.385310 -0.505905
Zn1   Zn    Zn3+2 0.500000 0.500020 0.653130 1.026503
Zn2   Zn    Zn3+2 0.500000 0.499980 0.346870 1.065303

loop_
_geom_bond_atom_site_label_1
_geom_bond_atom_site_label_2
_ccdc_geom_bond_type
C16   O38   A    
C10   C27   A    
C64   H30   S    
C49   N3    A    
C69   H43   S    
C8    C13   A    
C55   O6    S    
C22   C29   A    
C55   H55   S    
C15   O27   S    
C35   C36   A    
C25   C67   A    
C59   H9    S    
C43   C44   A    
C18   O10   S    
C58   O10   S    
C7    C8    A    
C39   C41   A    
C31   C32   A    
C52   C53   A    
C64   H29   S    
H39   O26   S    
C12   C23   A    
C26   C27   A    
C37   C38   A    
C4    O35   A    
C39   O18   S    
C57   H3    S    
C48   N3    A    
C36   C37   A    
C4    O36   A    
C63   H25   S    
C50   N4    A    
C70   O31   S    
C30   C31   A    
C32   H12   S    
C40   O4    S    
C18   C19   A    
C69   H44   S    
C14   O28   S    
C70   H49   S    
C63   H26   S    
C58   H4    S    
C33   C35   A    
C70   H50   S    
C53   O32   S    
C54   O5    S    
C20   C24   A    
C45   C56   A    
C44   C46   A    
C8    C9    A    
H19   O17   S    
C71   H53   S    
C1    O1    A    
C61   O15   S    
C1    C37   S    
C68   H40   S    
C40   N1    A    
C6    O30   S    
C71   O32   S    
C62   H22   S    
C17   C73   A    
C44   O22   S    
C12   O16   S    
C71   H54   S    
C2    C6    A    
C58   H5    S    
C28   C73   S    
C9    C10   A    
C65   H32   S    
C66   O24   S    
C60   H14   S    
C61   H16   S    
C27   O9    S    
O38   Zn2   S    
C25   C29   A    
C40   C45   A    
O1    Zn1   S    
N3    Zn2   S    
C2    C20   A    
N4    Zn1   S    
C59   H8    S    
C49   O19   S    
C28   O3    A    
C65   O22   S    
C29   O11   S    
C31   O15   S    
C60   H13   S    
C30   O14   S    
C42   C48   A    
C64   H28   S    
C50   O25   S    
O36   Zn2   S    
C56   O26   S    
C69   H46   S    
C55   H34   S    
C38   C39   A    
C34   C67   A    
C24   O31   S    
H38   O25   S    
C5    C9    A    
C63   H27   S    
C61   H15   S    
C16   O37   A    
C47   C48   A    
C21   C34   A    
C17   C18   A    
O34   Zn2   S    
C34   C45   A    
C51   C67   A    
H24   O19   S    
C66   H37   S    
H57   O8    S    
C38   O13   S    
C58   H6    S    
C15   C73   A    
C62   H21   S    
C17   H1    S    
C2    C5    A    
C24   C56   A    
C42   C43   A    
C13   O12   S    
C26   O8    S    
C65   H33   S    
C4    C72   S    
C61   H17   S    
O35   Zn1   S    
C46   C47   A    
C57   O9    S    
C47   N4    A    
C13   N2    A    
C14   C19   A    
C57   H58   S    
C3    C26   A    
C28   O2    A    
C69   O28   S    
C66   H35   S    
C3    C5    A    
C33   O17   S    
C59   H7    S    
H23   O5    S    
C51   N1    A    
C6    C7    A    
H56   O7    S    
C68   O27   S    
C19   N2    S    
H48   O30   S    
C7    O29   S    
C64   O21   S    
C51   O23   S    
C52   O6    S    
C62   O18   S    
C30   C36   A    
C32   C33   A    
C57   H2    S    
C11   N2    A    
C42   O20   S    
C63   O20   S    
O2    Zn1   S    
H18   O16   S    
C60   H11   S    
C25   O7    S    
C23   C52   A    
C11   O33   S    
C46   O24   S    
C1    O34   A    
O37   Zn1   S    
C23   N1    S    
C60   O14   S    
C66   H36   S    
C35   C41   A    
C10   C11   A    
H47   O29   S    
C68   H42   S    
H10   O13   S    
C59   O11   S    
C70   H51   S    
C54   C72   A    
C20   C21   A    
C49   C50   A    
C62   H20   S    
O3    Zn2   S    
C14   C15   A    
C71   H52   S    
C3    C22   A    
C65   H31   S    
C21   C22   A    
C53   C72   A    
C16   C41   S    
C12   C54   A    
C43   O21   S    
C68   H41   S    
C55   H45   S    
