data_mof_unit_28073.cif
_audit_creation_date              2012-10-26T19:03:27-0400
_audit_creation_method            fapswitch 2.2
_symmetry_space_group_name_H-M    P1
_symmetry_Int_Tables_number       1
_space_group_crystal_system       triclinic
_cell_length_a                    10.778755
_cell_length_b                    13.006451
_cell_length_c                    11.672591
_cell_angle_alpha                 100.174321
_cell_angle_beta                  93.511813
_cell_angle_gamma                 90.467259
_cell_volume                      1607.36225153

loop_
_atom_site_label
_atom_site_type_symbol
_atom_type_description
_atom_site_fract_x
_atom_site_fract_y
_atom_site_fract_z
_atom_type_partial_charge
C1    C     C_R   0.498062 0.299078 0.478280 0.548921
C2    C     C_R   0.516374 0.122942 0.357293 -0.137735
C3    C     C_R   0.479257 0.139850 0.562821 -0.128796
C4    C     C_R   0.262539 0.503441 0.500977 0.537637
C5    C     C_R   0.482704 0.032075 0.553675 0.021419
C6    C     C_R   0.504322 0.969009 0.445675 0.038774
C7    C     C_R   0.510273 0.861294 0.437600 -0.162206
C8    C     C_R   0.473462 0.879016 0.644362 0.123701
C9    C     C_R   0.466030 0.986928 0.651553 -0.127740
C10   C     C_R   0.376042 0.407929 0.022417 -0.175675
C11   C     C_R   0.388953 0.415796 0.144425 0.046287
C12   C     C_R   0.071238 0.593270 0.573904 0.023059
C13   C     C_R   0.554565 0.538880 0.156694 0.047575
C14   C     C_R   0.545371 0.533098 0.033968 0.006814
C15   C     C_R   0.454487 0.466991 0.966062 0.007155
C16   C     C_R   0.499875 0.701231 0.522045 0.545653
C17   C     C_R   0.444914 0.461609 0.843382 0.048867
C18   C     C_R   0.612485 0.582702 0.855422 0.051713
C19   C     C_R   0.624731 0.591251 0.977491 -0.180414
C20   C     C_R   0.737527 0.503862 0.499904 0.539446
C21   C     C_R   0.140334 0.677176 0.643303 -0.103548
C22   C     C_R   0.080456 0.758880 0.710797 -0.117812
C23   C     C_R   0.129020 0.510353 0.502465 0.003138
C24   C     C_R   0.951318 0.759633 0.709097 -0.127403
C25   C     C_R   0.881254 0.678665 0.639933 -0.113842
C26   C     C_R   0.939944 0.593964 0.572354 0.027176
C27   C     C_3   0.564607 0.845015 0.826638 -0.292448
C28   C     C_R   0.058536 0.433017 0.427637 -0.153915
C29   C     C_R   0.930539 0.433569 0.426391 -0.152742
C30   C     C_R   0.871194 0.511547 0.499867 0.003421
C31   C     C_R   0.495444 0.815311 0.536020 0.018960
C32   C     C_R   0.497308 0.185710 0.465363 0.003004
C33   C     C_R   0.520099 0.014843 0.347535 -0.132210
Cu1   Cu    Cu3+1 0.509250 0.507730 0.615930 0.938263
Cu2   Cu    Cu3+1 0.490750 0.492270 0.384070 0.928032
H1    H     H_    0.103125 0.370561 0.371606 0.119168
H2    H     H_    0.623714 0.590040 0.209792 0.116451
H3    H     H_    0.240560 0.681840 0.644675 0.153112
H4    H     H_    0.134456 0.822607 0.763439 0.105511
H5    H     H_    0.905128 0.823941 0.760368 0.102532
H6    H     H_    0.781235 0.684542 0.638244 0.121440
H7    H     H_    0.877462 0.371292 0.369915 0.126150
H8    H     H_    0.527296 0.813340 0.354350 0.122911
H9    H     H_    0.536238 0.967349 0.263887 0.100845
H10   H     H_    0.377581 0.862495 0.787132 0.233203
H11   H     H_    0.546403 0.803971 0.899758 0.138795
H12   H     H_    0.448622 0.035485 0.734345 0.099145
H13   H     H_    0.586299 0.928520 0.862989 0.122256
H14   H     H_    0.646067 0.809279 0.782154 0.146422
H15   H     H_    0.530299 0.157391 0.280976 0.126968
H16   H     H_    0.463103 0.187993 0.646210 0.116982
H17   H     H_    0.375401 0.410814 0.790324 0.116037
H18   H     H_    0.675058 0.626886 0.812852 0.118307
H19   H     H_    0.305273 0.356038 0.972678 0.085357
H20   H     H_    0.696099 0.642585 0.027098 0.084195
H21   H     H_    0.328005 0.369960 0.186862 0.123133
N1    N     N_R   0.523180 0.519350 0.790130 -0.224592
N2    N     N_R   0.476820 0.480650 0.209890 -0.228454
N3    N     N_2   0.456082 0.835636 0.745948 -0.491538
O1    O     O_R   0.506570 0.354460 0.582000 -0.505479
O2    O     O_R   0.490940 0.341410 0.386200 -0.508786
O3    O     O_R   0.327470 0.506530 0.597920 -0.511912
O4    O     O_R   0.311840 0.493480 0.402120 -0.502219
O5    O     O_R   0.509060 0.658590 0.613800 -0.478154
O6    O     O_R   0.493430 0.645540 0.418000 -0.516403
O7    O     O_R   0.688160 0.506520 0.597880 -0.507838
O8    O     O_R   0.672530 0.493470 0.402080 -0.506074

loop_
_geom_bond_atom_site_label_1
_geom_bond_atom_site_label_2
_ccdc_geom_bond_type
C27   H13   S    
Cu1   N1    S    
Cu2   O4    S    
C5    C9    A    
C6    C7    A    
C13   N2    A    
C7    H8    S    
C29   H7    S    
C11   N2    A    
C16   O5    A    
C18   N1    A    
C13   H2    S    
C4    O4    A    
C6    C33   A    
Cu2   O8    S    
Cu1   Cu2   S    
Cu1   O7    S    
Cu1   O5    S    
C2    C33   A    
C3    C32   A    
Cu2   O2    S    
C20   C30   S    
C21   C22   A    
C16   C31   S    
Cu1   O1    S    
C33   H9    S    
C12   C23   A    
C29   C30   A    
C11   H21   S    
Cu2   N2    S    
C22   H4    S    
C12   C21   A    
C27   H11   S    
C20   O7    A    
C28   C29   A    
C24   H5    S    
C9    H12   S    
C10   C15   A    
C17   H17   S    
C8    N3    S    
C12   C26   A    
C5    C6    A    
C10   H19   S    
C22   C24   A    
C7    C31   A    
C10   C11   A    
Cu2   O6    S    
C20   O8    A    
C25   H6    S    
C4    O3    A    
Cu1   O3    S    
C24   C25   A    
C28   H1    S    
C2    C32   A    
C18   C19   A    
C1    O1    A    
C19   H20   S    
C15   C17   A    
C4    C23   S    
C3    H16   S    
C14   C15   A    
H10   N3    S    
C27   N3    S    
C16   O6    A    
C2    H15   S    
C18   H18   S    
C25   C26   A    
C13   C14   A    
C8    C31   A    
C14   C19   A    
C1    C32   S    
C23   C28   A    
C21   H3    S    
C27   H14   S    
C17   N1    A    
C8    C9    A    
C3    C5    A    
C26   C30   A    
C1    O2    A    
