data_mof_unit_29472.cif
_audit_creation_date              2012-12-10T17:26:15-0500
_audit_creation_method            fapswitch 2.2
_symmetry_space_group_name_H-M    P1
_symmetry_Int_Tables_number       1
_space_group_crystal_system       triclinic
_cell_length_a                    10.224652
_cell_length_b                    10.656265
_cell_length_c                    27.412506
_cell_angle_alpha                 92.551292
_cell_angle_beta                  83.143041
_cell_angle_gamma                 96.59613
_cell_volume                      2944.34388276

loop_
_atom_site_label
_atom_site_type_symbol
_atom_type_description
_atom_site_fract_x
_atom_site_fract_y
_atom_site_fract_z
_atom_type_partial_charge
C1    C     C_R   0.556423 0.733277 0.498898 0.941145
C2    C     C_R   0.574371 0.548299 0.120196 -0.012381
C3    C     C_R   0.498353 0.466419 0.645050 -0.027671
C4    C     C_R   0.493070 0.501066 0.353234 -0.045662
C5    C     C_R   0.599839 0.501746 0.017942 0.060765
C6    C     C_R   0.403792 0.339367 0.974729 0.058925
C7    C     C_R   0.385306 0.367378 0.026219 -0.013289
C8    C     C_R   0.619388 0.470951 0.966957 -0.013190
C9    C     C_R   0.487707 0.443583 0.047684 0.067350
C10   C     C_R   0.515274 0.399276 0.945251 0.068346
C11   C     C_R   0.682872 0.597966 0.039544 -0.196933
C12   C     C_R   0.444056 0.267236 0.505299 0.935072
C13   C     C_R   0.318990 0.247447 0.951601 -0.195411
C14   C     C_R   0.672837 0.618349 0.089921 -0.130640
C15   C     C_R   0.322772 0.239131 0.900857 -0.128460
C16   C     C_R   0.500490 0.495111 0.593626 0.882893
C17   C     C_R   0.498174 0.500380 0.406160 0.862743
C18   C     C_R   0.741029 0.503800 0.936794 -0.071097
C19   C     C_R   0.264761 0.331497 0.056789 -0.068306
C20   C     C_2   0.588917 0.868026 0.505267 -0.304739
C21   C     C_2   0.413525 0.134634 0.515377 -0.294587
C22   C     C_2   0.492603 0.935772 0.524945 -0.140694
C23   C     C_R   0.522197 0.387044 0.893476 -0.060622
C24   C     C_2   0.512990 0.070560 0.523819 -0.179696
C25   C     C_2   0.925002 0.503964 0.510515 0.308913
C26   C     C_2   0.059658 0.466645 0.510089 0.331332
C27   C     C_R   0.619725 0.454130 0.812823 0.524778
C28   C     C_R   0.375212 0.413878 0.181334 0.523860
C29   C     C_R   0.416175 0.318493 0.821014 0.518578
C30   C     C_R   0.569484 0.561610 0.171149 0.514841
C31   C     C_R   0.571365 0.340913 0.706023 0.027925
C32   C     C_R   0.385542 0.556136 0.284204 0.043499
C33   C     C_R   0.569933 0.369710 0.657153 -0.158702
C34   C     C_R   0.477121 0.465149 0.099270 -0.060839
C35   C     C_R   0.392203 0.557009 0.334674 -0.237004
C36   C     C_R   0.422015 0.529872 0.681818 -0.180588
C37   C     C_R   0.587777 0.444653 0.320999 -0.198683
C38   C     C_R   0.423349 0.501444 0.730782 -0.098081
C39   C     C_R   0.580347 0.442090 0.270748 -0.102507
C40   C     C_R   0.499487 0.408659 0.742964 0.260763
C41   C     C_R   0.479402 0.497081 0.252193 0.266816
C42   C     C_1   0.867398 0.542443 0.855587 0.309424
C43   C     C_1   0.139625 0.293206 0.138209 0.304895
C44   C     C_1   0.283247 0.616962 0.265726 0.209831
C45   C     C_R   0.630104 0.449092 0.863535 -0.083691
C46   C     C_1   0.648586 0.243754 0.717929 0.238559
C47   C     C_1   0.866782 0.522967 0.957358 0.169001
C48   C     C_1   0.138738 0.305028 0.036704 0.167737
C49   C     C_R   0.370186 0.403990 0.129968 -0.080410
C50   C     C_R   0.744020 0.500378 0.885295 -0.048721
C51   C     C_R   0.261017 0.340554 0.108359 -0.048117
C52   C     C_R   0.419251 0.314467 0.871655 -0.014668
H1    H     H_    0.364546 0.603093 0.672742 0.168378
H2    H     H_    0.624641 0.316750 0.628485 0.181894
H3    H     H_    0.742715 0.689495 0.104989 0.195923
H4    H     H_    0.249674 0.173685 0.884666 0.194896
H5    H     H_    0.754228 0.661672 0.017889 0.160512
H6    H     H_    0.249782 0.179535 0.972036 0.161239
H7    H     H_    0.613875 0.115560 0.524474 0.219232
H8    H     H_    0.393059 0.892454 0.537055 0.202014
H9    H     H_    0.918327 0.137626 0.524626 0.384442
H10   H     H_    0.039685 0.624944 0.612446 0.381130
H11   H     H_    0.666023 0.400651 0.334650 0.171484
H12   H     H_    0.313029 0.088951 0.514656 0.203037
H13   H     H_    0.688095 0.911949 0.493119 0.168366
H14   H     H_    0.143323 0.643093 0.513857 0.179480
H15   H     H_    0.882579 0.393464 0.451546 0.171588
H16   H     H_    0.368242 0.553716 0.759451 0.153614
H17   H     H_    0.652700 0.396735 0.246036 0.156361
H18   H     H_    0.319532 0.602233 0.359380 0.164114
N1    N     N_R   0.512426 0.392072 0.793404 -0.357800
N2    N     N_1   0.037925 0.284260 0.021049 -0.176310
N3    N     N_R   0.473579 0.491766 0.200339 -0.355178
N4    N     N_2   0.842700 0.448890 0.480020 -0.216229
N5    N     N_2   0.157300 0.551110 0.519980 -0.229037
N6    N     N_1   0.965966 0.575891 0.832105 -0.145083
N7    N     N_1   0.042678 0.255474 0.161771 -0.152906
N8    N     N_1   0.201225 0.665669 0.250861 -0.162851
N9    N     N_1   0.710533 0.165869 0.727520 -0.140666
N10   N     N_1   0.967207 0.538046 0.973497 -0.175445
O1    O     O_R   0.431060 0.692470 0.504020 -0.633187
O2    O     O_2   0.285231 0.344763 0.212218 -0.543770
O3    O     O_2   0.661028 0.642103 0.191588 -0.547548
O4    O     O_2   0.316548 0.252264 0.799580 -0.538312
O5    O     O_2   0.136580 0.248467 0.470281 -0.322292
O6    O     O_2   0.127417 0.278485 0.560645 -0.261583
O7    O     O_3   0.907803 0.228440 0.522608 -0.574925
O8    O     O_2   0.780980 0.683692 0.561804 -0.248611
O9    O     O_2   0.823271 0.499266 0.605374 -0.279861
O10   O     O_3   0.009510 0.678246 0.588208 -0.562326
O11   O     O_R   0.568940 0.307530 0.495980 -0.619184
O12   O     O_R   0.651120 0.659650 0.491200 -0.564611
O13   O     O_R   0.348880 0.340350 0.508800 -0.510052
O14   O     O_R   0.389980 0.516390 0.577660 -0.606746
O15   O     O_R   0.610020 0.483610 0.422340 -0.623576
O16   O     O_R   0.610040 0.483570 0.564830 -0.527957
O17   O     O_R   0.389960 0.516430 0.435170 -0.614439
O18   O     O_2   0.713011 0.523183 0.783132 -0.523524
S1    S     S_3+6 0.063289 0.302141 0.515836 0.045881
S2    S     S_3+6 0.878816 0.592153 0.566524 0.072549
Zn1   Zn    Zn3+2 0.353060 0.521910 0.508560 1.030427
Zn2   Zn    Zn3+2 0.646940 0.478090 0.491440 1.044846

loop_
_geom_bond_atom_site_label_1
_geom_bond_atom_site_label_2
_ccdc_geom_bond_type
C27   O18   S    
C23   C45   A    
C40   N1    S    
O16   Zn2   S    
C34   C49   A    
C12   O11   A    
C43   C51   S    
C18   C47   S    
C39   C41   A    
O1    Zn1   S    
C45   C50   A    
C5    C11   A    
C22   H8    S    
C46   N9    T    
C11   C14   A    
C3    C33   A    
C1    O1    A    
C31   C40   A    
C25   N4    D    
C30   O3    S    
C21   H12   S    
C36   H1    S    
H9    O7    S    
O14   Zn1   S    
C49   C51   A    
C31   C46   S    
C32   C41   A    
C31   C33   A    
C17   O15   A    
O15   Zn2   S    
O12   Zn2   S    
C26   S1    S    
N4    Zn2   S    
C27   C45   A    
C14   H3    S    
C4    C35   A    
C47   N10   T    
C48   N2    T    
C28   N3    A    
O10   S2    S    
C37   H11   S    
O7    S1    S    
C32   C44   S    
C16   O16   A    
O9    S2    D    
C28   O2    S    
C32   C35   A    
C20   H13   S    
C35   H18   S    
C29   O4    S    
O13   Zn1   S    
C30   N3    A    
C19   C48   S    
C13   H6    S    
C25   C26   S    
C12   C21   S    
C8    C18   A    
C5    C9    A    
O5    S1    D    
C28   C49   A    
C25   S2    S    
C26   N5    D    
C39   H17   S    
H15   N4    S    
C15   C52   A    
O6    S1    D    
O8    S2    D    
C42   C50   S    
C4    C17   S    
C38   H16   S    
C1    O12   A    
C7    C19   A    
C13   C15   A    
C9    C34   A    
C22   C24   S    
C12   O13   A    
O11   Zn2   S    
C27   N1    A    
C18   C50   A    
C33   H2    S    
C7    C9    A    
C1    C20   S    
C16   O14   A    
C20   C22   D    
C6    C10   A    
C5    C8    A    
C6    C7    A    
C10   C23   A    
C43   N7    T    
C42   N6    T    
C2    C30   A    
C15   H4    S    
C44   N8    T    
C37   C39   A    
C6    C13   A    
C38   C40   A    
C2    C34   A    
C23   C52   A    
C3    C36   A    
C24   H7    S    
H14   N5    S    
H10   O10   S    
C36   C38   A    
C2    C14   A    
C41   N3    S    
C19   C51   A    
C4    C37   A    
C8    C10   A    
C21   C24   D    
N5    Zn1   S    
C11   H5    S    
C17   O17   A    
O17   Zn1   S    
C3    C16   S    
C29   N1    A    
C29   C52   A    
