data_mof_unit_42140.cif
_audit_creation_date              2012-12-11T18:05:03-0500
_audit_creation_method            fapswitch 2.2
_symmetry_space_group_name_H-M    P1
_symmetry_Int_Tables_number       1
_space_group_crystal_system       triclinic
_cell_length_a                    8.401516
_cell_length_b                    12.979465
_cell_length_c                    22.649882
_cell_angle_alpha                 97.127247
_cell_angle_beta                  88.37774
_cell_angle_gamma                 99.129903
_cell_volume                      2419.67811511

loop_
_atom_site_label
_atom_site_type_symbol
_atom_type_description
_atom_site_fract_x
_atom_site_fract_y
_atom_site_fract_z
_atom_type_partial_charge
Ba1   Ba    Ba6+2 0.856210 0.551220 0.472190 1.632883
Ba2   Ba    Ba6+2 0.333620 0.448870 0.527810 1.646402
C1    C     C_3   0.612598 0.831611 0.228080 -0.022669
C2    C     C_3   0.630739 0.801155 0.290453 0.350915
C3    C     C_3   0.544580 0.303968 0.337349 0.381081
C4    C     C_3   0.645819 0.278332 0.279993 0.188813
C5    C     C_3   0.000591 0.228001 0.685855 0.323204
C6    C     C_3   0.964223 0.197590 0.749098 -0.078163
C7    C     C_3   0.507643 0.183590 0.657979 0.372147
C8    C     C_3   0.494047 0.072664 0.676208 0.092839
C9    C     C_R   0.342561 0.517518 0.330343 -0.256963
C10   C     C_R   0.117228 0.593159 0.937633 -0.025054
C11   C     C_R   0.070616 0.590434 0.877711 0.585896
C12   C     C_3   0.119887 0.750339 0.306129 0.339352
C13   C     C_R   0.891590 0.428510 0.884185 0.573507
C14   C     C_R   0.942325 0.426179 0.943005 -0.026816
C15   C     C_R   0.055028 0.509365 0.969943 -0.050039
C16   C     C_R   0.224973 0.677756 0.966065 -0.086096
C17   C     C_R   0.269447 0.679149 0.025264 -0.082147
C18   C     C_R   0.210761 0.594810 0.057651 -0.012992
C19   C     C_R   0.104856 0.509102 0.029602 -0.053837
C20   C     C_R   0.884121 0.341746 0.975332 -0.090785
C21   C     C_R   0.938299 0.339471 0.032950 -0.082156
C22   C     C_R   0.048706 0.423107 0.060939 -0.018529
C23   C     C_3   0.105979 0.770253 0.241917 -0.323672
C24   C     C_R   0.104542 0.422202 0.119341 0.572788
C25   C     C_R   0.254307 0.595321 0.117622 0.568024
C26   C     C_2   0.763609 0.485218 0.770314 -0.065139
C27   C     C_3   0.722109 0.483681 0.705337 0.036101
C28   C     C_1   0.007922 0.517860 0.684046 0.089181
C29   C     C_2   0.049008 0.518955 0.740602 -0.098990
C30   C     C_2   0.919873 0.503383 0.788029 0.209087
C31   C     C_R   0.410464 0.552532 0.229652 -0.106159
C32   C     C_R   0.454037 0.558094 0.289601 -0.005966
C33   C     C_R   0.188840 0.468934 0.312588 -0.028141
C34   C     C_3   0.188325 0.801174 0.618121 0.498256
C35   C     C_R   0.140400 0.469036 0.253585 -0.133694
C36   C     C_R   0.251020 0.510558 0.210576 0.204274
C37   C     C_2   0.865757 0.468335 0.665795 -0.263367
C38   C     C_R   0.777724 0.173383 0.503087 -0.097208
C39   C     C_R   0.441095 0.807711 0.471007 -0.276466
C40   C     C_R   0.426538 0.977702 0.440600 0.119743
C41   C     C_R   0.355953 0.873732 0.444532 -0.029543
C42   C     C_R   0.584220 0.846453 0.502220 0.107376
C43   C     C_R   0.647918 0.957325 0.504386 -0.070257
C44   C     C_R   0.566133 0.024328 0.473523 -0.081245
C45   C     C_3   0.111906 0.898220 0.642439 -0.290243
C46   C     C_R   0.627656 0.135243 0.476481 0.072895
C47   C     C_R   0.857925 0.109681 0.533938 -0.019346
C48   C     C_R   0.791669 0.003081 0.535123 -0.099304
C49   C     C_3   0.092022 0.210100 0.350560 0.456394
C50   C     C_3   0.095329 0.181181 0.282827 -0.333896
C51   C     C_3   0.655133 0.709038 0.657946 0.395122
C52   C     C_3   0.562331 0.740121 0.715735 -0.111997
H1    H     H_    0.676842 0.871286 0.321541 0.012421
H2    H     H_    0.138922 0.921312 0.690334 0.116128
H3    H     H_    0.157630 0.965106 0.617403 0.119398
H4    H     H_    0.979384 0.882028 0.637307 0.122687
H5    H     H_    0.213339 0.248053 0.365900 0.031145
H6    H     H_    0.974352 0.144876 0.265782 0.099217
H7    H     H_    0.182292 0.126425 0.269892 0.096459
H8    H     H_    0.130947 0.252907 0.260972 0.074710
H9    H     H_    0.588800 0.634531 0.635501 0.079867
H10   H     H_    0.506727 0.872800 0.227031 0.050176
H11   H     H_    0.602476 0.824400 0.732382 0.102687
H12   H     H_    0.432040 0.729178 0.706223 0.120270
H13   H     H_    0.509693 0.769975 0.307265 -0.121844
H14   H     H_    0.591544 0.758599 0.196465 0.144489
H15   H     H_    0.430487 0.325619 0.323843 -0.086606
H16   H     H_    0.607360 0.373619 0.365125 0.049926
H17   H     H_    0.774258 0.295361 0.292541 0.094058
H18   H     H_    0.083330 0.694306 0.212876 0.106268
H19   H     H_    0.098210 0.296778 0.687091 0.096477
H20   H     H_    0.889707 0.250965 0.668917 -0.049603
H21   H     H_    0.837591 0.207600 0.760545 0.118078
H22   H     H_    0.973979 0.113533 0.751096 0.110588
H23   H     H_    0.591703 0.189879 0.619272 -0.058152
H24   H     H_    0.385144 0.192177 0.643640 0.079593
H25   H     H_    0.425336 0.022728 0.639702 0.089956
H26   H     H_    0.022200 0.686407 0.315641 0.120740
H27   H     H_    0.891715 0.272323 0.055825 0.112862
H28   H     H_    0.798075 0.276103 0.955799 0.115075
H29   H     H_    0.351564 0.746346 0.045449 0.113540
H30   H     H_    0.501716 0.578848 0.197939 0.097381
H31   H     H_    0.274649 0.743727 0.942722 0.115756
H32   H     H_    0.175084 0.531462 0.752768 0.135133
H33   H     H_    0.666292 0.478898 0.802861 0.113350
H34   H     H_    0.017380 0.436834 0.241606 0.123886
H35   H     H_    0.378533 0.520271 0.376099 0.065773
H36   H     H_    0.237682 0.724466 0.311700 -0.060217
H37   H     H_    0.848420 0.433069 0.620233 0.054040
H38   H     H_    0.854865 0.956623 0.559865 0.112853
H39   H     H_    0.392521 0.725140 0.468756 0.057976
H40   H     H_    0.004489 0.813429 0.237121 0.175260
H41   H     H_    0.218416 0.818041 0.227569 0.115283
N1    N     N_R   0.961057 0.507522 0.850916 -0.417573
N2    N     N_R   0.202991 0.509180 0.148380 -0.420662
O1    O     O_2   0.890290 0.440320 0.360790 -0.450486
O2    O     O_3   0.673842 0.791750 0.622132 -0.650229
O3    O     O_3   0.104980 0.842900 0.343714 -0.598589
O4    O     O_2   0.299410 0.559720 0.639240 -0.495818
O5    O     O_3   0.058870 0.558650 0.568170 -0.486521
O6    O     O_3   0.517310 0.362160 0.604450 -0.481280
O7    O     O_3   0.151760 0.726231 0.658504 -0.637921
O8    O     O_3   0.614910 0.369290 0.471050 -0.454667
O9    O     O_3   0.099190 0.306290 0.575790 -0.495338
O10   O     O_2   0.194062 0.119922 0.546418 -0.490582
O11   O     O_3   0.046334 0.142151 0.648470 -0.635378
O12   O     O_3   0.130840 0.441440 0.431840 -0.479643
O13   O     O_3   0.574800 0.630800 0.528960 -0.503129
O14   O     O_2   0.344900 0.234690 0.472540 -0.460428
O15   O     O_3   0.506436 0.214815 0.368020 -0.647652
O16   O     O_2   0.385476 0.414284 0.708747 -0.505372
O17   O     O_3   0.559854 0.262079 0.704921 -0.632274
O18   O     O_2   0.125871 0.662874 0.849750 -0.607504
O19   O     O_2   0.787403 0.358759 0.862291 -0.614445
O20   O     O_2   0.067196 0.342943 0.143785 -0.626497
O21   O     O_2   0.336001 0.673858 0.142622 -0.645820
O22   O     O_3   0.672400 0.637930 0.395560 -0.467150
O23   O     O_2   0.776088 0.540728 0.294079 -0.494888
O24   O     O_3   0.977364 0.275276 0.365974 -0.629090
O25   O     O_3   0.742773 0.731261 0.288522 -0.593074
O26   O     O_2   0.844800 0.765340 0.527490 -0.447601
O27   O     O_3   0.090520 0.693800 0.424220 -0.481393
O28   O     O_2   0.022869 0.882159 0.454322 -0.487534
P1    P     P_3+3 0.057140 0.408270 0.369700 0.964030
P2    P     P_3+3 0.667360 0.749400 0.544670 0.971697
P3    P     P_3+3 0.146433 0.824855 0.416652 0.937498
P4    P     P_3+3 0.132580 0.591820 0.630310 0.981189
P5    P     P_3+3 0.048693 0.168922 0.574297 0.911450
P6    P     P_3+3 0.657508 0.615862 0.317253 0.952189
P7    P     P_3+3 0.524150 0.238074 0.446508 1.000307
P8    P     P_3+3 0.545124 0.384129 0.681284 0.942905
N3    N     N_2   0.048886 0.118011 0.381186 -0.423530
H42   H     H_    0.064277 0.134851 0.426531 0.194040
C53   C     C_3   0.898310 0.050358 0.366179 -0.214809
H43   H     H_    0.869530 0.993315 0.398931 0.141579
H44   H     H_    0.909569 0.004849 0.322110 0.124858
H45   H     H_    0.799110 0.097320 0.367114 0.100568
N4    N     N_3   0.813617 0.691611 0.672663 -0.519164
H46   H     H_    0.872863 0.759121 0.697751 0.192068
H47   H     H_    0.872128 0.682088 0.631795 0.190697
N5    N     N_3   0.583561 0.674918 0.762157 -0.513688
H48   H     H_    0.494912 0.684952 0.794801 0.200079
H49   H     H_    0.694013 0.704114 0.782890 0.186533
N6    N     N_3   0.612941 0.167090 0.255858 -0.493169
H50   H     H_    0.670652 0.157563 0.214448 0.170833
H51   H     H_    0.674747 0.126595 0.282135 0.152533
N7    N     N_2   0.624085 0.344900 0.234334 -0.437018
H52   H     H_    0.728004 0.365038 0.210219 0.211784
C54   C     C_3   0.484311 0.314365 0.196302 -0.193028
H53   H     H_    0.482974 0.373169 0.164798 0.105317
H54   H     H_    0.372447 0.310579 0.223168 0.121170
H55   H     H_    0.488162 0.237469 0.169219 0.119276
N8    N     N_2   0.755572 0.899263 0.210513 -0.423617
H56   H     H_    0.774233 0.971430 0.235949 0.181587
C55   C     C_3   0.769022 0.908564 0.147566 -0.226830
H57   H     H_    0.884154 0.959326 0.138393 0.113911
H58   H     H_    0.667276 0.944495 0.133117 0.110054
H59   H     H_    0.769257 0.830044 0.121686 0.125715
N9    N     N_2   0.067119 0.263975 0.793633 -0.439897
H60   H     H_    0.016861 0.263248 0.835551 0.229639
C56   C     C_3   0.230970 0.244530 0.794910 -0.185018
H61   H     H_    0.234594 0.170877 0.814765 0.104087
H62   H     H_    0.304817 0.310818 0.822411 0.129577
H63   H     H_    0.282036 0.238014 0.749490 0.181267
N10   N     N_3   0.649143 0.035332 0.679271 -0.490918
H64   H     H_    0.695109 0.053124 0.722203 0.178234
H65   H     H_    0.732697 0.070736 0.650216 0.170214
N11   N     N_3   0.403037 0.063128 0.731838 -0.509014
H66   H     H_    0.470866 0.107801 0.766780 0.205462
H67   H     H_    0.390205 0.985088 0.740684 0.175936
N12   N     N_2   0.367003 0.029764 0.397037 -0.397786
H68   H     H_    0.245227 0.024131 0.399610 0.232181
C57   C     C_3   0.420466 0.997618 0.337433 -0.154622
H69   H     H_    0.371719 0.042197 0.305473 0.148943
H70   H     H_    0.379771 0.913402 0.324064 0.074690
H71   H     H_    0.552849 0.011881 0.335560 0.073918
N13   N     N_3   0.850812 0.278424 0.496297 -0.445315
H72   H     H_    0.848416 0.324621 0.537162 0.177664
H73   H     H_    0.968100 0.279170 0.479901 0.216554
N14   N     N_3   0.360643 0.830396 0.614985 -0.530838
H74   H     H_    0.402182 0.859136 0.657625 0.185681
H75   H     H_    0.399851 0.758597 0.604364 0.156939
N15   N     N_3   0.128484 0.764040 0.558595 -0.401187
H76   H     H_    0.200616 0.712879 0.536661 0.163923
H77   H     H_    0.147885 0.829531 0.535794 0.166730

loop_
_geom_bond_atom_site_label_1
_geom_bond_atom_site_label_2
_ccdc_geom_bond_type
C27   P8    S    
C42   P2    S    
C55   H57   S    
N8    C55   S    
O23   P6    D    
C35   H34   S    
C1    H14   S    
C24   O20   D    
N9    H60   S    
C5    C6    S    
Ba2   O12   S    
C52   H11   S    
N12   H68   S    
C51   O2    S    
C10   C11   A    
C18   C25   A    
C35   C36   A    
C7    O17   S    
C20   H28   S    
C26   C27   S    
C56   H62   S    
N4    H47   S    
C34   N15   S    
C50   H7    S    
N7    C54   S    
C40   C44   A    
C28   C29   D    
C4    N6    S    
C49   N3    S    
N15   H77   S    
N11   H66   S    
Ba2   O5    S    
C13   C14   A    
C51   N4    S    
N5    H49   S    
C6    H22   S    
Ba2   P4    S    
C34   C45   S    
C38   C46   A    
C16   C17   A    
Ba1   O22   S    
C54   H55   S    
N14   H74   S    
C12   H36   S    
C3    H15   S    
C50   H6    S    
Ba1   O12   S    
C6    N9    S    
C4    N7    S    
C39   H39   S    
C56   H61   S    
C8    N10   S    
C10   C15   A    
O28   P3    D    
O22   P6    S    
C54   H53   S    
O5    P4    S    
C12   H26   S    
C5    H20   S    
C7    C8    S    
O11   P5    S    
O13   P2    S    
O27   P3    S    
C52   N5    S    
C23   H40   S    
C55   H58   S    
C29   H32   S    
O3    P3    S    
C39   C41   A    
C27   C37   S    
C36   N2    S    
C17   H29   S    
C37   H37   S    
N9    C56   S    
O8    P7    S    
N6    H51   S    
N12   C57   S    
C4    H17   S    
C44   C46   A    
Ba2   O14   S    
C16   H31   S    
C11   N1    Am   
C49   C50   S    
C26   C30   D    
C56   H63   S    
N4    H46   S    
C57   H70   S    
N10   H64   S    
C57   H71   S    
C14   C15   A    
O2    P2    S    
Ba2   O4    S    
C1    H10   S    
Ba2   O9    S    
C6    H21   S    
C15   C19   A    
N10   H65   S    
C53   H45   S    
Ba1   O1    S    
C33   P1    S    
Ba1   O26   S    
C3    H16   S    
Ba1   O13   S    
C45   H3    S    
C38   N13   S    
C9    H35   S    
O26   P2    D    
C29   C30   S    
C21   C22   A    
C5    H19   S    
C26   H33   S    
C1    N8    S    
C31   C32   A    
C2    O25   S    
C23   H18   S    
C7    H23   S    
O15   P7    S    
C12   O3    S    
C11   O18   D    
O12   P1    S    
C48   H38   S    
C30   N1    S    
O10   P5    D    
C32   P6    S    
C23   H41   S    
C55   H59   S    
O7    P4    S    
C2    H1    S    
Ba1   P1    S    
C49   O24   S    
C39   C42   A    
C34   N14   S    
C40   C41   A    
C1    C2    S    
O25   P6    S    
C13   N1    Am   
C42   C43   A    
C53   H44   S    
N6    H50   S    
C25   O21   D    
O9    P5    S    
Ba2   O13   S    
C14   C20   A    
C21   H27   S    
C33   C35   A    
C5    O11   S    
C9    C32   A    
Ba1   P2    S    
C22   C24   A    
C53   H43   S    
C40   N12   S    
C41   P3    S    
C2    H13   S    
N3    C53   S    
C8    H25   S    
C51   C52   S    
N3    H42   S    
C52   H12   S    
C3    O15   S    
C8    N11   S    
C28   P4    S    
C47   P5    S    
Ba2   O8    S    
C31   C36   A    
C34   O7    S    
C17   C18   A    
C9    C33   A    
N5    H48   S    
O6    P8    S    
Ba1   O27   S    
O24   P1    S    
C57   H69   S    
C50   H8    S    
N7    H52   S    
C45   H4    S    
C43   C48   A    
C51   H9    S    
N15   H76   S    
C3    C4    S    
N11   H67   S    
Ba2   O6    S    
Ba1   Ba2   S    
O17   P8    S    
C28   C37   D    
C20   C21   A    
C7    H24   S    
C54   H54   S    
C12   C23   S    
C31   H30   S    
N14   H75   S    
C25   N2    Am   
C24   N2    Am   
N13   H72   S    
C43   C44   A    
O14   P7    D    
O1    P1    D    
C49   H5    S    
C18   C19   A    
C47   C48   A    
C19   C22   A    
C10   C16   A    
N8    H56   S    
C13   O19   D    
C46   P7    S    
O16   P8    D    
Ba1   O5    S    
C38   C47   A    
Ba1   O8    S    
C45   H2    S    
N13   H73   S    
O4    P4    D    
