data_mof_unit_18213.cif
_audit_creation_date              2012-12-11T14:48:45-0500
_audit_creation_method            fapswitch 2.2
_symmetry_space_group_name_H-M    P1
_symmetry_Int_Tables_number       1
_space_group_crystal_system       triclinic
_cell_length_a                    7.221718
_cell_length_b                    19.354021
_cell_length_c                    18.895005
_cell_angle_alpha                 89.999791
_cell_angle_beta                  87.939275
_cell_angle_gamma                 90.003823
_cell_volume                      2639.23331679

loop_
_atom_site_label
_atom_site_type_symbol
_atom_type_description
_atom_site_fract_x
_atom_site_fract_y
_atom_site_fract_z
_atom_type_partial_charge
O1    O     O_R   0.350610 0.187000 0.656530 -0.547789
O2    O     O_R   0.649390 0.813000 0.343470 -0.544532
O3    O     O_R   0.149390 0.687000 0.343470 -0.547828
O4    O     O_R   0.850610 0.313000 0.656530 -0.544527
O5    O     O_R   0.655920 0.179060 0.799470 -0.520452
O6    O     O_R   0.344080 0.820940 0.200530 -0.523407
O7    O     O_R   0.844080 0.679060 0.200530 -0.520508
O8    O     O_R   0.155920 0.320940 0.799470 -0.523442
O9    O     O_R   0.826150 0.314000 0.799910 -0.539432
O10   O     O_R   0.173850 0.686000 0.200090 -0.538819
O11   O     O_R   0.673850 0.814000 0.200090 -0.539419
O12   O     O_R   0.326150 0.186000 0.799910 -0.538869
C1    C     C_R   0.485801 0.161311 0.822713 0.737327
C2    C     C_R   0.514194 0.838710 0.177306 0.733739
C3    C     C_R   0.014192 0.661306 0.177291 0.736265
C4    C     C_R   0.985812 0.338710 0.822693 0.733794
O13   O     O_R   0.680230 0.178680 0.657050 -0.507799
O14   O     O_R   0.319770 0.821320 0.342950 -0.538694
O15   O     O_R   0.819770 0.678680 0.342950 -0.507526
O16   O     O_R   0.180230 0.321320 0.657050 -0.538746
C5    C     C_R   0.513127 0.162966 0.633100 0.740542
C6    C     C_R   0.486182 0.838039 0.366119 0.714782
C7    C     C_R   0.986860 0.662957 0.366894 0.739349
C8    C     C_R   0.013828 0.338037 0.633880 0.714827
O17   O     O_3   0.504860 0.294770 0.728200 -0.379663
O18   O     O_3   0.495140 0.705230 0.271800 -0.365146
O19   O     O_3   0.995140 0.794770 0.271800 -0.379587
O20   O     O_3   0.004860 0.205230 0.728200 -0.365346
V1    V     V_3+5 0.779710 0.242290 0.728230 1.504439
V2    V     V_3+5 0.220290 0.757710 0.271770 1.472624
V3    V     V_3+5 0.720290 0.742290 0.271770 1.504860
V4    V     V_3+5 0.279710 0.257710 0.728230 1.472515
C9    C     C_1   0.026760 0.608480 0.121753 -0.145862
C10   C     C_1   0.973250 0.391531 0.878237 -0.134245
C11   C     C_1   0.473219 0.108488 0.878256 -0.145496
C12   C     C_1   0.526771 0.891528 0.121759 -0.134254
C13   C     C_2   0.067950 0.510417 0.021220 -0.134163
C14   C     C_2   0.932063 0.489589 0.978776 -0.129730
C15   C     C_2   0.432023 0.010437 0.978804 -0.134101
C16   C     C_2   0.567963 0.989573 0.021204 -0.129736
C17   C     C_1   0.959017 0.435857 0.924305 0.035314
C18   C     C_1   0.040995 0.564150 0.075689 0.026055
C19   C     C_1   0.541007 0.935850 0.075685 0.035326
C20   C     C_1   0.458980 0.064162 0.924325 0.026058
H1    H     H_    0.795939 0.513177 0.984599 0.140961
H2    H     H_    0.204074 0.486830 0.015397 0.139989
H3    H     H_    0.704133 0.013123 0.015334 0.140933
H4    H     H_    0.295852 0.986888 0.984674 0.139998
C21   C     C_R   0.004333 0.391512 0.576938 -0.144330
C22   C     C_R   0.997833 0.613153 0.426885 -0.134332
C23   C     C_R   0.495717 0.891522 0.423052 -0.144420
C24   C     C_R   0.502086 0.113134 0.573139 -0.134054
C25   C     C_R   0.145708 0.578377 0.536885 0.025644
C26   C     C_R   0.825426 0.438317 0.481471 -0.015062
C27   C     C_R   0.354298 0.078368 0.463114 0.025683
C28   C     C_R   0.674737 0.938376 0.518473 -0.014928
C29   C     C_R   0.100822 0.630770 0.487326 0.060276
C30   C     C_R   0.880214 0.381264 0.521832 0.059591
C31   C     C_R   0.399185 0.130758 0.512678 0.060029
C32   C     C_R   0.619969 0.881309 0.478123 0.059573
C33   C     C_R   0.927212 0.545258 0.420808 -0.029100
C34   C     C_R   0.100928 0.455314 0.581557 -0.090415
C35   C     C_R   0.572599 0.045221 0.579240 -0.029249
C36   C     C_R   0.399042 0.955306 0.418457 -0.090409
C37   C     C_R   0.936011 0.498885 0.479076 0.006941
C38   C     C_R   0.064444 0.510848 0.533044 0.001104
C39   C     C_R   0.563996 0.998895 0.520923 0.006856
C40   C     C_R   0.435549 0.010843 0.466960 0.001076
C41   C     C_2   0.248540 0.460046 0.633778 0.493640
H5    H     H_    0.391492 0.467482 0.615637 0.024422
O21   O     O_2   0.210724 0.457054 0.697235 -0.502456
C42   C     C_2   0.877914 0.516019 0.350379 0.421606
H6    H     H_    0.896335 0.461115 0.340648 0.033381
O22   O     O_2   0.814595 0.550991 0.303376 -0.519592
C43   C     C_2   0.251271 0.960007 0.366297 0.493605
H7    H     H_    0.108371 0.967456 0.384495 0.024259
O23   O     O_2   0.288901 0.956994 0.302827 -0.502385
C44   C     C_2   0.621678 0.015913 0.649682 0.422233
H8    H     H_    0.605162 0.960878 0.659101 0.033847
O24   O     O_2   0.682260 0.051005 0.697146 -0.520579
C45   C     C_2   0.274543 0.597384 0.592892 0.371575
H9    H     H_    0.417326 0.610347 0.578752 0.055263
O25   O     O_2   0.218865 0.602432 0.654491 -0.501208
C46   C     C_2   0.638969 0.437691 0.449758 0.310804
H10   H     H_    0.575150 0.390105 0.433724 0.061008
O26   O     O_2   0.550558 0.491082 0.443943 -0.531923
C47   C     C_2   0.225579 0.097384 0.407073 0.371678
H11   H     H_    0.082828 0.110412 0.421184 0.055174
O27   O     O_2   0.281335 0.102371 0.345477 -0.501188
C48   C     C_2   0.861279 0.937821 0.550126 0.309620
H12   H     H_    0.925514 0.890237 0.565917 0.061210
O28   O     O_2   0.949301 0.991279 0.556156 -0.532215
C49   C     C_3   0.816615 0.308761 0.502322 -0.364143
C50   C     C_3   0.883389 0.289735 0.426999 -0.779897
H13   H     H_    0.804466 0.317941 0.386878 0.223222
H14   H     H_    0.032506 0.302385 0.419033 0.240349
H15   H     H_    0.865656 0.233426 0.418245 0.226329
H16   H     H_    0.873796 0.268378 0.536817 0.181116
H17   H     H_    0.664147 0.304807 0.508660 0.172571
C51   C     C_3   0.172622 0.704888 0.497523 -0.364497
C52   C     C_3   0.106434 0.737932 0.567659 -0.736499
H18   H     H_    0.964240 0.720761 0.582984 0.253462
H19   H     H_    0.200519 0.726047 0.610936 0.253887
H20   H     H_    0.108721 0.794903 0.562237 0.194630
H21   H     H_    0.326406 0.704847 0.493838 0.175264
H22   H     H_    0.126751 0.740680 0.456093 0.172843
C53   C     C_3   0.683634 0.808819 0.497640 -0.363974
C54   C     C_3   0.617091 0.789824 0.572999 -0.779831
H23   H     H_    0.696182 0.818049 0.613062 0.223208
H24   H     H_    0.467994 0.802476 0.581031 0.240288
H25   H     H_    0.634826 0.733518 0.581769 0.226358
H26   H     H_    0.626325 0.768418 0.463194 0.181138
H27   H     H_    0.836090 0.804863 0.491236 0.172517
C55   C     C_3   0.327482 0.204881 0.502456 -0.364694
C56   C     C_3   0.393836 0.237913 0.432332 -0.736663
H28   H     H_    0.536081 0.220759 0.417071 0.253450
H29   H     H_    0.299893 0.226002 0.389016 0.253905
H30   H     H_    0.391485 0.294885 0.437739 0.194692
H31   H     H_    0.173696 0.204853 0.506100 0.175332
H32   H     H_    0.373299 0.240675 0.543896 0.172801

loop_
_geom_bond_atom_site_label_1
_geom_bond_atom_site_label_2
_ccdc_geom_bond_type
C16   H3    S    
C47   H11   S    
O1    C5    A    
C52   H18   S    
C27   C31   A    
O13   V1    S    
C53   H26   S    
O3    C7    A    
O15   V3    S    
C26   C46   S    
C27   C40   A    
C26   C37   A    
C51   H21   S    
C49   C50   S    
C9    C18   T    
C36   C40   A    
O20   V1    S    
C30   C49   S    
C46   O26   D    
C1    C11   S    
O10   C3    A    
C2    C12   S    
O4    C8    A    
O11   C2    A    
C44   O24   D    
C56   H28   S    
C54   H23   S    
C25   C45   S    
C13   C18   S    
C41   O21   D    
C53   H27   S    
C14   H1    S    
C4    C10   S    
C16   C19   S    
O16   C8    A    
C56   H29   S    
O2    C6    A    
C53   C54   S    
O14   V2    S    
C49   H17   S    
O5    C1    A    
C55   H31   S    
O9    V1    S    
O17   V4    S    
O7    C3    A    
O11   V3    S    
O18   V3    S    
O8    C4    A    
O12   V4    S    
O19   V2    S    
C50   H13   S    
C10   C17   T    
C45   O25   D    
C45   H9    S    
O5    V1    S    
C35   C39   A    
O7    V3    S    
C34   C38   A    
C39   C40   A    
O8    V4    S    
C46   H10   S    
C14   C17   S    
C42   O22   D    
C15   C16   D    
C25   C29   A    
C44   H8    S    
C7    C22   S    
C50   H15   S    
C29   C51   S    
O1    V4    S    
O13   C5    A    
C21   C30   A    
C28   C32   A    
C34   C41   S    
O2    V3    S    
O3    V2    S    
O15   C7    A    
C43   H7    S    
C13   C14   D    
C25   C38   A    
C24   C31   A    
O6    C2    A    
O10   V2    S    
C48   O28   D    
C56   H30   S    
C26   C30   A    
C50   H14   S    
C11   C20   T    
C43   O23   D    
C32   C53   S    
C33   C42   S    
O6    V2    S    
C52   H20   S    
C47   O27   D    
O16   V4    S    
C8    C21   S    
C21   C34   A    
O14   C6    A    
C22   C29   A    
O9    C4    A    
C23   C36   A    
O4    V1    S    
C42   H6    S    
C24   C35   A    
C55   C56   S    
C15   C20   S    
C28   C39   A    
C51   H22   S    
C54   H25   S    
C48   H12   S    
C31   C55   S    
C28   C48   S    
C51   C52   S    
C36   C43   S    
C54   H24   S    
C27   C47   S    
C41   H5    S    
C33   C37   A    
O12   C1    A    
C52   H19   S    
C37   C38   A    
C22   C33   A    
C15   H4    S    
C12   C19   T    
C23   C32   A    
C13   H2    S    
C49   H16   S    
C3    C9    S    
C5    C24   S    
C55   H32   S    
C6    C23   S    
C35   C44   S    
