data_mof_unit_59043.cif
_audit_creation_date              2012-12-10T20:38:24-0500
_audit_creation_method            fapswitch 2.2
_symmetry_space_group_name_H-M    P1
_symmetry_Int_Tables_number       1
_space_group_crystal_system       triclinic
_cell_length_a                    9.847931
_cell_length_b                    10.678943
_cell_length_c                    16.661471
_cell_angle_alpha                 89.979309
_cell_angle_beta                  85.269951
_cell_angle_gamma                 90.08391
_cell_volume                      1746.24220013

loop_
_atom_site_label
_atom_site_type_symbol
_atom_type_description
_atom_site_fract_x
_atom_site_fract_y
_atom_site_fract_z
_atom_type_partial_charge
C1    C     C_R   0.499672 0.740105 0.502516 0.887696
C2    C     C_R   0.529242 0.448732 0.263861 -0.123862
C3    C     C_R   0.374515 0.935860 0.516003 0.125516
C4    C     C_R   0.481086 0.497567 0.653625 0.859390
C5    C     C_R   0.497342 0.871405 0.515561 -0.106446
C6    C     C_R   0.617036 0.935423 0.530675 -0.224004
C7    C     C_R   0.616931 0.064902 0.530736 -0.221576
C8    C     C_R   0.497144 0.128536 0.515614 -0.101890
C9    C     C_R   0.374378 0.063615 0.516081 0.144503
C10   C     C_3   0.264472 0.070498 0.459442 -0.497289
C11   C     C_3   0.264814 0.928556 0.459243 -0.469707
C12   C     C_R   0.343912 0.436691 0.779059 -0.195280
C13   C     C_R   0.924849 0.600227 0.529759 0.219893
C14   C     C_R   0.932920 0.406909 0.463463 -0.130631
C15   C     C_R   0.077035 0.407037 0.463327 -0.134065
C16   C     C_R   0.499579 0.259868 0.502511 0.880909
C17   C     C_R   0.067485 0.600182 0.529725 0.216128
C18   C     C_3   0.062305 0.649613 0.613495 -0.506978
C19   C     C_3   0.908057 0.649371 0.613738 -0.514290
C20   C     C_R   0.518678 0.492675 0.346778 0.898749
C21   C     C_R   0.469230 0.474035 0.740032 -0.038966
C22   C     C_R   0.586346 0.475149 0.782238 -0.205459
C23   C     C_R   0.432138 0.327255 0.160505 -0.242655
C24   C     C_R   0.579556 0.435692 0.861612 -0.137204
C25   C     C_R   0.455410 0.393253 0.899732 0.192303
C26   C     C_R   0.337182 0.396839 0.858692 -0.161668
C27   C     C_R   0.420658 0.379883 0.236619 -0.200695
C28   C     C_R   0.651864 0.459540 0.215351 -0.283093
C29   C     C_R   0.662715 0.408451 0.138219 0.646688
C30   C     C_R   0.550970 0.345768 0.109678 0.066135
C31   C     C_2   0.443598 0.359866 0.985081 -0.246850
C32   C     C_2   0.550690 0.321865 0.023399 -0.170964
F1    F     F_    0.778741 0.427086 0.089772 -0.688561
H1    H     H_    0.683740 0.504878 0.753737 0.149003
H2    H     H_    0.101221 0.581531 0.656561 0.215852
H3    H     H_    0.327138 0.365226 0.274466 0.169202
H4    H     H_    0.106508 0.745243 0.615812 0.200126
H5    H     H_    0.858055 0.580897 0.656810 0.213809
H6    H     H_    0.863232 0.744851 0.616614 0.195623
H7    H     H_    0.738017 0.509090 0.236603 0.180382
H8    H     H_    0.646653 0.298629 0.990018 0.187438
H9    H     H_    0.239972 0.367885 0.888134 0.140947
H10   H     H_    0.346204 0.276320 0.140128 0.166335
H11   H     H_    0.252008 0.434825 0.747573 0.153017
H12   H     H_    0.712046 0.886663 0.536600 0.165358
H13   H     H_    0.347938 0.383550 0.018839 0.168524
H14   H     H_    0.671186 0.441258 0.893039 0.154101
H15   H     H_    0.711884 0.114015 0.536796 0.170126
H16   H     H_    0.168748 0.110794 0.488596 0.201156
H17   H     H_    0.300008 0.112268 0.400211 0.201395
H18   H     H_    0.169227 0.887179 0.488041 0.199988
H19   H     H_    0.300854 0.887578 0.399924 0.208287
H20   H     H_    0.882349 0.330645 0.435259 0.150143
H21   H     H_    0.135305 0.331207 0.434737 0.142544
N1    N     N_R   0.857140 0.500860 0.500530 -0.105893
N2    N     N_R   0.142780 0.500820 0.500530 -0.104653
O1    O     O_R   0.385310 0.683210 0.499990 -0.613361
O2    O     O_R   0.614650 0.683240 0.500000 -0.619181
O3    O     O_R   0.371780 0.500000 0.615800 -0.620318
O4    O     O_R   0.601120 0.500040 0.615800 -0.617878
O5    O     O_R   0.385350 0.316760 0.500000 -0.622177
O6    O     O_R   0.614690 0.316790 0.500010 -0.626550
O7    O     O_R   0.398880 0.499960 0.384200 -0.616316
O8    O     O_R   0.628220 0.500000 0.384200 -0.611344
Zn1   Zn    Zn3+2 0.346870 0.499980 0.499990 0.942330
Zn2   Zn    Zn3+2 0.653130 0.500020 0.500010 0.946208

loop_
_geom_bond_atom_site_label_1
_geom_bond_atom_site_label_2
_ccdc_geom_bond_type
C20   O8    A    
C32   H8    S    
O7    Zn1   S    
C24   C25   A    
C25   C31   S    
C6    C7    A    
C3    C9    A    
C19   H5    S    
C23   C27   A    
C27   H3    S    
C9    C10   S    
C31   C32   D    
C3    C11   S    
C13   C17   A    
C2    C27   A    
C7    H15   S    
C4    O4    A    
C20   O7    A    
C14   N1    A    
O4    Zn2   S    
C7    C8    A    
C8    C16   S    
C21   C22   A    
O3    Zn1   S    
C30   C32   S    
C4    C21   S    
C10   H16   S    
C17   N2    A    
C29   C30   A    
C16   O6    A    
C1    C5    S    
C19   H6    S    
C4    O3    A    
C28   C29   A    
C6    H12   S    
C18   H4    S    
C17   C18   S    
C1    O1    A    
C10   C11   S    
C5    C6    A    
C22   H1    S    
C15   N2    A    
C22   C24   A    
C11   H18   S    
C16   O5    A    
O6    Zn2   S    
C2    C20   S    
N2    Zn1   S    
C10   H17   S    
C15   H21   S    
O5    Zn1   S    
C14   H20   S    
C23   H10   S    
C23   C30   A    
C26   H9    S    
C12   H11   S    
C18   C19   S    
C18   H2    S    
O1    Zn1   S    
C28   H7    S    
C14   C15   A    
C8    C9    A    
C13   C19   S    
C2    C28   A    
C11   H19   S    
C3    C5    A    
C25   C26   A    
C1    O2    A    
C24   H14   S    
C12   C21   A    
O2    Zn2   S    
C29   F1    S    
C12   C26   A    
N1    Zn2   S    
C13   N1    A    
C31   H13   S    
O8    Zn2   S    
