data_mof_unit_23850.cif
_audit_creation_date              2013-03-05T15:47:07-0500
_audit_creation_method            fapswitch 2.2
_symmetry_space_group_name_H-M    P1
_symmetry_Int_Tables_number       1
_space_group_crystal_system       triclinic
_cell_length_a                    10.319987
_cell_length_b                    10.607121
_cell_length_c                    13.352672
_cell_angle_alpha                 93.342775
_cell_angle_beta                  101.330663
_cell_angle_gamma                 94.023327
_cell_volume                      1425.74591986

loop_
_atom_site_label
_atom_site_type_symbol
_atom_site_description
_atom_site_fract_x
_atom_site_fract_y
_atom_site_fract_z
_atom_type_partial_charge
O1    O     O_R   0.935190 0.693030 0.507870 -0.537324
O2    O     O_R   0.064810 0.306970 0.492130 -0.528976
O3    O     O_R   0.142080 0.658430 0.482770 -0.578558
O4    O     O_R   0.857920 0.341570 0.517230 -0.582918
C1    C     C_R   0.051408 0.733683 0.495687 0.926902
C2    C     C_R   0.950431 0.266703 0.508943 0.904127
O5    O     O_R   0.969700 0.527180 0.651960 -0.569396
O6    O     O_R   0.030300 0.472820 0.348040 -0.564069
O7    O     O_R   0.176600 0.492580 0.626860 -0.560922
O8    O     O_R   0.823400 0.507420 0.373140 -0.599591
C3    C     C_R   0.094500 0.513120 0.688189 0.925334
C4    C     C_R   0.905349 0.484736 0.312783 0.939603
Zn1   Zn    Zn3+2 0.861850 0.523100 0.516760 1.172654
Zn2   Zn    Zn3+2 0.138150 0.476900 0.483240 1.181924
C5    C     C_R   0.142574 0.519876 0.801632 -0.320416
C6    C     C_R   0.847313 0.451241 0.204092 -0.236017
C7    C     C_R   0.127548 0.606929 0.973187 0.268582
C8    C     C_R   0.787839 0.271129 0.077963 0.277350
C9    C     C_R   0.071653 0.582630 0.868165 0.157122
C10   C     C_R   0.881788 0.340954 0.155411 0.133836
C11   C     C_R   0.261645 0.467723 0.845446 0.275755
C12   C     C_R   0.728670 0.502470 0.163129 0.252442
C13   C     C_R   0.300724 0.469711 0.953105 -0.115121
C14   C     C_R   0.624441 0.421053 0.103058 -0.101093
C15   C     C_R   0.246217 0.553927 0.016252 -0.140819
C16   C     C_R   0.655637 0.306966 0.054263 -0.137488
C17   C     C_R   0.405267 0.399533 0.997908 -0.069299
C18   C     C_R   0.491098 0.453231 0.086301 -0.060899
C19   C     C_R   0.438041 0.534960 0.153940 0.429882
C20   C     C_R   0.428232 0.279324 0.955730 0.414106
C21   C     C_R   0.312104 0.580734 0.120015 0.541485
C22   C     C_R   0.554335 0.233287 0.983148 0.513370
C23   C     C_2   0.077622 0.870631 0.501516 0.079351
C24   C     C_2   0.931673 0.132915 0.526162 0.092380
C25   C     C_2   0.032822 0.938187 0.575367 0.249293
C26   C     C_2   0.035942 0.076622 0.577357 0.263138
N1    N     N_2   0.322180 0.446120 0.460900 -0.054853
N2    N     N_2   0.677820 0.553880 0.539100 -0.043923
C27   C     C_2   0.430499 0.513227 0.508887 0.276928
C28   C     C_2   0.571543 0.475276 0.509403 0.244812
O9    O     O_3   0.253775 0.653038 0.185793 -0.644267
H1    H     H_    0.306785 0.658034 0.256404 0.410930
O10   O     O_3   0.580610 0.117882 0.940954 -0.646318
H2    H     H_    0.504019 0.081090 0.888231 0.410376
N3    N     N_R   0.719323 0.638001 0.174407 0.283043
O11   O     O_R   0.649339 0.693947 0.100547 -0.249792
O12   O     O_R   0.799786 0.708702 0.246555 -0.282160
N4    N     N_R   0.354195 0.429175 0.783809 0.244011
O13   O     O_R   0.478041 0.473176 0.809903 -0.288547
O14   O     O_R   0.323596 0.331832 0.717624 -0.279021
N5    N     N_R   0.012646 0.300144 0.183630 0.245771
O15   O     O_R   0.114409 0.375505 0.175719 -0.326396
O16   O     O_R   0.029902 0.184441 0.207237 -0.215562
N6    N     N_R   0.946003 0.629713 0.829420 0.262107
O17   O     O_R   0.839166 0.552351 0.811838 -0.272636
O18   O     O_R   0.935058 0.751195 0.831885 -0.239680
N7    N     N_R   0.061866 0.686037 0.034466 0.289922
O19   O     O_R   0.102612 0.805426 0.054170 -0.199680
O20   O     O_R   0.948633 0.644953 0.054403 -0.285684
N8    N     N_R   0.828342 0.163731 0.025489 0.288088
O21   O     O_R   0.900974 0.181110 0.957344 -0.301142
O22   O     O_R   0.813096 0.051624 0.058384 -0.174133
O23   O     O_3   0.501579 0.565151 0.254444 -0.719771
H3    H     H_    0.558124 0.496605 0.277305 0.364639
O24   O     O_3   0.327713 0.202356 0.892345 -0.714247
H4    H     H_    0.240837 0.230917 0.900759 0.372217
O25   O     O_3   0.149145 0.148234 0.627815 -0.668636
H5    H     H_    0.214114 0.090065 0.659354 0.393525
O26   O     O_3   0.989688 0.877232 0.653236 -0.672718
H6    H     H_    0.963523 0.941921 0.700505 0.401107
N9    N     N_R   0.808132 0.062421 0.480625 0.219570
O27   O     O_R   0.749050 0.987872 0.534629 -0.224837
O28   O     O_R   0.747623 0.083293 0.388835 -0.240570
N10   N     N_R   0.133987 0.927972 0.422588 0.229417
O29   O     O_R   0.213218 0.866257 0.376995 -0.226720
O30   O     O_R   0.087029 0.028085 0.382204 -0.266282
N11   N     N_R   0.590123 0.345239 0.486718 0.220369
O31   O     O_R   0.571296 0.261614 0.551019 -0.255003
O32   O     O_R   0.615970 0.308893 0.398526 -0.316337
N12   N     N_R   0.414903 0.627297 0.566863 0.206015
O33   O     O_R   0.456957 0.637709 0.665464 -0.278223
O34   O     O_R   0.391598 0.729620 0.519631 -0.275776
N13   N     N_R   0.660072 0.682221 0.538737 0.313033
O35   O     O_R   0.705441 0.754343 0.622125 -0.186610
O36   O     O_R   0.635418 0.733881 0.451683 -0.232262
N14   N     N_R   0.333610 0.336637 0.402192 0.311177
O37   O     O_R   0.291996 0.227626 0.428912 -0.187982
O38   O     O_R   0.355382 0.344690 0.310085 -0.313019

loop_
_geom_bond_atom_site_label_1
_geom_bond_atom_site_label_2
_geom_bond_distance
_ccdc_geom_bond_type
C15   C21   1.421117 A    
N2    C28   1.310553 D    
C19   O23   1.381350 S    
C16   C22   1.419202 A    
N2    N13   1.386432 S    
O9    H1    0.989174 S    
C25   C26   1.465061 S    
C8    C16   1.422378 A    
O7    Zn2   1.875438 S    
C26   O25   1.379225 S    
N11   O31   1.300735 A    
O5    C3    1.305980 A    
N10   O30   1.299842 A    
O1    C1    1.289639 A    
C18   C19   1.427112 A    
C14   C16   1.427488 A    
C10   N5    1.433245 S    
N14   O38   1.299437 A    
N7    O20   1.300237 A    
N8    O22   1.301358 A    
O4    Zn1   1.923492 S    
C7    C9    1.408840 A    
C3    C5    1.494269 S    
C4    C6    1.469592 S    
C1    C23   1.453531 S    
C6    C12   1.399448 A    
C13   C17   1.409613 A    
C24   C26   1.352939 D    
C6    C10   1.406489 A    
C11   N4    1.442643 S    
N4    O14   1.298083 A    
C17   C20   1.417839 A    
O2    C2    1.292559 A    
N3    O12   1.301546 A    
N6    O18   1.300464 A    
N10   O29   1.300762 A    
O25   H5    0.992467 S    
N1    N14   1.387957 S    
N12   O34   1.300168 A    
C27   C28   1.536029 S    
N9    O28   1.300566 A    
N14   O37   1.298989 A    
N3    O11   1.301897 A    
N5    O15   1.299483 A    
N8    O21   1.300741 A    
N5    O16   1.300391 A    
C5    C9    1.422287 A    
O10   H2    0.989289 S    
N13   O35   1.299909 A    
O5    Zn1   1.922056 S    
O6    C4    1.300641 A    
N11   O32   1.300542 A    
O7    C3    1.309072 A    
Zn1   N2    2.025031 S    
O3    Zn2   1.923492 S    
O8    C4    1.302460 A    
C9    N6    1.433846 S    
O4    C2    1.300774 A    
N4    O13   1.301958 A    
N13   O36   1.301466 A    
C11   C13   1.413176 A    
C12   C14   1.412805 A    
O1    Zn1   1.924748 S    
C8    N8    1.432561 S    
N6    O17   1.301152 A    
O6    Zn2   1.922056 S    
C21   O9    1.384180 S    
C14   C18   1.419165 A    
N12   O33   1.298365 A    
O3    C1    1.301796 A    
O8    Zn1   1.875437 S    
C7    C15   1.415670 A    
C27   N12   1.433958 S    
N9    O27   1.299475 A    
N1    C27   1.311694 D    
Zn2   N1    2.025031 S    
C20   C22   1.410282 A    
N7    O19   1.301031 A    
C23   C25   1.357518 D    
C22   O10   1.384042 S    
C8    C10   1.404976 A    
C13   C15   1.412232 A    
O26   H6    0.992244 S    
O2    Zn2   1.924748 S    
C20   O24   1.383673 S    
O23   H3    0.988819 S    
C2    C24   1.456423 S    
C23   N10   1.443943 S    
C5    C11   1.417361 A    
C12   N3    1.448644 S    
C25   O26   1.384622 S    
C19   C21   1.418780 A    
O24   H4    0.990931 S    
C17   C18   1.393591 A    
C28   N11   1.429081 S    
C24   N9    1.436277 S    
C7    N7    1.432055 S    
