data_mof_unit_40412.cif
_audit_creation_date              2013-03-05T16:03:52-0500
_audit_creation_method            fapswitch 2.2
_symmetry_space_group_name_H-M    P1
_symmetry_Int_Tables_number       1
_space_group_crystal_system       triclinic
_cell_length_a                    6.929504
_cell_length_b                    17.736899
_cell_length_c                    19.512315
_cell_angle_alpha                 108.808909
_cell_angle_beta                  90.416533
_cell_angle_gamma                 90.574761
_cell_volume                      2269.89700485

loop_
_atom_site_label
_atom_site_type_symbol
_atom_site_description
_atom_site_fract_x
_atom_site_fract_y
_atom_site_fract_z
_atom_type_partial_charge
O1    O     O_R   0.505700 0.440210 0.561730 -0.606040
O2    O     O_R   0.169350 0.406300 0.412660 -0.593915
O3    O     O_R   0.005650 0.559790 0.438270 -0.587993
C1    C     C_R   0.337308 0.385286 0.383695 0.931239
O4    O     O_R   0.175560 0.430650 0.559600 -0.598683
O5    O     O_R   0.011900 0.584320 0.586250 -0.598639
C2    C     C_R   0.344724 0.415419 0.581019 0.913229
O6    O     O_R   0.499450 0.415680 0.413750 -0.592314
O7    O     O_3   0.341370 0.550390 0.508570 -0.257110
V1    V     V_3+5 0.063940 0.490650 0.498410 1.172231
O8    O     O_R   0.682570 0.593700 0.587340 -0.564803
C3    C     C_R   0.852562 0.617867 0.614261 0.971949
O9    O     O_R   0.676370 0.569350 0.440400 -0.603468
C4    C     C_R   0.844145 0.580265 0.415519 0.954117
V2    V     V_3+5 0.564750 0.509350 0.501590 1.180341
O10   O     O_3   0.837190 0.449610 0.491430 -0.282326
C5    C     C_R   0.035137 0.666932 0.274175 -0.140366
H1    H     H_    0.169216 0.665466 0.245728 0.109419
C6    C     C_R   0.024901 0.625761 0.324363 -0.094667
H2    H     H_    0.151951 0.595185 0.333637 0.113221
C7    C     C_R   0.853241 0.623747 0.361754 -0.085476
C8    C     C_R   0.691054 0.663113 0.346757 -0.173039
H3    H     H_    0.555881 0.662411 0.374070 0.133903
C9    C     C_R   0.702363 0.705753 0.297642 -0.124638
H4    H     H_    0.576319 0.737789 0.289986 0.101374
C10   C     C_R   0.875012 0.708757 0.260772 0.120626
C11   C     C_R   0.728358 0.768494 0.170732 -0.110676
H5    H     H_    0.591367 0.739705 0.173209 0.117561
C12   C     C_R   0.741497 0.817121 0.126732 -0.090409
H6    H     H_    0.614730 0.824267 0.097165 0.152418
C13   C     C_R   0.915998 0.855545 0.120687 -0.114369
C14   C     C_R   0.078974 0.840642 0.157309 -0.062726
H7    H     H_    0.216920 0.866391 0.152512 0.152924
C15   C     C_R   0.065899 0.793347 0.202275 -0.133467
H8    H     H_    0.193975 0.787082 0.231922 0.101205
C16   C     C_R   0.889837 0.756987 0.210386 0.092870
C17   C     C_R   0.142887 0.878981 0.757743 -0.183204
C18   C     C_R   0.239461 0.882185 0.696739 -0.139432
C19   C     C_R   0.187973 0.830212 0.629368 -0.106755
C20   C     C_R   0.042492 0.772703 0.622607 -0.082359
C21   C     C_R   0.971594 0.757785 0.685667 0.051164
C22   C     C_R   0.009039 0.816697 0.754202 0.120210
C23   C     C_R   0.863149 0.687723 0.682299 -0.269639
C24   C     C_R   0.771754 0.682696 0.745738 0.131262
C25   C     C_R   0.786897 0.747075 0.811907 0.084777
C26   C     C_R   0.906988 0.814156 0.816482 -0.270531
C27   C     C_R   0.665498 0.613729 0.744831 -0.228962
C28   C     C_R   0.565237 0.610309 0.805199 -0.225129
C29   C     C_R   0.571234 0.674433 0.869432 0.415337
C30   C     C_R   0.686625 0.741112 0.873175 -0.281522
H9    H     H_    0.176775 0.926548 0.806843 0.137709
H10   H     H_    0.344310 0.929259 0.701134 0.128340
H11   H     H_    0.248865 0.840267 0.582004 0.154882
H12   H     H_    0.657035 0.561190 0.697598 0.144454
H13   H     H_    0.481374 0.557209 0.801300 0.174107
H14   H     H_    0.698997 0.787238 0.925049 0.159470
H15   H     H_    0.170007 0.462720 0.173232 0.161798
C31   C     C_R   0.441488 0.233594 0.390730 -0.134571
C32   C     C_R   0.507438 0.163866 0.398972 -0.136293
C33   C     C_R   0.544803 0.099545 0.338703 -0.137069
C34   C     C_R   0.515025 0.103277 0.268711 -0.068461
C35   C     C_R   0.449651 0.174990 0.257411 0.031349
C36   C     C_R   0.413900 0.241409 0.321307 0.137072
C37   C     C_R   0.420471 0.184012 0.186914 -0.316576
C38   C     C_R   0.353775 0.258649 0.183243 0.122440
C39   C     C_R   0.318341 0.323248 0.247665 0.133079
C40   C     C_R   0.350100 0.314921 0.316418 -0.301089
C41   C     C_R   0.322070 0.270633 0.115549 -0.225047
C42   C     C_R   0.255278 0.343417 0.111104 -0.039939
C43   C     C_R   0.221366 0.405855 0.174944 -0.158774
C44   C     C_R   0.252780 0.396141 0.241999 -0.197483
H16   H     H_    0.411691 0.281394 0.440102 0.097315
H17   H     H_    0.528569 0.159535 0.452617 0.127999
H18   H     H_    0.594900 0.045249 0.346799 0.134999
H19   H     H_    0.350190 0.223656 0.065434 0.139722
H20   H     H_    0.223817 0.446559 0.289475 0.104628
C45   C     C_R   0.543334 0.285681 0.686237 -0.145844
H21   H     H_    0.680496 0.259378 0.691662 0.099518
C46   C     C_R   0.531592 0.331884 0.640188 -0.163115
H22   H     H_    0.660536 0.340506 0.612417 0.132378
C47   C     C_R   0.355712 0.365636 0.629440 -0.135301
C48   C     C_R   0.191874 0.352136 0.666175 -0.143038
H23   H     H_    0.054456 0.377756 0.659697 0.126071
C49   C     C_R   0.204078 0.306686 0.712958 -0.131186
H24   H     H_    0.075748 0.299451 0.741634 0.103050
C50   C     C_R   0.380011 0.272593 0.723650 0.118929
C51   C     C_R   0.236271 0.175994 0.780912 -0.172173
H25   H     H_    0.104726 0.172477 0.749727 0.107757
C52   C     C_R   0.247642 0.130989 0.827996 -0.125214
H26   H     H_    0.123937 0.094962 0.832167 0.120576
C53   C     C_R   0.416893 0.131703 0.868469 -0.087639
C54   C     C_R   0.574818 0.178416 0.860456 -0.122307
H27   H     H_    0.707064 0.180644 0.891020 0.134447
C55   C     C_R   0.562684 0.224230 0.813992 -0.134644
H28   H     H_    0.685643 0.261050 0.810874 0.111865
C56   C     C_R   0.393175 0.223730 0.773425 0.097427
O11   O     O_R   0.273230 0.084330 0.086440 -0.555251
O12   O     O_R   0.596660 0.069390 0.940470 -0.604948
O13   O     O_R   0.760270 0.915710 0.913690 -0.599347
C57   C     C_R   0.427580 0.083859 0.918494 0.909949
O14   O     O_R   0.603330 0.093680 0.087390 -0.590436
O15   O     O_R   0.766990 0.940160 0.061660 -0.600241
C58   C     C_R   0.435090 0.115514 0.116856 0.988827
O16   O     O_R   0.266510 0.059870 0.938470 -0.601648
O17   O     O_3   0.431050 0.949630 0.991510 -0.269205
V3    V     V_3+5 0.708490 0.009340 0.001580 1.186637
O18   O     O_R   0.096270 0.930570 0.059390 -0.572686
C59   C     C_R   0.926977 0.911290 0.077291 1.012939
O19   O     O_R   0.089600 0.906290 0.912460 -0.598790
C60   C     C_R   0.919726 0.882943 0.885064 0.920632
V4    V     V_3+5 0.207670 0.990600 0.998190 1.207507
O20   O     O_3   0.935250 0.050360 0.008480 -0.268944
C61   C     C_2   0.936572 0.746481 0.552773 0.938042
O21   O     O_2   0.022604 0.738353 0.496416 -0.657986
O22   O     O_R   0.735221 0.739966 0.552358 -0.799832
H29   H     H_    0.676144 0.730128 0.502600 0.320197
C62   C     C_2   0.556125 0.029325 0.211240 0.950012
O23   O     O_2   0.717718 0.001698 0.207294 -0.654478
O24   O     O_R   0.407166 0.987538 0.166308 -0.805955
H30   H     H_    0.454639 0.939472 0.126657 0.326393
C63   C     C_2   0.220607 0.354123 0.039639 1.013365
O25   O     O_2   0.169125 0.418583 0.036151 -0.615282
O26   O     O_R   0.245888 0.290481 0.975922 -0.818828
H31   H     H_    0.217379 0.305335 0.930898 0.336038
N1    N     N_R   0.461012 0.671799 0.930891 0.235876
O27   O     O_R   0.378603 0.605748 0.931521 -0.374594
O28   O     O_R   0.430932 0.736563 0.984571 -0.442295

loop_
_geom_bond_atom_site_label_1
_geom_bond_atom_site_label_2
_geom_bond_distance
_ccdc_geom_bond_type
C37   C58   1.512813 S    
C51   H25   1.082300 S    
C21   C22   1.426861 A    
C11   C12   1.402262 A    
C13   C59   1.496537 S    
C6    H2    1.082826 S    
C1    O6    1.292800 A    
C47   C48   1.406107 A    
O26   H31   1.013903 S    
V3    O20   1.710963 S    
C45   H21   1.082376 S    
C41   H19   1.081241 S    
C19   H11   1.083701 S    
C35   C36   1.437665 A    
C5    C10   1.409732 A    
C4    C7    1.490327 S    
C7    C8    1.406753 A    
C6    C7    1.406086 A    
C17   C18   1.386499 A    
C49   C50   1.409933 A    
C3    C23   1.496362 S    
C42   C43   1.397603 A    
C62   O24   1.391370 S    
O5    C3    1.297745 A    
C44   H20   1.081782 S    
C17   H9    1.075349 S    
C18   H10   1.083117 S    
V2    O10   2.153196 S    
C57   O16   1.297100 A    
C15   H8    1.081947 S    
C22   C26   1.423410 A    
C17   C22   1.419409 A    
C35   C37   1.448173 A    
O19   V4    2.011557 S    
O8    V2    2.011444 S    
C20   C61   1.477073 S    
C41   C42   1.404251 A    
O18   C59   1.300036 A    
O15   C59   1.300572 A    
C43   C44   1.389573 A    
O1    V2    1.993292 S    
H15   C43   1.083435 S    
C52   C53   1.406809 A    
O7    V1    2.162410 S    
C32   H17   1.082989 S    
C24   C27   1.416547 A    
C39   C40   1.412125 A    
O17   V4    1.704556 S    
C28   H13   1.082915 S    
C32   C33   1.377232 A    
O14   C58   1.309544 A    
O9    C4    1.299656 A    
C21   C23   1.428699 A    
C55   H28   1.082316 S    
C45   C46   1.400214 A    
C36   C40   1.412726 A    
C34   C62   1.456986 S    
C27   C28   1.389598 A    
C49   H24   1.082401 S    
C19   C20   1.401728 A    
O4    C2    1.301458 A    
C31   C32   1.379419 A    
C25   C26   1.423611 A    
O13   C60   1.297385 A    
C30   H14   1.079140 S    
C33   C34   1.402356 A    
C14   C15   1.398537 A    
O2    C1    1.302064 A    
C23   C24   1.422218 A    
C12   H6    1.078221 S    
C1    C40   1.495395 S    
C39   C44   1.411895 A    
C42   C63   1.484936 S    
O24   H30   1.008781 S    
C38   C41   1.419833 A    
C51   C56   1.408530 A    
C54   C55   1.401646 A    
C5    H1    1.081984 S    
C9    H4    1.082069 S    
C55   C56   1.410005 A    
C63   O25   1.223554 D    
O11   C58   1.297054 A    
O3    C4    1.298591 A    
C50   C56   1.498612 S    
C27   H12   1.079609 S    
C10   C16   1.500307 S    
C20   C21   1.428811 A    
C2    C47   1.488742 S    
C45   C50   1.408428 A    
C48   H23   1.083147 S    
O6    V2    2.010014 S    
O12   C57   1.300826 A    
O9    V2    1.993135 S    
N1    O27   1.301815 A    
C53   C57   1.487531 S    
C8    C9    1.401356 A    
O2    V1    1.999236 S    
C53   C54   1.405832 A    
C24   C25   1.423682 A    
C46   C47   1.407004 A    
C61   O21   1.222476 D    
O14   V3    1.999195 S    
O13   V3    2.003033 S    
C28   C29   1.394724 A    
V4    O20   2.153089 S    
O1    C2    1.297034 A    
O18   V4    1.993082 S    
C13   C14   1.404283 A    
C31   C36   1.417230 A    
C9    C10   1.409857 A    
O5    V1    2.003199 S    
O16   V4    1.988392 S    
O8    C3    1.297285 A    
C11   C16   1.409336 A    
C29   N1    1.439568 S    
O17   V3    2.162360 S    
C48   C49   1.401795 A    
O12   V3    1.994701 S    
C14   H7    1.072941 S    
C26   C60   1.493468 S    
O7    V2    1.704756 S    
O4    V1    1.994685 S    
C12   C13   1.406395 A    
O3    V1    1.993755 S    
V1    O10   1.710938 S    
C62   O23   1.219773 D    
C37   C38   1.429749 A    
C31   H16   1.081304 S    
C18   C19   1.382149 A    
C25   C30   1.419612 A    
O11   V4    2.015662 S    
C33   H18   1.084863 S    
C54   H27   1.083117 S    
C5    C6    1.399415 A    
O15   V3    1.993706 S    
C15   C16   1.407926 A    
C38   C39   1.426404 A    
C34   C35   1.436192 A    
C63   O26   1.397432 S    
C46   H22   1.083116 S    
C29   C30   1.402817 A    
C11   H5    1.082155 S    
N1    O28   1.300853 A    
C51   C52   1.400203 A    
C8    H3    1.082991 S    
C52   H26   1.083206 S    
O19   C60   1.296620 A    
O22   H29   1.012038 S    
C61   O22   1.398631 S    
