data_mof_unit_10378.cif
_audit_creation_date              2012-12-11T15:23:44-0500
_audit_creation_method            fapswitch 2.2
_symmetry_space_group_name_H-M    P1
_symmetry_Int_Tables_number       1
_space_group_crystal_system       triclinic
_cell_length_a                    17.18976
_cell_length_b                    24.215809
_cell_length_c                    14.927566
_cell_angle_alpha                 90.067675
_cell_angle_beta                  125.507433
_cell_angle_gamma                 90.34479
_cell_volume                      5058.1139141

loop_
_atom_site_label
_atom_site_type_symbol
_atom_type_description
_atom_site_fract_x
_atom_site_fract_y
_atom_site_fract_z
_atom_type_partial_charge
C1    C     C_R   0.357532 0.345843 0.909992 -0.144225
C2    C     C_R   0.681848 0.366117 0.088756 -0.133017
C3    C     C_R   0.857841 0.845743 0.909844 -0.142878
C4    C     C_R   0.189884 0.875767 0.090896 -0.128182
C5    C     C_R   0.372308 0.681354 0.000004 0.069874
C6    C     C_R   0.681707 0.649751 0.003677 0.066924
C7    C     C_R   0.892418 0.185566 0.000803 0.083127
C8    C     C_R   0.186626 0.142620 0.001427 0.066104
C9    C     C_R   0.569395 0.500714 0.367678 0.045199
C10   C     C_R   0.528715 0.500532 0.700822 0.041039
C11   C     C_R   0.948297 0.999045 0.274206 0.040639
C12   C     C_R   0.935843 0.999206 0.633290 0.049119
C13   C     C_R   0.175831 0.498142 0.731631 0.125842
C14   C     C_R   0.807517 0.499577 0.361784 0.137665
C15   C     C_R   0.676034 0.998487 0.732695 0.125759
C16   C     C_R   0.308101 0.999774 0.361657 0.140820
C17   C     C_2   0.920512 0.457550 0.541730 -0.109011
C18   C     C_2   0.019751 0.453710 0.639097 -0.124152
C19   C     C_2   0.420700 0.958347 0.542605 -0.112120
C20   C     C_2   0.519600 0.954448 0.640847 -0.130746
C21   C     C_2   0.891513 0.501375 0.474783 -0.207709
C22   C     C_2   0.074457 0.498915 0.685647 -0.188856
C23   C     C_2   0.392881 0.001558 0.474290 -0.198417
C24   C     C_2   0.574624 0.999584 0.686756 -0.189872
C25   C     C_R   0.285731 0.767500 0.901108 -0.227137
C26   C     C_R   0.845423 0.690570 0.101183 -0.249168
C27   C     C_R   0.806037 0.267606 0.900190 -0.189115
C28   C     C_R   0.349420 0.185006 0.099081 -0.243720
C29   C     C_R   0.734744 0.299567 0.890380 0.148533
C30   C     C_R   0.411675 0.222297 0.098722 0.158353
C31   C     C_R   0.253077 0.820087 0.901402 0.154966
C32   C     C_R   0.911206 0.723948 0.099780 0.159450
C33   C     C_R   0.751166 0.321228 0.990343 -0.012612
C34   C     C_R   0.377601 0.250956 0.999495 0.005117
C35   C     C_R   0.269990 0.839606 0.000594 -0.005849
C36   C     C_R   0.879642 0.751049 0.000099 0.002798
C37   C     C_R   0.844219 0.314416 0.090330 0.013329
C38   C     C_R   0.305922 0.224578 0.899424 0.006645
C39   C     C_R   0.350889 0.819377 0.100742 0.013465
C40   C     C_R   0.806708 0.725074 0.900595 0.006903
C41   C     C_R   0.386457 0.767814 0.099713 -0.230364
C42   C     C_R   0.743158 0.690057 0.902796 -0.226974
C43   C     C_R   0.900175 0.271227 0.096325 -0.228372
C44   C     C_R   0.246023 0.186238 0.901027 -0.228511
C45   C     C_R   0.436395 0.649662 0.091331 -0.125909
C46   C     C_R   0.592127 0.634983 0.911464 -0.132732
C47   C     C_R   0.947693 0.152659 0.091352 -0.143998
C48   C     C_R   0.097131 0.127329 0.909125 -0.134352
C49   C     C_R   0.347043 0.739261 0.000274 0.103888
C50   C     C_R   0.756719 0.678295 0.002891 0.118372
C51   C     C_R   0.873072 0.243890 0.000388 0.083916
C52   C     C_R   0.261535 0.171560 0.000790 0.115789
C53   C     C_R   0.591011 0.552156 0.611569 -0.165076
C54   C     C_R   0.606286 0.552246 0.530456 -0.161531
C55   C     C_R   0.892948 0.048873 0.465311 -0.175491
C56   C     C_R   0.893830 0.048791 0.373192 -0.167101
C57   C     C_R   0.603858 0.501957 0.482211 0.138752
C58   C     C_R   0.574141 0.501791 0.643846 0.144005
C59   C     C_R   0.905458 0.998850 0.334811 0.144507
C60   C     C_R   0.902587 0.998961 0.518287 0.142972
C61   C     C_R   0.611249 0.452306 0.534060 -0.167682
C62   C     C_R   0.595288 0.452356 0.614303 -0.175527
C63   C     C_R   0.894626 0.948824 0.373726 -0.169897
C64   C     C_R   0.893831 0.948854 0.465852 -0.169540
C65   C     C_R   0.550858 0.454181 0.304076 -0.125539
C66   C     C_R   0.503208 0.454073 0.732458 -0.130684
C67   C     C_R   0.979796 0.952984 0.248430 -0.124125
C68   C     C_R   0.951336 0.953463 0.696739 -0.145231
C69   C     C_R   0.231596 0.544705 0.754541 -0.149595
C70   C     C_R   0.758338 0.545385 0.300764 -0.168236
C71   C     C_R   0.732025 0.044943 0.755671 -0.150322
C72   C     C_R   0.258659 0.045490 0.300471 -0.166429
C73   C     C_R   0.549510 0.546092 0.302355 -0.121557
C74   C     C_R   0.502670 0.545906 0.732928 -0.126988
C75   C     C_R   0.978747 0.045413 0.247348 -0.122947
C76   C     C_R   0.952227 0.045122 0.697376 -0.139096
C77   C     C_R   0.232722 0.452459 0.755055 -0.117896
C78   C     C_R   0.756925 0.453490 0.300083 -0.100413
C79   C     C_R   0.732651 0.952649 0.755499 -0.122524
C80   C     C_R   0.256879 0.953713 0.300648 -0.111362
C81   C     C_R   0.347364 0.650542 0.908390 -0.148283
C82   C     C_R   0.687086 0.630652 0.094779 -0.135752
C83   C     C_R   0.857144 0.152599 0.908933 -0.144602
C84   C     C_R   0.189456 0.127609 0.093382 -0.131787
C85   C     C_R   0.446858 0.346294 0.091561 -0.122720
C86   C     C_R   0.584804 0.363279 0.906143 -0.147576
C87   C     C_R   0.948173 0.845970 0.091320 -0.143753
C88   C     C_R   0.097922 0.875114 0.907632 -0.138172
C89   C     C_R   0.392274 0.311824 0.000538 0.052513
C90   C     C_R   0.675237 0.347964 0.994719 0.054202
C91   C     C_R   0.893489 0.811739 0.000410 0.059204
C92   C     C_R   0.190494 0.864463 0.999559 0.050526
H1    H     H_    0.319773 0.333958 0.825079 0.119984
H2    H     H_    0.737280 0.357933 0.173905 0.119218
H3    H     H_    0.819856 0.833611 0.824903 0.117268
H4    H     H_    0.246716 0.870008 0.176220 0.120139
H5    H     H_    0.934366 0.538696 0.498117 0.127273
H6    H     H_    0.042486 0.539232 0.673158 0.131750
H7    H     H_    0.436800 0.038368 0.496658 0.127492
H8    H     H_    0.542752 0.040033 0.673104 0.133024
H9    H     H_    0.262720 0.749232 0.823230 0.112091
H10   H     H_    0.864254 0.674186 0.178743 0.111863
H11   H     H_    0.800650 0.252998 0.828799 0.105579
H12   H     H_    0.369649 0.167102 0.176144 0.112421
H13   H     H_    0.444814 0.750362 0.176282 0.114858
H14   H     H_    0.683857 0.672023 0.826760 0.113997
H15   H     H_    0.963636 0.258847 0.174718 0.118421
H16   H     H_    0.187044 0.168662 0.824213 0.119219
H17   H     H_    0.583961 0.591465 0.640460 0.104974
H18   H     H_    0.608251 0.591634 0.497850 0.109405
H19   H     H_    0.893811 0.088324 0.499768 0.106207
H20   H     H_    0.895441 0.088163 0.340270 0.108599
H21   H     H_    0.617034 0.412884 0.504422 0.111870
H22   H     H_    0.590620 0.413365 0.644470 0.112749
H23   H     H_    0.896837 0.909423 0.341249 0.106766
H24   H     H_    0.895525 0.909437 0.500737 0.105950
H25   H     H_    0.480173 0.662699 0.176463 0.083815
H26   H     H_    0.559667 0.649188 0.828905 0.082265
H27   H     H_    0.995450 0.166276 0.175931 0.086928
H28   H     H_    0.068915 0.132917 0.823717 0.092615
H29   H     H_    0.568594 0.411909 0.331304 0.083278
H30   H     H_    0.501160 0.412315 0.707173 0.087838
H31   H     H_    0.969882 0.910033 0.258700 0.090929
H32   H     H_    0.932465 0.911133 0.669022 0.088937
H33   H     H_    0.209096 0.587046 0.745887 0.099493
H34   H     H_    0.771043 0.587429 0.331002 0.093203
H35   H     H_    0.710424 0.087437 0.748587 0.100357
H36   H     H_    0.271658 0.087612 0.330366 0.095780
H37   H     H_    0.566353 0.588830 0.327703 0.082712
H38   H     H_    0.499458 0.587891 0.708268 0.082278
H39   H     H_    0.967760 0.088270 0.256478 0.093283
H40   H     H_    0.934302 0.087367 0.670135 0.083219
H41   H     H_    0.212704 0.409549 0.748419 0.094625
H42   H     H_    0.768640 0.411148 0.327611 0.085712
H43   H     H_    0.712386 0.909771 0.748726 0.094324
H44   H     H_    0.268381 0.911557 0.329198 0.088494
H45   H     H_    0.310371 0.664912 0.824743 0.085437
H46   H     H_    0.744879 0.636244 0.180426 0.091351
H47   H     H_    0.820615 0.165592 0.824505 0.080893
H48   H     H_    0.247348 0.133954 0.178745 0.093011
H49   H     H_    0.492373 0.335004 0.176524 0.102797
H50   H     H_    0.542621 0.349865 0.823070 0.095963
H51   H     H_    0.995276 0.834083 0.175860 0.104076
H52   H     H_    0.068103 0.868186 0.822270 0.098817
H53   H     H_    0.877469 0.420111 0.515135 0.118142
H54   H     H_    0.051331 0.413006 0.657105 0.116241
H55   H     H_    0.376713 0.921327 0.517094 0.119133
H56   H     H_    0.550877 0.913631 0.659961 0.117593
N1    N     N_R   0.395440 0.396300 0.944370 -0.041647
N2    N     N_R   0.604560 0.396300 0.055630 -0.042447
N3    N     N_R   0.895440 0.896300 0.944370 -0.040152
N4    N     N_R   0.104560 0.896300 0.055630 -0.044011
N5    N     N_R   0.449890 0.602500 0.055780 -0.039198
N6    N     N_R   0.550110 0.602500 0.944220 -0.038103
N7    N     N_R   0.949890 0.102500 0.055780 -0.038603
N8    N     N_R   0.050110 0.102500 0.944220 -0.039655
N9    N     N_R   0.525090 0.470990 0.205640 -0.039232
N10   N     N_R   0.474910 0.470990 0.794360 -0.037538
N11   N     N_R   0.025090 0.970990 0.205640 -0.040279
N12   N     N_R   0.974910 0.970990 0.794360 -0.036994
N13   N     N_R   0.320240 0.527820 0.794510 -0.042635
N14   N     N_R   0.679760 0.527820 0.205490 -0.038892
N15   N     N_R   0.820240 0.027820 0.794510 -0.040816
N16   N     N_R   0.179760 0.027820 0.205490 -0.039320
N17   N     N_R   0.524580 0.527810 0.205160 -0.038398
N18   N     N_R   0.475420 0.527810 0.794840 -0.038563
N19   N     N_R   0.024580 0.027810 0.205160 -0.039256
N20   N     N_R   0.975420 0.027810 0.794840 -0.036989
N21   N     N_R   0.320750 0.470990 0.794990 -0.045632
N22   N     N_R   0.679250 0.470990 0.205010 -0.044656
N23   N     N_R   0.820750 0.970990 0.794990 -0.043110
N24   N     N_R   0.179250 0.970990 0.205010 -0.045398
N25   N     N_R   0.393580 0.602500 0.942610 -0.037517
N26   N     N_R   0.606420 0.602500 0.057390 -0.039006
N27   N     N_R   0.893580 0.102500 0.942610 -0.037896
N28   N     N_R   0.106420 0.102500 0.057390 -0.038987
N29   N     N_R   0.451750 0.396300 0.057540 -0.040855
N30   N     N_R   0.548250 0.396300 0.942460 -0.035747
N31   N     N_R   0.951750 0.896300 0.057540 -0.039316
N32   N     N_R   0.048250 0.896300 0.942460 -0.038682
Ni1   Ni    Ni4+2 0.435420 0.434250 0.870220 0.215286
Ni2   Ni    Ni4+2 0.564580 0.434250 0.129780 0.204528
Ni3   Ni    Ni4+2 0.935420 0.934250 0.870220 0.211889
Ni4   Ni    Ni4+2 0.064580 0.934250 0.129780 0.206459
Ni5   Ni    Ni4+2 0.563400 0.564580 0.128670 0.209349
Ni6   Ni    Ni4+2 0.436600 0.564580 0.871330 0.211841
Ni7   Ni    Ni4+2 0.063400 0.064580 0.128670 0.212606
Ni8   Ni    Ni4+2 0.936600 0.064580 0.871330 0.208437
C93   C     C_3   0.641348 0.304499 0.776217 -0.448080
C94   C     C_3   0.636481 0.281078 0.676799 -0.264125
C95   C     C_3   0.536999 0.287811 0.569655 -0.951998
H57   H     H_    0.483267 0.264279 0.573289 0.258097
H58   H     H_    0.516191 0.331848 0.553921 0.261785
H59   H     H_    0.536751 0.271599 0.499864 0.248873
H60   H     H_    0.689281 0.302868 0.668805 0.198806
H61   H     H_    0.651901 0.236107 0.687703 0.194193
H62   H     H_    0.586338 0.281375 0.777885 0.188873
H63   H     H_    0.626110 0.348864 0.760706 0.185963
C96   C     C_3   0.513820 0.226094 0.201431 -0.450671
C97   C     C_3   0.588040 0.231671 0.175353 -0.223017
C98   C     C_3   0.689287 0.236470 0.280390 -0.957019
H64   H     H_    0.696019 0.273727 0.328014 0.256761
H65   H     H_    0.707166 0.199203 0.332092 0.263890
H66   H     H_    0.741003 0.240300 0.258824 0.250154
H67   H     H_    0.583437 0.194817 0.127943 0.196554
H68   H     H_    0.574445 0.268678 0.124676 0.200351
H69   H     H_    0.521273 0.259065 0.257377 0.176475
H70   H     H_    0.530826 0.187380 0.249406 0.189580
C99   C     C_3   0.203498 0.854490 0.797530 -0.465588
C100  C     C_3   0.266891 0.863580 0.757135 -0.233873
C101  C     C_3   0.218001 0.900933 0.656286 -0.911055
H71   H     H_    0.149385 0.882108 0.587934 0.256977
H72   H     H_    0.203825 0.942103 0.676667 0.267084
H73   H     H_    0.265072 0.906554 0.628512 0.247863
H74   H     H_    0.335729 0.883021 0.823820 0.202886
H75   H     H_    0.282523 0.823508 0.734632 0.190262
H76   H     H_    0.135857 0.833557 0.731994 0.181409
H77   H     H_    0.187051 0.896097 0.813567 0.202517
C102  C     C_3   0.013791 0.725538 0.201912 -0.453742
C103  C     C_3   0.087892 0.730427 0.175504 -0.224786
C104  C     C_3   0.189509 0.732783 0.280416 -0.946102
H78   H     H_    0.198724 0.769446 0.330645 0.257260
H79   H     H_    0.205256 0.694778 0.329636 0.263472
H80   H     H_    0.241158 0.736117 0.258675 0.250650
H81   H     H_    0.080841 0.694152 0.125472 0.196923
H82   H     H_    0.076390 0.768150 0.127350 0.200257
H83   H     H_    0.023361 0.758134 0.259717 0.176115
H84   H     H_    0.028612 0.686135 0.247332 0.190418
C105  C     C_R   0.888580 0.353286 0.185201 0.129520
C106  C     C_R   0.888695 0.410329 0.167652 -0.130462
C107  C     C_R   0.937273 0.446918 0.256941 -0.109282
C108  C     C_R   0.986366 0.426943 0.364344 -0.076183
C109  C     C_R   0.985260 0.370490 0.382726 -0.119123
C110  C     C_R   0.936861 0.333695 0.293733 -0.192934
H85   H     H_    0.852652 0.426314 0.084947 0.117408
H86   H     H_    0.937582 0.490737 0.242910 0.112252
H87   H     H_    0.025092 0.455261 0.433348 0.119654
H88   H     H_    0.022623 0.355199 0.466022 0.104965
H89   H     H_    0.937295 0.290013 0.309472 0.106247
C111  C     C_R   0.295459 0.233725 0.794623 0.130802
C112  C     C_R   0.204906 0.242209 0.695524 -0.182379
C113  C     C_R   0.196187 0.251326 0.597584 -0.116559
C114  C     C_R   0.277384 0.251706 0.597434 -0.083999
C115  C     C_R   0.367461 0.243022 0.695221 -0.124515
C116  C     C_R   0.376734 0.234159 0.793516 -0.151901
H90   H     H_    0.141326 0.242800 0.694328 0.107114
H91   H     H_    0.126457 0.258201 0.521803 0.103829
H92   H     H_    0.270514 0.258691 0.521532 0.101751
H93   H     H_    0.430090 0.243003 0.694788 0.104099
H94   H     H_    0.447135 0.227626 0.868668 0.108301
C117  C     C_R   0.403542 0.853129 0.203586 0.124991
C118  C     C_R   0.417221 0.910116 0.198526 -0.143404
C119  C     C_R   0.470382 0.941797 0.294843 -0.102746
C120  C     C_R   0.510570 0.917038 0.397094 -0.075481
C121  C     C_R   0.496047 0.860767 0.403235 -0.125488
C122  C     C_R   0.442837 0.828848 0.307142 -0.183606
H95   H     H_    0.387944 0.929906 0.120113 0.114849
H96   H     H_    0.481058 0.985513 0.290250 0.109995
H97   H     H_    0.552804 0.941542 0.471542 0.119865
H98   H     H_    0.526369 0.841827 0.482577 0.104416
H99   H     H_    0.431981 0.785382 0.313779 0.106129
C123  C     C_R   0.798829 0.731922 0.796571 0.130911
C124  C     C_R   0.709175 0.737423 0.694755 -0.182533
C125  C     C_R   0.703190 0.744754 0.598023 -0.117624
C126  C     C_R   0.786266 0.746722 0.601757 -0.093396
C127  C     C_R   0.875570 0.741257 0.702211 -0.122764
C128  C     C_R   0.882009 0.733729 0.799152 -0.146219
H100  H     H_    0.643974 0.737220 0.690175 0.103565
H101  H     H_    0.634081 0.749232 0.520159 0.104865
H102  H     H_    0.781440 0.752589 0.526809 0.097731
H103  H     H_    0.939903 0.742910 0.705027 0.104326
H104  H     H_    0.951868 0.729580 0.876292 0.108211

loop_
_geom_bond_atom_site_label_1
_geom_bond_atom_site_label_2
_ccdc_geom_bond_type
C93   H63   S    
C2    N2    A    
C23   H7    S    
C55   C56   A    
C102  H83   S    
C25   C31   A    
C97   H67   S    
C6    C82   A    
C83   N27   A    
C27   C29   A    
C28   C52   A    
C98   H64   S    
C7    C83   A    
C19   C20   S    
C16   C72   A    
C86   N30   A    
C47   N7    A    
C116  H94   S    
N16   Ni7   S    
C71   H35   S    
C68   H32   S    
C83   H47   S    
C117  C118  A    
C39   C41   A    
C109  H88   S    
C53   C54   A    
C81   H45   S    
C12   C68   A    
C54   H18   S    
C105  C106  A    
C41   H13   S    
C72   H36   S    
C44   H16   S    
N20   Ni8   S    
C99   H77   S    
C32   C36   A    
C14   C21   S    
N23   Ni3   S    
C10   C58   S    
C69   N13   A    
C62   H22   S    
C104  H80   S    
C87   C91   A    
C127  H103  S    
C26   C50   A    
N26   Ni5   S    
C119  C120  A    
C12   C60   S    
C45   H25   S    
C100  H74   S    
C29   C33   A    
C78   N22   A    
C14   C78   A    
C5    C81   A    
C115  C116  A    
C46   H26   S    
C3    C91   A    
C112  C113  A    
C79   N23   A    
C105  C110  A    
C2    C90   A    
C28   H12   S    
C111  C112  A    
C93   H62   S    
C82   H46   S    
C110  H89   S    
N27   Ni8   S    
C4    H4    S    
C40   C123  S    
C119  H96   S    
C56   H20   S    
C15   C79   A    
C88   C92   A    
C11   C67   A    
C125  C126  A    
C25   C49   A    
C31   C99   S    
C17   C18   S    
C103  H81   S    
C1    C89   A    
C66   H30   S    
C1    N1    A    
C107  H86   S    
C65   H29   S    
N11   Ni4   S    
N4    Ni4   S    
N15   N23   A    
C109  C110  A    
C8    C52   S    
N12   Ni3   S    
C9    C57   S    
C61   C62   A    
N32   Ni3   S    
C94   H61   S    
N2    N30   A    
C63   H23   S    
C35   C92   S    
C70   H34   S    
N8    Ni8   S    
C30   C96   S    
C48   N8    A    
C69   H33   S    
C96   C97   S    
C76   H40   S    
C18   C22   D    
C55   C60   A    
N22   Ni2   S    
N1    Ni1   S    
C98   H65   S    
C5    C49   S    
C14   C70   A    
C77   H41   S    
C11   C59   S    
C70   N14   A    
C41   C49   A    
C103  C104  S    
C75   H39   S    
C118  H95   S    
C88   N32   A    
C73   H37   S    
N29   Ni2   S    
C10   C66   A    
C124  H100  S    
C46   N6    A    
C13   C77   A    
N25   Ni6   S    
N17   Ni5   S    
C115  H93   S    
C30   C34   A    
C75   N19   A    
C112  H90   S    
N30   Ni1   S    
C82   N26   A    
C2    H2    S    
C48   H28   S    
C86   C90   A    
C85   H49   S    
C123  C128  A    
N7    Ni7   S    
C85   C89   A    
C26   C32   A    
C97   C98   S    
C8    C84   A    
C84   N28   A    
C5    C45   A    
C64   H24   S    
C106  C107  A    
C33   C37   A    
C95   H57   S    
N15   Ni8   S    
C16   C80   A    
C34   C38   A    
N4    N32   A    
C17   H53   S    
C126  H102  S    
C8    C48   A    
C94   C95   S    
C38   C44   A    
N13   Ni6   S    
C7    C51   S    
C104  H78   S    
C21   H5    S    
C128  H104  S    
N24   Ni4   S    
N3    N31   A    
C101  H71   S    
N14   N22   A    
C36   C40   A    
N5    N25   A    
N19   Ni7   S    
C101  H73   S    
C96   H69   S    
C99   C100  S    
C72   N16   A    
C103  H82   S    
C106  H85   S    
C43   H15   S    
C6    C50   S    
C4    N4    A    
C57   C61   A    
C42   H14   S    
C66   N10   A    
N21   Ni1   S    
C71   N15   A    
C58   C62   A    
C42   C50   A    
C94   H60   S    
C36   C91   S    
C85   N29   A    
C15   C24   S    
C101  H72   S    
C73   N17   A    
C100  C101  S    
C16   C23   S    
C12   C76   A    
C61   H21   S    
C108  H87   S    
C102  H84   S    
C98   H66   S    
C31   C35   A    
C37   C43   A    
N16   N24   A    
C45   N5    A    
N9    Ni2   S    
C80   N24   A    
N9    N17   A    
C121  C122  A    
C74   H38   S    
C74   N18   A    
N2    Ni2   S    
C79   H43   S    
C47   H27   S    
C86   H50   S    
N28   Ni7   S    
N31   Ni4   S    
C126  C127  A    
C53   H17   S    
C102  C103  S    
C77   N21   A    
C121  H98   S    
N8    N28   A    
C97   H68   S    
C19   H55   S    
C6    C46   A    
C55   H19   S    
C24   H8    S    
C3    N3    A    
C9    C73   A    
C125  H101  S    
C7    C47   A    
C18   H54   S    
C67   H31   S    
C44   C52   A    
N14   Ni5   S    
C3    H3    S    
C53   C58   A    
N3    Ni3   S    
C123  C124  A    
C65   N9    A    
C15   C71   A    
C20   H56   S    
C27   H11   S    
C59   C63   A    
C113  H91   S    
C80   H44   S    
C56   C59   A    
C60   C64   A    
C99   H76   S    
C13   C69   A    
C120  C121  A    
C124  C125  A    
C34   C89   S    
N13   N21   A    
C28   C30   A    
C104  H79   S    
C11   C75   A    
C33   C90   S    
C95   H58   S    
C87   N31   A    
C10   C74   A    
C25   H9    S    
C117  C122  A    
C111  C116  A    
C96   H70   S    
N5    Ni5   S    
C120  H97   S    
C43   C51   A    
C100  H75   S    
C35   C39   A    
C113  C114  A    
N6    Ni6   S    
C40   C42   A    
C108  C109  A    
C27   C51   A    
C68   N12   A    
N11   N19   A    
C13   C22   S    
C76   N20   A    
C29   C93   S    
C22   H6    S    
N12   N20   A    
C93   C94   S    
C20   C24   D    
N10   Ni1   S    
C9    C65   A    
C95   H59   S    
C32   C102  S    
C127  C128  A    
N18   Ni6   S    
C38   C111  S    
C63   C64   A    
C78   H42   S    
N10   N18   A    
N7    N27   A    
C19   C23   D    
N6    N26   A    
C39   C117  S    
C84   H48   S    
C1    H1    S    
C114  H92   S    
C37   C105  S    
C107  C108  A    
C67   N11   A    
N1    N29   A    
C87   H51   S    
C122  H99   S    
C88   H52   S    
C26   H10   S    
C114  C115  A    
C81   N25   A    
C118  C119  A    
C4    C92   A    
C54   C57   A    
C17   C21   D    
