data_mof_unit_46201.cif
_audit_creation_date              2012-10-26T20:58:15-0400
_audit_creation_method            fapswitch 2.2
_symmetry_space_group_name_H-M    P1
_symmetry_Int_Tables_number       1
_space_group_crystal_system       triclinic
_cell_length_a                    10.647199
_cell_length_b                    14.751699
_cell_length_c                    14.806464
_cell_angle_alpha                 65.121297
_cell_angle_beta                  104.120681
_cell_angle_gamma                 103.380626
_cell_volume                      2023.96808384

loop_
_atom_site_label
_atom_site_type_symbol
_atom_type_description
_atom_site_fract_x
_atom_site_fract_y
_atom_site_fract_z
_atom_type_partial_charge
C1    C     C_R   0.478982 0.119637 0.312659 0.596542
C2    C     C_R   0.464129 0.540175 0.966850 0.065986
C3    C     C_R   0.326804 0.519274 0.952543 -0.048524
C4    C     C_R   0.673294 0.480709 0.047438 -0.048560
C5    C     C_R   0.263247 0.420830 0.980177 -0.037764
C6    C     C_R   0.736846 0.579151 0.019774 -0.037785
C7    C     C_R   0.719115 0.286978 0.669198 0.245209
C8    C     C_R   0.280886 0.713027 0.330798 0.245203
C9    C     C_R   0.689212 0.207145 0.636194 0.428594
C10   C     C_R   0.310784 0.792855 0.363808 0.428585
C11   C     C_R   0.516403 0.283994 0.511573 0.084419
C12   C     C_R   0.521035 0.880362 0.687339 0.596505
C13   C     C_R   0.483598 0.716007 0.488424 0.084434
C14   C     C_R   0.551289 0.372496 0.534251 -0.017906
C15   C     C_R   0.448712 0.627507 0.465744 -0.017902
C16   C     C_R   0.259931 0.998737 0.501616 0.617102
C17   C     C_R   0.740069 0.001256 0.498396 0.617094
C18   C     C_R   0.645895 0.367644 0.621053 -0.038762
C19   C     C_R   0.354106 0.632360 0.378942 -0.038760
C20   C     C_R   0.490827 0.462579 0.478480 0.027578
C21   C     C_R   0.509174 0.537424 0.521514 0.027581
C22   C     C_R   0.584498 0.517240 0.619533 0.233243
C23   C     C_R   0.522790 0.284430 0.169025 0.228302
C24   C     C_R   0.415500 0.482763 0.380462 0.233234
C25   C     C_R   0.659346 0.439208 0.662912 -0.017577
C26   C     C_R   0.340652 0.560795 0.337084 -0.017576
C27   C     C_3   0.041064 0.075698 0.418702 0.188250
C28   C     C_3   0.958935 0.924285 0.581334 0.188257
C29   C     C_3   0.989530 0.088557 0.500617 0.217768
C30   C     C_3   0.010469 0.911424 0.499418 0.217744
C31   C     C_3   0.876577 0.002374 0.498172 -0.076108
C32   C     C_3   0.123423 0.997609 0.501861 -0.076122
C33   C     C_3   0.927584 0.989716 0.416222 0.199800
C34   C     C_R   0.477288 0.715551 0.830966 0.228300
C35   C     C_3   0.072416 0.010267 0.583812 0.199808
C36   C     C_R   0.448368 0.187784 0.206816 -0.000757
C37   C     C_R   0.551689 0.812210 0.793173 -0.000787
C38   C     C_R   0.267183 0.240570 0.071866 0.256842
C39   C     C_R   0.732926 0.759411 0.928023 0.256930
C40   C     C_R   0.327295 0.164685 0.152439 -0.076823
C41   C     C_R   0.672785 0.835302 0.847498 -0.076766
C42   C     C_R   0.467755 0.360802 0.079629 0.023124
C43   C     C_R   0.532343 0.639184 0.920351 0.023129
C44   C     C_R   0.332788 0.340323 0.040964 0.022774
C45   C     C_R   0.667313 0.659662 0.958977 0.022803
C46   C     C_R   0.535973 0.459811 0.033135 0.065974
Cl1   Cl    Cl    0.978733 0.208003 0.499265 -0.332323
Cl2   Cl    Cl    0.901409 0.824252 0.689317 -0.409958
Cl3   Cl    Cl    0.830455 0.976963 0.304511 -0.351274
Cl4   Cl    Cl    0.169547 0.023026 0.695521 -0.351193
Cl5   Cl    Cl    0.329492 0.688838 0.752769 -0.460243
Cl6   Cl    Cl    0.670597 0.311110 0.247224 -0.460256
Cl7   Cl    Cl    0.105285 0.208137 0.017558 -0.355278
Cl8   Cl    Cl    0.894891 0.791824 0.982143 -0.355365
Cl9   Cl    Cl    0.021273 0.791972 0.500783 -0.332355
Cl10  Cl    Cl    0.215116 0.891275 0.302714 -0.383132
Cl11  Cl    Cl    0.784866 0.108718 0.697302 -0.383126
Cl12  Cl    Cl    0.849294 0.284716 0.770846 -0.388014
Cl13  Cl    Cl    0.150717 0.715301 0.229137 -0.388053
Cl14  Cl    Cl    0.572864 0.571967 0.702463 -0.539680
Cl15  Cl    Cl    0.427129 0.428035 0.297527 -0.539685
Cl16  Cl    Cl    0.098567 0.175755 0.310730 -0.409949
Cu1   Cu    Cu3+1 0.465750 0.918270 0.475680 1.166555
Cu2   Cu    Cu3+1 0.534250 0.081730 0.524320 1.166554
H1    H     H_    0.570276 0.725503 0.540874 0.211757
H2    H     H_    0.279668 0.569848 0.264602 0.216288
H3    H     H_    0.429722 0.274497 0.459124 0.211758
H4    H     H_    0.157752 0.408934 0.959807 0.205786
H5    H     H_    0.842334 0.591040 0.040135 0.205799
H6    H     H_    0.728760 0.909633 0.819568 0.228412
H7    H     H_    0.271322 0.090349 0.180341 0.228388
H8    H     H_    0.266315 0.578287 0.921089 0.198949
H9    H     H_    0.733776 0.421692 0.078894 0.198947
H10   H     H_    0.720326 0.430152 0.735396 0.216279
N1    N     N_R   0.585750 0.204560 0.560800 -0.271561
N2    N     N_R   0.414250 0.795440 0.439200 -0.271557
O1    O     O_R   0.454850 0.022100 0.338110 -0.487666
O2    O     O_R   0.545150 0.977900 0.661890 -0.487663
O3    O     O_R   0.512700 0.160150 0.379180 -0.447005
O4    O     O_R   0.487300 0.839850 0.620820 -0.447001
O5    O     O_R   0.287930 0.931000 0.479440 -0.427275
O6    O     O_R   0.712070 0.069000 0.520560 -0.427291
O7    O     O_R   0.345780 0.069050 0.520520 -0.495599
O8    O     O_R   0.654220 0.930950 0.479480 -0.495605

loop_
_geom_bond_atom_site_label_1
_geom_bond_atom_site_label_2
_ccdc_geom_bond_type
C6    H5    S    
C30   C32   S    
C24   Cl15  S    
C40   H7    S    
C27   C29   S    
C34   C37   A    
C1    O1    A    
C14   C18   A    
C39   C41   A    
C13   H1    S    
C27   C33   S    
C15   C19   A    
C34   Cl5   S    
C23   C42   A    
Cu1   O5    S    
C6    C45   A    
C24   C26   A    
C25   H10   S    
C8    Cl13  S    
C22   Cl14  S    
C11   C14   A    
C39   Cl8   S    
Cu1   N2    S    
C33   Cl3   S    
C17   O6    A    
C42   C46   A    
C12   C37   S    
C19   C26   A    
C10   N2    A    
C20   C24   A    
C28   C35   S    
C22   C25   A    
C12   O2    A    
C31   C33   S    
C10   Cl10  S    
C7    Cl12  S    
C39   C45   A    
C21   C22   A    
C18   C25   A    
C42   C44   A    
C5    H4    S    
C11   H3    S    
Cu1   O4    S    
C8    C19   A    
C26   H2    S    
C32   C35   S    
C14   C20   A    
C36   C40   A    
C4    C6    A    
C4    C46   A    
C16   O7    A    
C2    C46   A    
Cu2   O7    S    
C38   C44   A    
C27   Cl16  S    
C13   N2    A    
C2    C43   A    
C7    C18   A    
C35   Cl4   S    
C43   C45   A    
Cu2   O6    S    
C4    H9    S    
C5    C44   A    
C29   Cl1   S    
C13   C15   A    
C17   C31   S    
Cu2   O3    S    
Cu1   O1    S    
C7    C9    A    
C28   Cl2   S    
C30   C33   S    
C27   C32   S    
Cu2   O2    S    
C28   C31   S    
C34   C43   A    
C3    C5    A    
C16   C32   S    
C30   Cl9   S    
C29   C35   S    
Cu1   O8    S    
C17   O8    A    
C28   C30   S    
C3    H8    S    
C29   C31   S    
C11   N1    A    
C38   C40   A    
C23   Cl6   S    
C38   Cl7   S    
C1    O3    A    
C12   O4    A    
C16   O5    A    
Cu2   N1    S    
C2    C3    A    
C9    Cl11  S    
C37   C41   A    
Cu1   Cu2   S    
C15   C21   A    
C20   C21   A    
C8    C10   A    
C23   C36   A    
C9    N1    A    
C1    C36   S    
C41   H6    S    
