data_mof_unit_35845.cif
_audit_creation_date              2012-12-10T20:58:01-0500
_audit_creation_method            fapswitch 2.2
_symmetry_space_group_name_H-M    P1
_symmetry_Int_Tables_number       1
_space_group_crystal_system       triclinic
_cell_length_a                    18.176868
_cell_length_b                    18.248822
_cell_length_c                    18.401902
_cell_angle_alpha                 120.024884
_cell_angle_beta                  90.047242
_cell_angle_gamma                 119.882818
_cell_volume                      4320.43298979

loop_
_atom_site_label
_atom_site_type_symbol
_atom_type_description
_atom_site_fract_x
_atom_site_fract_y
_atom_site_fract_z
_atom_type_partial_charge
C1    C     C_R   0.359234 0.219996 0.361027 0.812758
C2    C     C_3   0.347705 0.611499 0.323148 0.290482
C3    C     C_3   0.301236 0.501085 0.301540 0.095768
C4    C     C_3   0.198403 0.500151 0.199920 0.079082
C5    C     C_3   0.148742 0.466278 0.257178 -0.389850
C6    C     C_3   0.286646 0.610290 0.262963 -0.348661
C7    C     C_3   0.638641 0.939190 0.720112 -0.366693
C8    C     C_3   0.697147 0.058419 0.781034 -0.323769
C9    C     C_3   0.758887 0.939365 0.788166 -0.412845
C10   C     C_3   0.759385 0.941618 0.652497 -0.341217
C11   C     C_3   0.698244 0.897643 0.698854 0.094765
C12   C     C_R   0.640908 0.781101 0.640067 0.767699
C13   C     C_3   0.798774 0.102453 0.802406 0.109582
C14   C     C_3   0.817817 0.059325 0.848827 -0.487440
C15   C     C_3   0.818924 0.061989 0.713026 0.292643
C16   C     C_3   0.638918 0.420888 0.201390 -0.385929
C17   C     C_3   0.698613 0.423619 0.142713 -0.515457
C18   C     C_3   0.761888 0.610084 0.323421 0.195845
C19   C     C_3   0.757152 0.467406 0.319075 0.132845
C20   C     C_3   0.697831 0.499470 0.301687 0.032584
C21   C     C_3   0.799694 0.499408 0.200511 0.082538
C22   C     C_3   0.821374 0.609477 0.263004 -0.447894
C23   C     C_R   0.358911 0.500264 0.640417 0.806998
C24   C     C_3   0.815666 0.464395 0.257265 0.201201
C25   C     C_R   0.342073 0.171833 0.590420 0.344156
C26   C     C_R   0.336743 0.122544 0.500691 0.462092
C27   C     C_R   0.269497 0.098888 0.437204 -0.167968
C28   C     C_R   0.208948 0.124204 0.464259 -0.283178
C29   C     C_R   0.211973 0.170625 0.552626 0.466420
C30   C     C_R   0.277047 0.192236 0.616444 0.165630
C31   C     C_R   0.210109 0.943690 0.286623 -0.239405
C32   C     C_R   0.200319 0.892057 0.196230 -0.064228
C33   C     C_R   0.246032 0.948738 0.160758 -0.007330
C34   C     C_R   0.640584 0.500118 0.359413 0.913390
C35   C     C_R   0.296048 0.055911 0.216099 -0.256690
C36   C     C_R   0.304403 0.107483 0.306245 -0.050352
C37   C     C_R   0.262441 0.050543 0.342298 0.047600
C38   C     C_R   0.288373 0.848594 0.038698 -0.114082
C39   C     C_R   0.288864 0.803405 0.951090 -0.100128
C40   C     C_R   0.247526 0.809592 0.892271 -0.087060
C41   C     C_R   0.205998 0.861353 0.921024 -0.130431
C42   C     C_R   0.205631 0.906984 0.008651 -0.141884
C43   C     C_R   0.246213 0.900163 0.067851 0.151411
C44   C     C_R   0.901521 0.570967 0.538376 -0.135833
C45   C     C_R   0.641892 0.499517 0.639393 0.811753
C46   C     C_R   0.852276 0.527860 0.581024 -0.161160
C47   C     C_R   0.837166 0.587098 0.656572 0.148894
C48   C     C_R   0.872723 0.690243 0.689567 -0.089478
C49   C     C_R   0.920714 0.732550 0.645840 -0.137991
C50   C     C_R   0.935178 0.672981 0.570341 -0.100459
C51   C     C_R   0.839481 0.541573 0.760105 -0.256546
C52   C     C_R   0.799216 0.497876 0.805452 -0.037897
C53   C     C_R   0.706872 0.453454 0.794759 0.085267
C54   C     C_R   0.657845 0.456357 0.740348 -0.197966
C55   C     C_R   0.698221 0.500530 0.695384 -0.063493
C56   C     C_R   0.358285 0.500340 0.359345 0.757912
C57   C     C_R   0.790132 0.543327 0.704809 -0.018001
C58   C     C_R   0.623687 0.299603 0.801632 0.444247
C59   C     C_R   0.571669 0.251912 0.841982 0.390373
C60   C     C_R   0.559025 0.310679 0.919716 -0.149079
C61   C     C_R   0.593591 0.413744 0.955763 -0.233786
C62   C     C_R   0.642434 0.460028 0.915261 -0.280910
C63   C     C_R   0.658083 0.403838 0.838704 0.050736
C64   C     C_R   0.333994 0.749972 0.659273 -0.217669
C65   C     C_R   0.335321 0.704221 0.701236 0.510589
C66   C     C_R   0.261116 0.601659 0.667170 -0.023654
C67   C     C_3   0.282731 0.423956 0.201333 -0.317526
C68   C     C_R   0.186725 0.550000 0.594411 -0.333744
C69   C     C_R   0.185492 0.597992 0.554270 0.492212
C70   C     C_R   0.259906 0.697504 0.586625 -0.224872
C71   C     C_R   0.202752 0.544783 0.762231 -0.261519
C72   C     C_R   0.195489 0.498224 0.805844 -0.068696
C73   C     C_R   0.242981 0.453007 0.795366 0.025126
C74   C     C_R   0.296068 0.455911 0.741212 -0.222577
C75   C     C_R   0.303058 0.502231 0.697382 -0.062533
C76   C     C_R   0.256736 0.548834 0.709184 0.014493
C77   C     C_R   0.320423 0.453269 0.907816 -0.322488
C78   C     C_3   0.223787 0.424684 0.142211 -0.356534
C79   C     C_R   0.323261 0.405666 0.947970 0.376245
C80   C     C_R   0.246062 0.307823 0.920115 0.475055
C81   C     C_R   0.168623 0.260042 0.853181 -0.176321
C82   C     C_R   0.166888 0.307319 0.813260 -0.122109
C83   C     C_R   0.242362 0.404854 0.840992 0.122588
C84   C     C_R   0.856994 0.499549 0.142738 0.813139
C85   C     C_R   0.139140 0.499993 0.862181 0.796130
C86   C     C_R   0.856688 0.218974 0.862222 0.751218
C87   C     C_R   0.140319 0.779818 0.141137 0.785003
C88   C     C_R   0.855787 0.500035 0.862393 0.817464
C89   C     C_3   0.209382 0.467336 0.317181 -0.477554
C90   C     C_R   0.139880 0.499910 0.142700 0.765960
H1    H     H_    0.247913 0.344122 0.183948 0.172627
H2    H     H_    0.270657 0.666290 0.305687 0.151202
H3    H     H_    0.129814 0.519266 0.299577 0.220312
H4    H     H_    0.593626 0.908930 0.753434 0.210526
H5    H     H_    0.594936 0.911695 0.657304 0.186031
H6    H     H_    0.680439 0.087656 0.747844 0.209648
H7    H     H_    0.680834 0.084844 0.843782 0.183735
H8    H     H_    0.716406 0.909111 0.822893 0.177887
H9    H     H_    0.803791 0.086666 0.912785 0.181627
H10   H     H_    0.347152 0.444681 0.187215 0.227751
H11   H     H_    0.716913 0.911791 0.587836 0.202184
H12   H     H_    0.890879 0.089150 0.727487 0.086362
H13   H     H_    0.803124 0.911837 0.775471 0.180970
H14   H     H_    0.890087 0.088778 0.864964 0.184188
H15   H     H_    0.592384 0.437746 0.185983 0.186355
H16   H     H_    0.595837 0.341097 0.184411 0.236791
H17   H     H_    0.680724 0.344052 0.094680 0.208858
H18   H     H_    0.810812 0.634949 0.222634 0.172429
H19   H     H_    0.795844 0.383507 0.210358 0.117246
H20   H     H_    0.161979 0.344803 0.095261 0.193879
H21   H     H_    0.175983 0.900860 0.314485 0.184278
H22   H     H_    0.330636 0.099208 0.188739 0.178566
H23   H     H_    0.320528 0.843311 0.083737 0.108334
H24   H     H_    0.173234 0.946892 0.030226 0.130053
H25   H     H_    0.972668 0.705899 0.536754 0.153667
H26   H     H_    0.174912 0.388904 0.302836 0.180078
H27   H     H_    0.826685 0.448834 0.555833 0.140474
H28   H     H_    0.862918 0.737402 0.748733 0.114766
H29   H     H_    0.909932 0.573806 0.766761 0.177256
H30   H     H_    0.520272 0.275416 0.951342 0.178482
H31   H     H_    0.581911 0.457682 0.015019 0.184190
H32   H     H_    0.085442 0.387069 0.213217 0.168346
H33   H     H_    0.260028 0.734803 0.555724 0.176877
H34   H     H_    0.390613 0.827498 0.683885 0.180686
H35   H     H_    0.129440 0.472648 0.569576 0.156918
H36   H     H_    0.332751 0.421898 0.733770 0.201667
H37   H     H_    0.379224 0.527770 0.928044 0.141340
H38   H     H_    0.357539 0.666529 0.393927 0.095170
H39   H     H_    0.106301 0.268195 0.761092 0.144193
O1    O     O_3   0.500000 0.500000 0.500000 -0.485998
O2    O     O_R   0.383400 0.560740 0.616060 -0.631143
O3    O     O_R   0.555060 0.439270 0.322940 -0.640517
O4    O     O_R   0.383950 0.268380 0.445700 -0.636088
O5    O     O_R   0.677590 0.731610 0.615290 -0.645490
O6    O     O_3   0.997750 0.500010 0.002220 -0.482335
O7    O     O_R   0.942690 0.560750 0.179280 -0.589447
O8    O     O_R   0.114340 0.439270 0.886160 -0.649623
O9    O     O_R   0.820160 0.268410 0.886930 -0.633922
O10   O     O_R   0.113800 0.731630 0.056520 -0.635841
O11   O     O_R   0.819390 0.439310 0.886160 -0.635273
O12   O     O_R   0.383400 0.268380 0.323710 -0.649791
O13   O     O_R   0.115110 0.560720 0.179280 -0.632305
O14   O     O_R   0.941380 0.560750 0.885620 -0.652495
O15   O     O_R   0.115110 0.439270 0.057830 -0.651022
O16   O     O_R   0.942690 0.268390 0.886930 -0.661735
O17   O     O_R   0.114340 0.731630 0.178520 -0.647665
O18   O     O_R   0.820160 0.439310 0.057830 -0.665098
O19   O     O_R   0.113800 0.560730 0.885620 -0.640888
O20   O     O_R   0.555060 0.731630 0.615290 -0.637206
O21   O     O_R   0.383950 0.439280 0.616600 -0.653149
O22   O     O_R   0.677590 0.560710 0.444390 -0.655517
O23   O     O_R   0.556370 0.439260 0.616600 -0.638693
O24   O     O_R   0.382640 0.439290 0.322940 -0.640196
O25   O     O_R   0.678360 0.560700 0.616060 -0.646704
O26   O     O_R   0.382640 0.560750 0.444390 -0.659034
Zn1   Zn    Zn3+2 0.456040 0.586770 0.543190 0.975529
Zn2   Zn    Zn3+2 0.456820 0.413240 0.543960 0.983960
Zn3   Zn    Zn3+2 0.631110 0.586750 0.543190 0.983407
Zn4   Zn    Zn3+2 0.456040 0.413240 0.369660 0.987190
Zn5   Zn    Zn3+2 0.041710 0.413240 0.959030 0.948676
Zn6   Zn    Zn3+2 0.866640 0.413270 0.959030 0.971376
Zn7   Zn    Zn3+2 0.040930 0.586780 0.958260 0.970150
Zn8   Zn    Zn3+2 0.041710 0.586770 0.132560 0.986341
H40   H     H_    0.220210 0.521579 0.388084 0.218970
H41   H     H_    0.803443 0.913864 0.637013 0.142606
O27   O     O_3   0.802519 0.098473 0.667728 -0.756425
H42   H     H_    0.857173 0.169121 0.693424 0.325575
H43   H     H_    0.685096 0.448840 0.103613 0.208172
O28   O     O_3   0.714332 0.649692 0.317324 -0.755188
H44   H     H_    0.681430 0.611364 0.253606 0.348977
H45   H     H_    0.261134 0.448933 0.101910 0.205004
H46   H     H_    0.801816 0.526401 0.389954 0.133150
O29   O     O_3   0.702921 0.370255 0.304900 -0.788791
H47   H     H_    0.743316 0.362961 0.332820 0.330070
O30   O     O_3   0.907047 0.528841 0.308999 -0.774654
H48   H     H_    0.916675 0.491134 0.327943 0.326760
H49   H     H_    0.807546 0.663412 0.393628 0.152787
H50   H     H_    0.893524 0.666197 0.305524 0.209422
O31   O     O_3   0.274221 0.230560 0.702009 -0.801354
H51   H     H_    0.299659 0.209360 0.728990 0.356684
O32   O     O_3   0.412749 0.200455 0.650861 -0.704367
H52   H     H_    0.427556 0.261602 0.709681 0.328195
O33   O     O_3   0.400484 0.102422 0.479038 -0.690182
H53   H     H_    0.390501 0.068464 0.414539 0.332806
H54   H     H_    0.158386 0.107323 0.415833 0.194636
O34   O     O_3   0.148633 0.191405 0.573082 -0.754588
H55   H     H_    0.159110 0.226267 0.637595 0.373468
H56   H     H_    0.321193 0.763514 0.928795 0.131762
H57   H     H_    0.247668 0.774404 0.824448 0.135716
H58   H     H_    0.174127 0.866162 0.875407 0.141678
H59   H     H_    0.913434 0.525191 0.480434 0.142677
H60   H     H_    0.947231 0.811710 0.670844 0.131104
H61   H     H_    0.587297 0.423691 0.733407 0.177785
O35   O     O_3   0.643317 0.248314 0.727904 -0.735706
H62   H     H_    0.644698 0.194948 0.728207 0.332190
O36   O     O_3   0.530477 0.148690 0.806977 -0.779338
H63   H     H_    0.519698 0.110042 0.742140 0.345300
H64   H     H_    0.668063 0.539795 0.943431 0.160332
O37   O     O_3   0.409849 0.762250 0.774382 -0.785687
H65   H     H_    0.401679 0.723326 0.799943 0.323848
O38   O     O_3   0.112706 0.549994 0.483876 -0.791711
H66   H     H_    0.065955 0.480441 0.468869 0.323296
H67   H     H_    0.166187 0.578905 0.769541 0.175962
O39   O     O_3   0.400027 0.452725 0.013588 -0.802635
H68   H     H_    0.447280 0.519961 0.024706 0.339842
O40   O     O_3   0.243444 0.256317 0.956204 -0.788398
H69   H     H_    0.301826 0.298590 0.002952 0.370547
H70   H     H_    0.109400 0.185163 0.831453 0.157248
O41   O     O_3   0.431540 0.645730 0.309714 -0.753354
H71   H     H_    0.476144 0.675314 0.364592 0.329207
H72   H     H_    0.322647 0.636265 0.222838 0.194192

loop_
_geom_bond_atom_site_label_1
_geom_bond_atom_site_label_2
_ccdc_geom_bond_type
C66   C68   A    
C69   O38   S    
C9    H8    S    
O21   Zn2   S    
C73   C74   A    
C54   C55   A    
C80   O40   S    
C35   C36   A    
C8    H6    S    
C85   O19   A    
C10   H41   S    
C22   H50   S    
C72   C85   S    
C7    C8    S    
C49   H60   S    
O29   H47   S    
C71   H67   S    
C26   C27   A    
C8    C13   S    
C41   H58   S    
O1    Zn2   S    
C28   C29   A    
C87   O17   A    
O20   Zn1   S    
O25   Zn3   S    
C10   C15   S    
C17   H17   S    
C44   H59   S    
C71   C76   A    
C22   H18   S    
C18   O28   S    
O12   Zn4   S    
C77   C83   A    
C11   C12   S    
C58   C63   A    
C29   O34   S    
C61   H31   S    
C50   H25   S    
C41   C42   A    
C88   O11   A    
C65   O37   S    
C70   H33   S    
C42   H24   S    
C84   O7    A    
C40   H57   S    
C47   C48   A    
C18   H49   S    
C25   O32   S    
C16   C17   S    
C13   C86   S    
C48   C49   A    
C51   H29   S    
C30   O31   S    
C15   O27   S    
C60   H30   S    
C51   C57   A    
C64   C70   A    
O15   Zn5   S    
C88   O14   A    
C18   C20   S    
C77   H37   S    
C16   C20   S    
C72   C73   A    
C20   C34   S    
C26   O33   S    
O35   H62   S    
C89   H26   S    
C34   O3    A    
C59   C60   A    
C54   H61   S    
C12   O5    A    
C21   C22   S    
O6    Zn6   S    
C2    C6    S    
C67   C78   S    
C56   O26   A    
C1    O4    A    
C44   C46   A    
C81   C82   A    
O26   Zn1   S    
C4    C90   S    
C77   C79   A    
C5    C89   S    
C38   C39   A    
C10   H11   S    
O3    Zn4   S    
C74   C75   A    
C51   C52   A    
C33   C43   S    
O22   Zn3   S    
C52   C88   S    
C19   H46   S    
C62   H64   S    
C4    C6    S    
O18   Zn6   S    
C87   O10   A    
C39   C40   A    
C38   H23   S    
O40   H69   S    
C80   C81   A    
C48   H28   S    
C6    H72   S    
C25   C26   A    
O32   H52   S    
C32   C87   S    
C5    H32   S    
C58   O35   S    
C17   C21   S    
C31   C37   A    
C46   H27   S    
C60   C61   A    
O24   Zn4   S    
C7    C11   S    
C75   C76   A    
C19   O29   S    
O33   H53   S    
C4    C78   S    
C29   C30   A    
C47   C57   S    
C3    C56   S    
C24   O30   S    
C14   H14   S    
C31   C32   A    
C21   C84   S    
C9    H13   S    
C66   C76   S    
C62   C63   A    
C67   H1    S    
O41   H71   S    
C9    C14   S    
C23   O2    A    
C78   H20   S    
O28   H44   S    
C46   C47   A    
C82   H39   S    
C9    C11   S    
C90   O13   A    
O31   H51   S    
C16   H15   S    
C81   H70   S    
C39   H56   S    
C56   O24   A    
C40   C41   A    
O5    Zn3   S    
C23   O21   A    
C49   C50   A    
C13   C15   S    
O27   H42   S    
O6    Zn7   S    
C42   C43   A    
C86   O16   A    
C85   O8    A    
O13   Zn8   S    
C52   C53   A    
C84   O18   A    
C44   C50   A    
C25   C30   A    
O16   Zn5   S    
C7    H4    S    
O23   Zn2   S    
O2    Zn1   S    
C2    O41   S    
O6    Zn5   S    
C89   H40   S    
O8    Zn5   S    
C18   C22   S    
O6    Zn8   S    
C12   O20   A    
C68   C69   A    
O10   Zn7   S    
C3    C67   S    
C24   H19   S    
C23   C75   S    
O36   H63   S    
C17   H43   S    
C5    H3    S    
C34   O22   A    
C53   C54   A    
C16   H16   S    
C59   O36   S    
C7    H5    S    
O17   Zn8   S    
O38   H66   S    
C3    C89   S    
O1    Zn3   S    
C45   O23   A    
O19   Zn7   S    
C32   C33   A    
O11   Zn6   S    
C19   C20   S    
C55   C57   A    
C2    C3    S    
C58   C59   A    
C38   C43   A    
O30   H48   S    
C64   H34   S    
C28   H54   S    
C64   C65   A    
C53   C63   S    
C14   H9    S    
C74   H36   S    
C27   C37   S    
C8    H7    S    
C6    H2    S    
C78   H45   S    
C33   C35   A    
C67   H10   S    
C19   C24   S    
O9    Zn6   S    
O4    Zn2   S    
C65   C66   A    
C15   H12   S    
C61   C62   A    
C69   C70   A    
C1    O12   A    
C10   C11   S    
C86   O9    A    
O37   H65   S    
C79   C80   A    
C4    C5    S    
C71   C72   A    
O39   H68   S    
C45   C55   S    
C36   C37   A    
C79   O39   S    
C21   C24   S    
C27   C28   A    
C31   H21   S    
O1    Zn4   S    
O1    Zn1   S    
C45   O25   A    
C82   C83   A    
O34   H55   S    
C13   C14   S    
O14   Zn7   S    
C68   H35   S    
C73   C83   S    
C90   O15   A    
C35   H22   S    
C1    C36   S    
O7    Zn8   S    
C2    H38   S    
