data_mof_unit_44086.cif
_audit_creation_date              2012-12-10T18:44:21-0500
_audit_creation_method            fapswitch 2.2
_symmetry_space_group_name_H-M    P1
_symmetry_Int_Tables_number       1
_space_group_crystal_system       triclinic
_cell_length_a                    12.854816
_cell_length_b                    10.64012
_cell_length_c                    9.921749
_cell_angle_alpha                 90.308538
_cell_angle_beta                  98.373642
_cell_angle_gamma                 91.365182
_cell_volume                      1342.16296285

loop_
_atom_site_label
_atom_site_type_symbol
_atom_type_description
_atom_site_fract_x
_atom_site_fract_y
_atom_site_fract_z
_atom_type_partial_charge
C1    C     C_R   0.502192 0.260574 0.500221 0.875711
C2    C     C_R   0.497814 0.739426 0.499779 0.875730
C3    C     C_R   0.495549 0.871828 0.498724 -0.216332
C4    C     C_R   0.504459 0.128171 0.501275 -0.216332
C5    C     C_R   0.561600 0.584012 0.085375 0.109610
C6    C     C_R   0.438400 0.415985 0.914625 0.109607
C7    C     C_R   0.562440 0.584033 0.942167 0.411354
C8    C     C_R   0.437564 0.415965 0.057834 0.411340
C9    C     C_R   0.298117 0.500927 0.471792 0.911705
C10   C     C_R   0.701883 0.499072 0.528208 0.911706
C11   C     C_R   0.814714 0.494323 0.547429 -0.129467
C12   C     C_R   0.185286 0.505681 0.452574 -0.129469
C13   C     C_R   0.021251 0.585588 0.340001 0.000916
C14   C     C_R   0.978751 0.414429 0.660006 0.000932
C15   C     C_R   0.130005 0.571743 0.343961 0.456487
C16   C     C_R   0.869996 0.428265 0.656043 0.456505
C17   C     C_R   0.134915 0.450818 0.552922 -0.329548
C18   C     C_R   0.865086 0.549190 0.447082 -0.329559
C19   C     C_R   0.028640 0.465758 0.553580 0.075614
C20   C     C_R   0.971362 0.534257 0.446427 0.075613
C21   C     C_R   0.577631 0.063173 0.436219 0.478522
C22   C     C_R   0.422380 0.936825 0.563785 0.478502
C23   C     C_R   0.570994 0.934131 0.434050 -0.219764
C24   C     C_R   0.429008 0.065867 0.565946 -0.219757
H1    H     H_    0.819214 0.601930 0.367623 0.175361
H2    H     H_    0.180786 0.398073 0.632380 0.175361
H3    H     H_    0.627390 0.882043 0.385962 0.179528
H4    H     H_    0.372604 0.117953 0.614029 0.179523
N1    N     N_R   0.499970 0.499970 0.857200 -0.166910
N2    N     N_R   0.500030 0.500030 0.142800 -0.166905
O1    O     O_R   0.499990 0.316750 0.614620 -0.590207
O2    O     O_R   0.500010 0.683250 0.385380 -0.590227
O3    O     O_R   0.499990 0.316780 0.385290 -0.621937
O4    O     O_R   0.500010 0.683220 0.614710 -0.621910
O5    O     O_R   0.346360 0.499970 0.595710 -0.620760
O6    O     O_R   0.653640 0.500030 0.404290 -0.620774
O7    O     O_R   0.346360 0.499990 0.366380 -0.587884
O8    O     O_R   0.653640 0.500010 0.633620 -0.587883
Zn1   Zn    Zn3+2 0.500000 0.499980 0.653120 0.994960
Zn2   Zn    Zn3+2 0.500000 0.500020 0.346880 0.994939
O9    O     O_3   0.814927 0.375109 0.752439 -0.744543
H5    H     H_    0.863071 0.330988 0.822441 0.363845
O10   O     O_3   0.185071 0.624878 0.247557 -0.744547
H6    H     H_    0.136929 0.669041 0.177580 0.363832
N3    N     N_3   0.963454 0.652446 0.229014 -0.470397
H7    H     H_    0.929537 0.730728 0.267645 0.202057
H8    H     H_    0.904504 0.592753 0.178306 0.206032
N4    N     N_3   0.036548 0.347573 0.770994 -0.470399
H9    H     H_    0.070459 0.269285 0.732375 0.202062
H10   H     H_    0.095504 0.407261 0.821696 0.206023
O11   O     O_3   0.657316 0.120658 0.377484 -0.739942
H11   H     H_    0.669684 0.207578 0.413108 0.338891
O12   O     O_3   0.342717 0.879333 0.622546 -0.739939
H12   H     H_    0.330290 0.792451 0.586839 0.338871
N5    N     N_3   0.626349 0.672072 0.171307 -0.380659
H13   H     H_    0.704381 0.660348 0.156474 0.189649
H14   H     H_    0.604783 0.762712 0.140259 0.219066
N6    N     N_3   0.373657 0.327912 0.828697 -0.380660
H15   H     H_    0.295622 0.339625 0.843540 0.189645
H16   H     H_    0.395236 0.237278 0.859753 0.219078
O13   O     O_3   0.628086 0.670761 0.892773 -0.763284
H17   H     H_    0.632227 0.649548 0.797543 0.392354
O14   O     O_3   0.371930 0.329226 0.107233 -0.763287
H18   H     H_    0.367760 0.350462 0.202449 0.392353

loop_
_geom_bond_atom_site_label_1
_geom_bond_atom_site_label_2
_ccdc_geom_bond_type
C12   C17   A    
O5    Zn1   S    
N5    H13   S    
C11   C18   A    
C7    N1    A    
C14   C16   A    
C23   H3    S    
O7    Zn2   S    
C5    C7    A    
O9    H5    S    
C6    N6    S    
C3    C23   A    
C19   C20   A    
C12   C15   A    
C10   O8    A    
O10   H6    S    
C1    C4    S    
C8    N2    A    
N1    Zn1   S    
N4    H10   S    
C2    C3    S    
C15   O10   S    
C21   O11   S    
O12   H12   S    
C13   N3    S    
C4    C21   A    
C2    O4    A    
O8    Zn1   S    
C18   H1    S    
C4    C24   A    
C6    C8    A    
C17   H2    S    
C14   C19   A    
C9    O7    A    
N4    H9    S    
C17   C19   A    
O1    Zn1   S    
C22   O12   S    
C18   C20   A    
N5    H14   S    
C13   C15   A    
O13   H17   S    
C21   C23   A    
C9    C12   S    
C22   C24   A    
O3    Zn2   S    
C10   C11   S    
C1    O3    A    
C8    O14   S    
N6    H16   S    
O11   H11   S    
C24   H4    S    
C1    O1    A    
O2    Zn2   S    
C6    N1    A    
C2    O2    A    
C5    N2    A    
C11   C16   A    
N3    H8    S    
C9    O5    A    
C14   N4    S    
N2    Zn2   S    
C7    O13   S    
O6    Zn2   S    
C10   O6    A    
C13   C20   A    
N6    H15   S    
N3    H7    S    
C16   O9    S    
C5    N5    S    
O4    Zn1   S    
O14   H18   S    
C3    C22   A    
