data_mof_unit_36731.cif
_audit_creation_date              2012-12-11T16:27:26-0500
_audit_creation_method            fapswitch 2.2
_symmetry_space_group_name_H-M    P1
_symmetry_Int_Tables_number       1
_space_group_crystal_system       triclinic
_cell_length_a                    8.390325
_cell_length_b                    17.38573
_cell_length_c                    18.98824
_cell_angle_alpha                 96.113736
_cell_angle_beta                  93.461456
_cell_angle_gamma                 96.454491
_cell_volume                      2729.29331805

loop_
_atom_site_label
_atom_site_type_symbol
_atom_type_description
_atom_site_fract_x
_atom_site_fract_y
_atom_site_fract_z
_atom_type_partial_charge
Ba1   Ba    Ba6+2 0.848080 0.535720 0.465810 1.778405
Ba2   Ba    Ba6+2 0.341750 0.464340 0.534200 1.811412
C1    C     C_3   0.670987 0.807017 0.266496 -0.321689
C2    C     C_3   0.447683 0.500630 0.243450 0.082767
C3    C     C_2   0.393016 0.502522 0.165036 -0.099938
C4    C     C_3   0.047406 0.709242 0.277398 0.218801
C5    C     C_2   0.233125 0.490356 0.143423 -0.164129
C6    C     C_2   0.110945 0.475678 0.197887 -0.164797
C7    C     C_1   0.158745 0.474500 0.267110 -0.008664
C8    C     C_R   0.063455 0.491580 0.927809 0.502425
C9    C     C_R   0.177149 0.490042 0.065973 0.387770
C10   C     C_R   0.089682 0.524331 0.801583 -0.143531
C11   C     C_R   0.034209 0.516294 0.729098 -0.002672
C12   C     C_3   0.617023 0.731812 0.298824 0.248298
C13   C     C_R   0.781019 0.446576 0.758006 -0.117864
C14   C     C_R   0.831229 0.460333 0.831456 -0.106837
C15   C     C_R   0.993399 0.492748 0.852988 -0.046418
C16   C     C_3   0.084019 0.730258 0.202412 -0.304080
C17   C     C_R   0.887385 0.471330 0.708465 -0.291897
C18   C     C_R   0.379304 0.723155 0.494242 -0.189577
C19   C     C_R   0.538286 0.747334 0.520274 -0.031001
C20   C     C_R   0.595188 0.827180 0.529343 -0.151650
C21   C     C_R   0.494761 0.882395 0.510317 0.005945
C22   C     C_R   0.337145 0.856662 0.480632 -0.103270
C23   C     C_3   0.511409 0.220576 0.319653 0.223068
C24   C     C_R   0.279823 0.776689 0.472057 0.094154
C25   C     C_R   0.583873 0.167396 0.496139 -0.052396
C26   C     C_R   0.653578 0.242994 0.487775 -0.059065
C27   C     C_R   0.902833 0.216942 0.549931 -0.032908
C28   C     C_3   0.326930 0.702607 0.689530 0.263425
C29   C     C_R   0.832024 0.141563 0.558360 -0.074518
C30   C     C_R   0.675269 0.114924 0.527500 0.099884
C31   C     C_1   0.610118 0.033298 0.524387 0.080516
C32   C     C_1   0.556445 0.964806 0.518718 0.036299
C33   C     C_R   0.819218 0.262814 0.508017 -0.252252
C34   C     C_3   0.676470 0.189548 0.319056 -0.263275
C35   C     C_3   0.370384 0.702909 0.769129 -0.368482
C36   C     C_3   0.089799 0.290569 0.288851 0.163747
C37   C     C_3   0.017181 0.279195 0.210513 -0.290989
C38   C     C_3   0.826446 0.695978 0.679962 0.228601
C39   C     C_3   0.820959 0.672396 0.755319 -0.302633
C40   C     C_2   0.102737 0.212519 0.316644 0.543008
C41   C     C_2   0.042383 0.204569 0.167029 0.485233
C42   C     C_2   0.897990 0.779865 0.680410 0.566391
C43   C     C_2   0.461016 0.738383 0.330994 0.407935
C44   C     C_2   0.737212 0.872076 0.322816 0.508862
C45   C     C_3   0.045438 0.291762 0.725005 0.342163
C46   C     C_2   0.443600 0.213043 0.243640 0.482414
C47   C     C_2   0.659846 0.102318 0.316021 0.491270
C48   C     C_2   0.243694 0.706389 0.181777 0.505958
C49   C     C_2   0.003589 0.189659 0.807610 0.533146
C50   C     C_2   0.574569 0.228346 0.678358 0.617521
C51   C     C_2   0.517307 0.246798 0.878541 0.539246
C52   C     C_2   0.513610 0.505502 0.110792 0.595077
C53   C     C_2   0.939305 0.464209 0.170572 0.564948
C54   C     C_2   0.710746 0.446688 0.884427 0.562067
C55   C     C_2   0.837887 0.454399 0.633771 0.638957
C56   C     C_3   0.060199 0.273555 0.801849 -0.230436
C57   C     C_2   0.919000 0.322462 0.476570 0.515736
C58   C     C_2   0.075953 0.815488 0.195581 0.665457
C59   C     C_2   0.347849 0.784989 0.670974 0.497293
C60   C     C_3   0.571074 0.268139 0.752689 0.241973
C61   C     C_3   0.508540 0.209665 0.803139 -0.181249
C62   C     C_2   0.308096 0.502847 0.290969 -0.227188
H1    H     H_    0.709388 0.725102 0.341344 0.036255
H2    H     H_    0.899460 0.103605 0.586906 0.076081
H3    H     H_    0.481214 0.743286 0.786473 0.091949
H4    H     H_    0.270771 0.721508 0.800351 0.143624
H5    H     H_    0.159255 0.167983 0.286714 -0.072189
H6    H     H_    0.214041 0.321210 0.291719 -0.000725
H7    H     H_    0.072772 0.326350 0.182274 0.081869
H8    H     H_    0.886325 0.283478 0.209255 0.194638
H9    H     H_    0.161215 0.194797 0.151589 0.054393
H10   H     H_    0.914627 0.803597 0.630530 0.014945
H11   H     H_    0.763945 0.795292 0.229226 0.176555
H12   H     H_    0.394593 0.644191 0.781052 0.125041
H13   H     H_    0.753907 0.712000 0.788796 0.145629
H14   H     H_    0.944753 0.674328 0.780255 0.098114
H15   H     H_    0.758918 0.612346 0.753614 0.102034
H16   H     H_    0.421753 0.794967 0.344889 -0.039029
H17   H     H_    0.660636 0.893917 0.362506 0.001972
H18   H     H_    0.427225 0.184527 0.349593 -0.083868
H19   H     H_    0.399807 0.155810 0.216425 -0.043186
H20   H     H_    0.587847 0.066546 0.272618 0.011274
H21   H     H_    0.755607 0.215804 0.365672 0.123252
H22   H     H_    0.569390 0.826011 0.235176 0.130858
H23   H     H_    0.896918 0.655795 0.650577 0.093299
H24   H     H_    0.276680 0.650448 0.193553 0.025877
H25   H     H_    0.093851 0.353867 0.724684 0.045439
H26   H     H_    0.988671 0.311851 0.834542 0.085928
H27   H     H_    0.059810 0.143924 0.778753 0.042773
H28   H     H_    0.187622 0.286499 0.822910 0.069473
H29   H     H_    0.695668 0.291840 0.773281 -0.102707
H30   H     H_    0.638537 0.258974 0.639859 -0.133737
H31   H     H_    0.580967 0.159766 0.800115 0.148632
H32   H     H_    0.381439 0.186282 0.786732 0.087556
H33   H     H_    0.441084 0.291344 0.893468 -0.003433
H34   H     H_    0.739307 0.205965 0.272378 0.099685
H35   H     H_    0.491129 0.467898 0.060925 0.030638
H36   H     H_    0.901689 0.496066 0.127725 0.079336
H37   H     H_    0.604219 0.405670 0.870691 -0.015032
H38   H     H_    0.840604 0.396195 0.608282 -0.064839
H39   H     H_    0.261842 0.898046 0.461875 0.094744
H40   H     H_    0.092099 0.652607 0.284492 0.064820
H41   H     H_    0.716563 0.846363 0.551773 0.075664
H42   H     H_    0.334879 0.661738 0.488100 0.075750
H43   H     H_    0.028658 0.308359 0.454314 0.089618
H44   H     H_    0.991295 0.694990 0.164128 0.104391
H45   H     H_    0.916472 0.283000 0.705473 -0.172283
H46   H     H_    0.151458 0.859842 0.231100 0.050216
H47   H     H_    0.407334 0.671465 0.657360 0.068102
H48   H     H_    0.464388 0.819673 0.681791 -0.025812
H49   H     H_    0.916397 0.700809 0.279732 0.068831
H50   H     H_    0.208743 0.553398 0.817886 0.097274
H51   H     H_    0.334842 0.525295 0.346515 0.082592
H52   H     H_    0.461229 0.148236 0.475222 0.082616
N1    N     N_R   0.166997 0.551941 0.961724 -0.211231
N2    N     N_R   0.222240 0.551237 0.029291 -0.206106
N3    N     N_R   0.077359 0.428897 0.031379 -0.217723
N4    N     N_R   0.022249 0.429634 0.964015 -0.207122
O1    O     O_2   0.870670 0.457200 0.328780 -0.387340
O2    O     O_2   0.243125 0.230258 0.556983 -0.438262
O3    O     O_3   0.134824 0.243779 0.682688 -0.582426
O4    O     O_3   0.123190 0.458470 0.416160 -0.451228
O5    O     O_3   0.570980 0.591910 0.535630 -0.407592
O6    O     O_2   0.357950 0.313790 0.466200 -0.462710
O7    O     O_3   0.524483 0.299966 0.347767 -0.597481
O8    O     O_2   0.466736 0.474465 0.751607 -0.472313
O9    O     O_3   0.469102 0.327105 0.751804 -0.618585
O10   O     O_3   0.645490 0.595990 0.371560 -0.475605
O11   O     O_2   0.780440 0.560935 0.254971 -0.477013
O12   O     O_3   0.669920 0.685253 0.648595 -0.685777
O13   O     O_3   0.990260 0.332741 0.332415 -0.606239
O14   O     O_3   0.597744 0.668586 0.244508 -0.554838
O15   O     O_2   0.831760 0.686240 0.533840 -0.483501
O16   O     O_3   0.064740 0.635370 0.406810 -0.474102
O17   O     O_2   0.942061 0.770111 0.442266 -0.492334
O18   O     O_2   0.050549 0.197391 0.372709 -0.585401
O19   O     O_2   0.928723 0.155074 0.147745 -0.511095
O20   O     O_2   0.938573 0.821929 0.735773 -0.551259
O21   O     O_2   0.378467 0.679765 0.343109 -0.652839
O22   O     O_2   0.876989 0.900985 0.324242 -0.509738
O23   O     O_3   0.113338 0.768797 0.330903 -0.606378
O24   O     O_2   0.441272 0.270153 0.211415 -0.561495
O25   O     O_2   0.728324 0.071037 0.361706 -0.539901
O26   O     O_2   0.335127 0.747603 0.149932 -0.526748
O27   O     O_2   0.895660 0.172216 0.845335 -0.520710
O28   O     O_2   0.505345 0.162928 0.660361 -0.589473
O29   O     O_2   0.608371 0.226583 0.923748 -0.482848
O30   O     O_2   0.634581 0.552260 0.119443 -0.530276
O31   O     O_2   0.839829 0.417619 0.192317 -0.560663
O32   O     O_2   0.724480 0.484354 0.942980 -0.547260
O33   O     O_2   0.774426 0.502618 0.603371 -0.505864
O34   O     O_2   0.319030 0.542820 0.671260 -0.456371
O35   O     O_2   0.899415 0.390088 0.486737 -0.517864
O36   O     O_2   0.987461 0.835293 0.149143 -0.522413
O37   O     O_2   0.237454 0.813331 0.642710 -0.575122
O38   O     O_3   0.066510 0.541590 0.583850 -0.430231
O39   O     O_3   0.544220 0.404070 0.628440 -0.444631
O40   O     O_3   0.168688 0.668326 0.670778 -0.654949
O41   O     O_3   0.618730 0.408150 0.464380 -0.371610
O42   O     O_3   0.124970 0.364690 0.593190 -0.501167
P1    P     P_3+3 0.041170 0.434790 0.339740 1.097759
P2    P     P_3+3 0.658290 0.675180 0.554960 1.008360
P3    P     P_3+3 0.095036 0.737736 0.415781 1.039862
P4    P     P_3+3 0.148540 0.565270 0.660270 0.989055
P5    P     P_3+3 0.101704 0.262195 0.594613 1.008155
P6    P     P_3+3 0.615855 0.579530 0.279162 1.079623
P7    P     P_3+3 0.535810 0.310641 0.441224 1.021715
P8    P     P_3+3 0.568257 0.411171 0.722794 0.959636

loop_
_geom_bond_atom_site_label_1
_geom_bond_atom_site_label_2
_ccdc_geom_bond_type
C41   H9    S    
C29   H2    S    
C51   O29   D    
C36   H6    S    
C24   P3    S    
O8    P8    D    
O39   P8    S    
C40   O18   D    
C7    C62   D    
O15   P2    D    
C9    N3    A    
Ba2   O42   S    
O17   P3    D    
C5    C6    S    
C52   O30   D    
C17   C55   S    
C5    C9    S    
C55   H38   S    
O38   P4    S    
C38   H23   S    
Ba1   O38   S    
Ba1   O5    S    
C54   H37   S    
C36   C40   S    
C39   H13   S    
C36   C37   S    
O16   P3    S    
C8    C15   S    
C13   C14   A    
O1    P1    D    
C35   H4    S    
C61   H31   S    
C46   O24   D    
C33   C57   S    
Ba1   Ba2   S    
C36   O13   S    
C7    P1    S    
O23   P3    S    
C49   H27   S    
C13   C17   A    
Ba1   P2    S    
C6    C7    D    
C53   H36   S    
C21   C22   A    
C50   H30   S    
O40   P4    S    
C54   O32   D    
Ba1   O16   S    
C1    H11   S    
Ba2   P4    S    
C18   H42   S    
C48   H24   S    
C59   H48   S    
O4    P1    S    
O41   P7    S    
C25   H52   S    
C48   O26   D    
C16   H44   S    
C38   O12   S    
Ba1   O41   S    
Ba2   O34   S    
C19   P2    S    
C19   C20   A    
C1    H22   S    
C43   O21   D    
C45   H25   S    
C60   O9    S    
C4    C16   S    
O13   P1    S    
C6    C53   S    
C12   C43   S    
C10   H50   S    
O12   P2    S    
Ba2   O41   S    
C11   C17   A    
C3    C52   S    
C58   H46   S    
C26   C33   A    
C44   O22   D    
Ba1   O10   S    
C39   H14   S    
C3    C5    D    
C57   O35   D    
C14   C15   A    
C37   C41   S    
C12   O14   S    
C51   H33   S    
C45   H45   S    
C55   O33   D    
C61   H32   S    
C40   H5    S    
C57   H43   S    
C2    P6    S    
C28   C35   S    
C10   C15   A    
C28   O40   S    
C14   C54   S    
C4    H49   S    
C60   C61   S    
C59   O37   D    
C44   H17   S    
O9    P8    S    
C45   O3    S    
C29   C30   A    
C49   O27   D    
Ba2   O38   S    
C21   C32   S    
C31   C32   T    
C47   O25   D    
C49   C56   S    
C10   C11   A    
C42   H10   S    
C56   H26   S    
C23   C46   S    
Ba1   P1    S    
C1    C12   S    
Ba2   O6    S    
C16   C58   S    
C38   C39   S    
C35   H12   S    
O11   P6    D    
C4    H40   S    
C23   H18   S    
O14   P6    S    
C52   H35   S    
C60   H29   S    
O5    P2    S    
Ba2   O39   S    
C16   C48   S    
C47   H20   S    
C27   C33   A    
O2    P5    D    
C25   C30   A    
C50   O28   D    
C22   C24   A    
C2    C3    S    
C62   H51   S    
C39   H15   S    
N3    N4    A    
C53   O31   D    
Ba2   O4    S    
C34   H21   S    
O7    P7    S    
C20   H41   S    
C2    C62   S    
C1    C44   S    
C46   H19   S    
C28   H47   S    
C22   H39   S    
C30   C31   S    
C27   P5    S    
C23   O7    S    
Ba1   O4    S    
O3    P5    S    
C27   C29   A    
C8    N1    A    
C50   C60   S    
N1    N2    A    
C41   O19   D    
C51   C61   S    
C11   P4    S    
C18   C24   A    
C35   H3    S    
C12   H1    S    
C43   H16   S    
C58   O36   D    
C37   H8    S    
Ba1   O1    S    
C8    N4    A    
C23   C34   S    
O42   P5    S    
Ba2   O5    S    
O10   P6    S    
C26   P7    S    
C38   C42   S    
C18   C19   A    
C13   P8    S    
C42   O20   D    
C28   C59   S    
C25   C26   A    
O6    P7    D    
C37   H7    S    
C20   C21   A    
O34   P4    D    
C34   H34   S    
C4    O23   S    
Ba1   O15   S    
C9    N2    A    
C56   H28   S    
C34   C47   S    
C45   C56   S    
