data_mof_unit_45863.cif
_audit_creation_date              2013-03-05T16:03:14-0500
_audit_creation_method            fapswitch 2.2
_symmetry_space_group_name_H-M    P1
_symmetry_Int_Tables_number       1
_space_group_crystal_system       triclinic
_cell_length_a                    8.354715
_cell_length_b                    14.516247
_cell_length_c                    18.676826
_cell_angle_alpha                 94.215042
_cell_angle_beta                  91.721979
_cell_angle_gamma                 92.54188
_cell_volume                      2255.49787492

loop_
_atom_site_label
_atom_site_type_symbol
_atom_site_description
_atom_site_fract_x
_atom_site_fract_y
_atom_site_fract_z
_atom_type_partial_charge
P1    P     P_3+3 0.053470 0.419720 0.342720 0.594167
O1    O     O_2   0.878750 0.447310 0.330740 -0.388202
O2    O     O_3   0.131030 0.448880 0.418060 -0.328929
O3    O     O_3   0.627390 0.618170 0.367170 -0.339813
O4    O     O_2   0.759006 0.555820 0.249659 -0.300644
O5    O     O_3   0.065707 0.299385 0.333065 -0.517902
O6    O     O_3   0.617919 0.705516 0.234788 -0.588465
C1    C     C_3   0.462352 0.784238 0.153685 0.092266
H1    H     H_    0.549780 0.843549 0.150479 0.152626
H2    H     H_    0.493861 0.728726 0.113214 0.159708
P2    P     P_3+3 0.625250 0.715650 0.546950 0.485051
P3    P     P_3+3 0.066458 0.786294 0.404651 0.534022
O7    O     O_2   0.796630 0.729270 0.525320 -0.361567
O8    O     O_3   0.039210 0.666640 0.400620 -0.382679
O9    O     O_2   0.911889 0.830752 0.431716 -0.397398
O10   O     O_3   0.639578 0.740115 0.640240 -0.572861
O11   O     O_3   0.083457 0.813085 0.315031 -0.514362
C2    C     C_3   0.933602 0.805501 0.278161 0.665941
H3    H     H_    0.843420 0.765091 0.306715 0.071487
C3    C     C_3   0.873998 0.902856 0.271364 0.145956
H4    H     H_    0.854063 0.934738 0.325871 0.187673
C4    C     C_3   0.280251 0.744810 0.669429 0.169449
H5    H     H_    0.347221 0.722173 0.716679 0.185139
H6    H     H_    0.343441 0.729665 0.619385 0.105652
C5    C     C_3   0.257345 0.848504 0.680280 -0.078562
H7    H     H_    0.184460 0.861804 0.728333 0.202558
H8    H     H_    0.190002 0.871557 0.632961 0.102950
Ba1   Ba    Ba6+2 0.841340 0.543980 0.464170 1.715502
C6    C     C_3   0.926882 0.249424 0.305548 0.577424
H9    H     H_    0.818907 0.290361 0.307748 0.040088
C7    C     C_3   0.952734 0.212136 0.227362 -0.152542
H10   H     H_    0.860653 0.157030 0.209782 0.154186
H11   H     H_    0.070537 0.180162 0.224440 0.237068
C8    C     C_3   0.718472 0.671055 0.673410 0.188326
H12   H     H_    0.831767 0.657110 0.646577 0.105789
H13   H     H_    0.641586 0.606360 0.670723 0.120872
C9    C     C_3   0.757582 0.705539 0.751720 0.063062
H14   H     H_    0.784803 0.781399 0.756202 0.206356
H15   H     H_    0.864861 0.673099 0.772236 0.061648
P4    P     P_3+3 0.136230 0.580350 0.657290 0.488871
O12   O     O_2   0.310950 0.552720 0.669300 -0.361352
O13   O     O_3   0.058670 0.551200 0.581940 -0.376479
O14   O     O_3   0.562310 0.381900 0.632830 -0.420364
O15   O     O_3   0.128418 0.701102 0.662635 -0.618496
P5    P     P_3+3 0.130783 0.213345 0.607907 0.569277
O16   O     O_3   0.636050 0.386930 0.468580 -0.335169
O17   O     O_3   0.150490 0.333430 0.599380 -0.323409
O18   O     O_2   0.244191 0.169455 0.553323 -0.334904
O19   O     O_3   0.214844 0.184502 0.690235 -0.522206
Ba2   Ba    Ba6+2 0.348470 0.456100 0.535830 1.717534
P6    P     P_3+3 0.602769 0.599471 0.273704 0.562004
C10   C     C_3   0.470252 0.748154 0.229059 0.513917
H16   H     H_    0.364509 0.700289 0.234300 0.016506
O20   O     O_3   0.553640 0.613150 0.531430 -0.387852
C11   C     C_3   0.466981 0.227509 0.321847 0.998897
C12   C     C_3   0.517708 0.191328 0.246822 -0.164157
H17   H     H_    0.551240 0.118178 0.248312 0.180103
H18   H     H_    0.623802 0.231720 0.231593 0.125121
P7    P     P_3+3 0.576174 0.267629 0.459176 0.556891
O21   O     O_2   0.393070 0.270760 0.474720 -0.294399
O22   O     O_3   0.596555 0.219561 0.370427 -0.630021
H19   H     H_    0.758490 0.900191 0.240340 0.085277
C13   C     C_3   0.106209 0.202403 0.745077 0.695036
H20   H     H_    0.981365 0.180008 0.728082 -0.056741
C14   C     C_3   0.151433 0.151477 0.811065 -0.058884
H21   H     H_    0.274735 0.174544 0.830866 0.178462
H22   H     H_    0.067603 0.169085 0.854602 0.130630
P8    P     P_3+3 0.576798 0.395006 0.726635 0.589796
C15   C     C_3   0.623630 0.221293 0.716189 0.351027
H23   H     H_    0.746195 0.247734 0.704348 0.010126
O23   O     O_2   0.434533 0.450734 0.753850 -0.253341
O24   O     O_3   0.542178 0.286197 0.759128 -0.443883
H24   H     H_    0.554028 0.203331 0.665040 0.129100
H25   H     H_    0.711979 0.150058 0.806275 0.248951
C16   C     C_3   0.639839 0.134096 0.755605 -0.685959
H26   H     H_    0.700736 0.081523 0.721352 0.231960
H27   H     H_    0.519606 0.105514 0.768425 0.295694
N1    N     N_R   0.171077 0.555625 0.953773 -0.023823
N2    N     N_R   0.229815 0.554592 0.021138 -0.014956
C17   C     C_2   0.292494 0.530111 0.292382 -0.380054
C18   C     C_3   0.431244 0.518683 0.242929 0.203903
C19   C     C_2   0.377887 0.516920 0.163682 0.143856
C20   C     C_2   0.218063 0.503057 0.146177 -0.055691
C21   C     C_2   0.105237 0.483914 0.205726 -0.135262
C22   C     C_1   0.157767 0.483495 0.273811 0.315322
N3    N     N_R   0.012357 0.459493 0.049347 0.022669
N4    N     N_R   0.954401 0.460312 0.982076 0.026602
C23   C     C_R   0.031277 0.508385 0.932400 0.261998
C24   C     C_R   0.152459 0.505732 0.070408 0.296921
C25   C     C_R   0.067070 0.539138 0.801401 -0.210269
C26   C     C_R   0.019840 0.526577 0.727864 0.325760
C27   C     C_R   0.770395 0.450959 0.759610 0.127480
C28   C     C_R   0.814200 0.464334 0.833385 0.420912
C29   C     C_R   0.968495 0.504980 0.855358 -0.071893
C30   C     C_R   0.875244 0.479239 0.707992 -0.526107
H28   H     H_    0.978384 0.475866 0.192985 0.220758
H29   H     H_    0.181610 0.574303 0.816086 0.191325
H30   H     H_    0.304219 0.572854 0.342658 0.149933
H31   H     H_    0.839841 0.468725 0.651681 0.167236
C31   C     C_R   0.699570 0.937229 0.545710 -0.005512
C32   C     C_R   0.509941 0.803121 0.505097 0.274452
C33   C     C_R   0.361591 0.771748 0.474181 -0.491628
C34   C     C_R   0.250788 0.833271 0.452648 0.180725
C35   C     C_R   0.289548 0.928388 0.459078 0.391933
C36   C     C_R   0.443615 0.961856 0.485663 -0.042008
C37   C     C_R   0.553348 0.899814 0.512169 -0.012091
H32   H     H_    0.329854 0.698380 0.468483 0.175634
C38   C     C_R   0.633187 0.093898 0.518733 -0.026739
C39   C     C_R   0.739276 0.033431 0.549697 0.099222
C40   C     C_R   0.675695 0.190249 0.519723 0.196265
C41   C     C_R   0.818860 0.224509 0.553964 -0.388794
C42   C     C_R   0.927117 0.165049 0.582113 0.240176
C43   C     C_R   0.887123 0.069771 0.580869 -0.225685
C44   C     C_R   0.488559 0.056350 0.486693 -0.000950
H33   H     H_    0.973183 0.024067 0.601850 0.158199
H34   H     H_    0.853538 0.297041 0.552180 0.150434
H35   H     H_    0.783620 0.892696 0.569132 0.147750
H36   H     H_    0.408838 0.101172 0.462685 0.225929
N5    N     N_R   0.466992 0.824851 0.284688 0.213869
O25   O     O_R   0.558669 0.825548 0.342240 -0.451273
O26   O     O_R   0.372847 0.892876 0.277771 -0.274658
N6    N     N_R   0.410115 0.901031 0.690557 0.262596
O27   O     O_R   0.507639 0.885704 0.743535 -0.301965
O28   O     O_R   0.434020 0.974988 0.656361 -0.425295
N7    N     N_R   0.902087 0.171436 0.350081 0.262467
O29   O     O_R   0.962858 0.176400 0.415195 -0.299438
O30   O     O_R   0.806301 0.101198 0.328629 -0.422981
N8    N     N_R   0.944449 0.284053 0.177024 0.235013
O31   O     O_R   0.813013 0.327584 0.169191 -0.372545
O32   O     O_R   0.052827 0.289655 0.128855 -0.294235
Cl1   Cl    Cl    0.596333 0.679183 0.808278 -0.542431
Cl2   Cl    Cl    0.268105 0.818738 0.128591 -0.389709
Cl3   Cl    Cl    0.297538 0.157383 0.342268 -0.486832
Cl4   Cl    Cl    0.423075 0.344321 0.320219 -0.626424
N9    N     N_R   0.392387 0.197492 0.191447 0.279399
O33   O     O_R   0.324968 0.122073 0.159942 -0.243254
O34   O     O_R   0.375555 0.275305 0.162312 -0.280233
Cl5   Cl    Cl    0.117568 0.321997 0.772119 -0.650466
N10   N     N_R   0.142265 0.051609 0.795130 0.256340
O35   O     O_R   0.258186 0.002855 0.817321 -0.311291
O36   O     O_R   0.008133 0.009931 0.771078 -0.417354
N11   N     N_R   0.495396 0.508433 0.108930 0.258402
O37   O     O_R   0.620479 0.565118 0.110257 -0.321602
O38   O     O_R   0.484947 0.438272 0.061192 -0.252325
Cl6   Cl    Cl    0.670742 0.432348 0.895948 -0.450968
Cl7   Cl    Cl    0.139134 0.004046 0.437524 -0.487983
N12   N     N_R   0.951261 0.756528 0.207647 0.274013
O39   O     O_R   0.883697 0.784202 0.149757 -0.306946
O40   O     O_R   0.021369 0.678331 0.203712 -0.380913
Cl8   Cl    Cl    0.017150 0.973659 0.228731 -0.363515

loop_
_geom_bond_atom_site_label_1
_geom_bond_atom_site_label_2
_geom_bond_distance
_ccdc_geom_bond_type
N4    C23   1.360711 A    
C13   C14   1.529342 S    
C28   C29   1.429491 A    
O19   C13   1.406446 S    
C6    N7    1.464331 S    
O16   P7    1.775780 S    
C8    C9    1.531556 S    
N10   O36   1.301281 A    
C41   C42   1.395283 A    
C19   N11   1.441281 S    
N8    O31   1.300783 A    
C18   C19   1.530934 S    
P5    C42   1.847760 S    
N9    O33   1.301073 A    
C38   C39   1.415394 A    
Ba1   O16   2.799131 S    
C17   C22   1.311355 D    
C20   C21   1.512597 S    
O2    Ba1   2.958381 S    
N12   O40   1.298577 A    
O6    C10   1.409299 S    
C2    H3    1.107768 S    
C8    H12   1.103935 S    
C30   H31   1.081936 S    
P7    C40   1.856037 S    
C12   H17   1.112238 S    
P1    O1    1.544893 D    
C21   H28   1.078544 S    
P5    O17   1.762974 S    
C38   C44   1.401920 A    
C40   C41   1.393377 A    
C42   C43   1.406740 A    
O10   C8    1.395914 S    
Ba1   Ba2   4.526708 S    
C4    O15   1.391011 S    
N12   O39   1.302419 A    
C3    Cl8   1.785860 S    
C1    H1    1.110324 S    
C14   H22   1.112015 S    
C4    C5    1.525290 S    
P3    O11   1.754468 S    
C1    Cl2   1.779063 S    
P1    Ba1   3.385787 S    
C7    H11   1.107746 S    
O7    Ba1   2.888191 S    
C15   H24   1.111435 S    
C41   H34   1.082736 S    
C6    H9    1.102188 S    
C5    N6    1.457654 S    
C1    C10   1.538295 S    
C25   H29   1.082528 S    
C2    C3    1.531757 S    
C39   C43   1.413088 A    
P4    O13   1.553309 S    
P7    O21   1.567646 D    
C33   C34   1.385661 A    
C7    N8    1.457865 S    
C35   C36   1.417774 A    
O3    Ba1   2.810693 S    
O2    Ba2   2.803281 S    
C25   C29   1.423645 A    
O17   Ba2   2.735514 S    
P4    O15   1.752595 S    
N5    O26   1.300769 A    
P1    C22   1.855723 S    
C20   C24   1.505936 S    
N10   O35   1.300152 A    
C23   C29   1.513243 S    
P7    O22   1.766586 S    
H25   C16   1.110694 S    
O3    P6    1.751313 S    
P1    O5    1.750711 S    
C32   C33   1.394721 A    
C35   Cl7   1.761939 S    
C36   C44   1.404608 A    
C21   C22   1.333230 D    
P3    C34   1.836923 S    
C2    N12   1.464554 S    
Ba1   O20   2.928123 S    
N1    N2    1.338032 A    
O14   P8    1.748295 S    
C5    H7    1.109653 S    
C11   Cl3   1.774117 S    
C27   C30   1.393683 A    
C9    Cl1   1.782217 S    
P1    O2    1.553176 S    
C15   O24   1.404453 S    
C16   H26   1.110293 S    
C9    H14   1.111064 S    
P2    O10   1.751858 S    
C7    H10   1.109578 S    
P3    O9    1.550761 D    
P5    O19   1.757451 S    
P8    O24   1.748632 S    
C11   C12   1.538220 S    
O11   C2    1.406635 S    
C33   H32   1.082823 S    
P2    C32   1.833178 S    
Ba2   O20   2.798533 S    
C28   Cl6   1.769745 S    
C16   H27   1.109324 S    
C44   H36   1.063677 S    
P2    O20   1.582109 S    
O13   Ba2   2.959159 S    
C1    H2    1.109617 S    
P4    O12   1.545149 D    
P3    O8    1.737551 S    
C19   C20   1.367706 D    
N7    O29   1.299499 A    
C13   Cl5   1.769630 S    
C4    H6    1.100179 S    
N6    O28   1.299915 A    
O12   Ba2   2.802047 S    
C12   N9    1.459700 S    
C10   H16   1.110684 S    
P5    O18   1.535934 D    
N1    C23   1.361799 A    
C32   C37   1.429617 A    
N9    O34   1.300613 A    
P6    C18   1.860545 S    
C17   H30   1.086151 S    
N3    N4    1.333900 A    
C4    H5    1.108640 S    
C17   C18   1.511048 S    
N3    C24   1.356163 A    
N8    O32   1.299618 A    
N5    O25   1.300142 A    
C38   C40   1.426349 A    
O14   Ba2   2.810175 S    
C5    H8    1.113499 S    
C11   Cl4   1.752956 S    
C36   C37   1.417105 A    
O16   Ba2   2.927193 S    
C31   C37   1.423018 A    
Ba2   O21   2.888437 S    
O6    P6    1.751202 S    
C9    H15   1.102372 S    
P2    O7    1.507921 D    
C25   C26   1.414042 A    
P2    Ba1   3.443866 S    
P8    O23   1.544873 D    
P4    Ba2   3.386352 S    
C11   O22   1.405672 S    
Ba1   O13   2.802709 S    
C27   C28   1.412175 A    
P8    C27   1.845316 S    
C12   H18   1.097250 S    
C15   C16   1.519421 S    
C8    H13   1.111191 S    
P4    C26   1.858279 S    
C3    H19   1.108301 S    
C15   H23   1.111770 S    
N2    C24   1.363288 A    
C26   C30   1.389710 A    
C13   H20   1.108707 S    
C14   N10   1.456517 S    
C10   N5    1.467678 S    
C31   C39   1.416999 A    
O5    C6    1.403605 S    
C3    H4    1.107273 S    
C6    C7    1.544382 S    
C14   H21   1.112840 S    
C34   C35   1.399781 A    
N7    O30   1.299550 A    
N11   O37   1.299603 A    
O4    P6    1.540708 D    
O1    Ba1   2.801582 S    
C31   H35   1.079697 S    
O8    Ba1   2.734880 S    
N6    O27   1.300924 A    
N11   O38   1.301453 A    
C43   H33   1.083646 S    
