data_mof_unit_51980.cif
_audit_creation_date              2012-12-10T18:46:13-0500
_audit_creation_method            fapswitch 2.2
_symmetry_space_group_name_H-M    P1
_symmetry_Int_Tables_number       1
_space_group_crystal_system       triclinic
_cell_length_a                    9.850535
_cell_length_b                    10.705962
_cell_length_c                    13.074387
_cell_angle_alpha                 89.982244
_cell_angle_beta                  69.787085
_cell_angle_gamma                 89.930909
_cell_volume                      1293.90249706

loop_
_atom_site_label
_atom_site_type_symbol
_atom_type_description
_atom_site_fract_x
_atom_site_fract_y
_atom_site_fract_z
_atom_type_partial_charge
C1    C     C_R   0.499970 0.740082 0.500047 0.855024
C2    C     C_R   0.432016 0.520988 0.985266 0.100272
C3    C     C_R   0.457891 0.558608 0.877224 0.095474
C4    C     C_R   0.542742 0.537958 0.029386 0.037388
C5    C     C_R   0.658008 0.621713 0.977579 0.153076
C6    C     C_R   0.670169 0.674563 0.877343 -0.237041
C7    C     C_R   0.573182 0.641135 0.826369 -0.199718
C8    C     C_R   0.544739 0.473385 0.122245 0.070065
C9    C     C_R   0.740951 0.605249 0.130440 -0.235347
C10   C     C_R   0.366480 0.513208 0.823369 -0.126419
C11   C     C_R   0.604657 0.935873 0.529568 -0.193715
C12   C     C_R   0.419495 0.505395 0.704601 0.860678
C13   C     C_R   0.604902 0.063865 0.529266 -0.187673
C14   C     C_R   0.500351 0.127476 0.499501 -0.017012
C15   C     C_R   0.395787 0.064118 0.469743 -0.167648
C16   C     C_R   0.395559 0.936113 0.470023 -0.186778
C17   C     C_R   0.499982 0.872514 0.499948 -0.013328
C18   C     C_R   0.955120 0.413311 0.441277 -0.083474
C19   C     C_R   0.098910 0.413333 0.441319 -0.061995
C20   C     C_R   0.044915 0.586731 0.558665 -0.080477
C21   C     C_R   0.901232 0.586847 0.558456 -0.052314
C22   C     C_R   0.500121 0.259917 0.499773 0.889172
C23   C     C_R   0.580502 0.499973 0.295532 0.915535
C24   C     C_R   0.758600 0.652271 0.027485 -0.191490
C25   C     C_R   0.631038 0.518661 0.178772 -0.092562
C26   C     C_R   0.232150 0.460820 0.883891 -0.190410
C27   C     C_R   0.193301 0.447423 0.996254 -0.136036
C28   C     C_R   0.293262 0.475317 0.046702 -0.147752
H1    H     H_    0.808823 0.640102 0.173965 0.168273
H2    H     H_    0.685507 0.112693 0.553208 0.158423
H3    H     H_    0.315369 0.113155 0.445579 0.162841
H4    H     H_    0.314971 0.887264 0.446075 0.158933
H5    H     H_    0.922400 0.344038 0.394225 0.134503
H6    H     H_    0.174858 0.343946 0.394422 0.151529
H7    H     H_    0.077669 0.656085 0.605633 0.124442
H8    H     H_    0.825656 0.656670 0.604875 0.115640
H9    H     H_    0.756487 0.739530 0.837210 0.140295
H10   H     H_    0.845159 0.717960 0.989939 0.148036
H11   H     H_    0.158654 0.428439 0.844231 0.164040
H12   H     H_    0.259714 0.464717 0.134142 0.162666
H13   H     H_    0.087915 0.410778 0.043687 0.155661
H14   H     H_    0.585762 0.684205 0.748761 0.151894
H15   H     H_    0.685066 0.886850 0.553758 0.147261
N1    N     N_R   0.142790 0.500030 0.500030 -0.078195
N2    N     N_R   0.857180 0.499940 0.500010 -0.077490
O1    O     O_R   0.385370 0.683250 0.500010 -0.626595
O2    O     O_R   0.614700 0.683220 0.500010 -0.633818
O3    O     O_R   0.328400 0.499990 0.653620 -0.612590
O4    O     O_R   0.557730 0.499960 0.653620 -0.604956
O5    O     O_R   0.385300 0.316780 0.499990 -0.619471
O6    O     O_R   0.614630 0.316750 0.499990 -0.622810
O7    O     O_R   0.442270 0.500040 0.346380 -0.592106
O8    O     O_R   0.671600 0.500010 0.346380 -0.616207
Zn1   Zn    Zn3+2 0.346870 0.500020 0.500000 0.954893
Zn2   Zn    Zn3+2 0.653130 0.499980 0.500000 0.947135
I1    I     I_    0.455807 0.289136 0.164668 -0.437723

loop_
_geom_bond_atom_site_label_1
_geom_bond_atom_site_label_2
_ccdc_geom_bond_type
C24   H10   S    
C9    C24   A    
C11   H15   S    
C6    C7    A    
C2    C3    A    
C16   H4    S    
C27   H13   S    
C1    C17   S    
C12   O3    A    
C9    H1    S    
C4    C8    A    
O1    Zn1   S    
O8    Zn2   S    
C12   O4    A    
C23   O7    A    
C6    H9    S    
C9    C25   A    
C21   H8    S    
O4    Zn2   S    
C13   C14   A    
C19   N1    A    
O3    Zn1   S    
C8    C25   A    
C11   C13   A    
C8    I1    S    
C26   C27   A    
O5    Zn1   S    
C5    C24   A    
C10   C12   S    
C5    C6    A    
C2    C4    A    
C1    O2    A    
C20   N1    A    
O7    Zn1   S    
C23   O8    A    
C3    C7    A    
C21   N2    A    
C23   C25   S    
C14   C22   S    
C26   H11   S    
C18   H5    S    
C1    O1    A    
C22   O6    A    
C28   H12   S    
C15   C16   A    
C18   N2    A    
N1    Zn1   S    
C22   O5    A    
C20   C21   A    
N2    Zn2   S    
O2    Zn2   S    
C18   C19   A    
C7    H14   S    
C27   C28   A    
C3    C10   A    
C14   C15   A    
C4    C5    A    
C2    C28   A    
O6    Zn2   S    
C13   H2    S    
C20   H7    S    
C15   H3    S    
C10   C26   A    
C11   C17   A    
C16   C17   A    
C19   H6    S    
