data_mof_unit_32913.cif
_audit_creation_date              2012-12-11T14:48:43-0500
_audit_creation_method            fapswitch 2.2
_symmetry_space_group_name_H-M    P1
_symmetry_Int_Tables_number       1
_space_group_crystal_system       triclinic
_cell_length_a                    7.223343
_cell_length_b                    18.90735
_cell_length_c                    19.472843
_cell_angle_alpha                 89.999829
_cell_angle_beta                  87.726326
_cell_angle_gamma                 89.989642
_cell_volume                      2657.39561895

loop_
_atom_site_label
_atom_site_type_symbol
_atom_type_description
_atom_site_fract_x
_atom_site_fract_y
_atom_site_fract_z
_atom_type_partial_charge
O1    O     O_R   0.350610 0.187000 0.656530 -0.536447
O2    O     O_R   0.649390 0.813000 0.343470 -0.536447
O3    O     O_R   0.149390 0.687000 0.343470 -0.536612
O4    O     O_R   0.850610 0.313000 0.656530 -0.536612
O5    O     O_R   0.655920 0.179060 0.799470 -0.541313
O6    O     O_R   0.344080 0.820940 0.200530 -0.541314
O7    O     O_R   0.844080 0.679060 0.200530 -0.541465
O8    O     O_R   0.155920 0.320940 0.799470 -0.541465
O9    O     O_R   0.826150 0.314000 0.799910 -0.531618
O10   O     O_R   0.173850 0.686000 0.200090 -0.531617
O11   O     O_R   0.673850 0.814000 0.200090 -0.531677
O12   O     O_R   0.326150 0.186000 0.799910 -0.531676
C1    C     C_R   0.485743 0.162495 0.823788 0.699573
C2    C     C_R   0.514257 0.837505 0.176211 0.699573
C3    C     C_R   0.014274 0.662440 0.176258 0.699544
C4    C     C_R   0.985726 0.337560 0.823742 0.699545
O13   O     O_R   0.680230 0.178680 0.657050 -0.537665
O14   O     O_R   0.319770 0.821320 0.342950 -0.537665
O15   O     O_R   0.819770 0.678680 0.342950 -0.537551
O16   O     O_R   0.180230 0.321320 0.657050 -0.537551
C5    C     C_R   0.513135 0.158865 0.637711 0.713103
C6    C     C_R   0.486864 0.841135 0.362289 0.713100
C7    C     C_R   0.986891 0.658900 0.362329 0.713206
C8    C     C_R   0.013109 0.341101 0.637671 0.713204
O17   O     O_3   0.504860 0.294770 0.728200 -0.375202
O18   O     O_3   0.495140 0.705230 0.271800 -0.375202
O19   O     O_3   0.995140 0.794770 0.271800 -0.375088
O20   O     O_3   0.004860 0.205230 0.728200 -0.375089
V1    V     V_3+5 0.779710 0.242290 0.728230 1.411504
V2    V     V_3+5 0.220290 0.757710 0.271770 1.411505
V3    V     V_3+5 0.720290 0.742290 0.271770 1.411363
V4    V     V_3+5 0.279710 0.257710 0.728230 1.411361
C9    C     C_1   0.026813 0.610196 0.120126 -0.171487
C10   C     C_1   0.973187 0.389804 0.879874 -0.171487
C11   C     C_1   0.473213 0.110343 0.880000 -0.171435
C12   C     C_1   0.526787 0.889657 0.119999 -0.171434
C13   C     C_2   0.069660 0.513779 0.018077 -0.147615
C14   C     C_2   0.930340 0.486221 0.981923 -0.147615
C15   C     C_2   0.430171 0.014313 0.982378 -0.147560
C16   C     C_2   0.569829 0.985687 0.017622 -0.147560
C17   C     C_1   0.958995 0.433533 0.926425 0.012790
C18   C     C_1   0.041005 0.566467 0.073575 0.012790
C19   C     C_1   0.541044 0.933257 0.073339 0.012733
C20   C     C_1   0.458956 0.066742 0.926661 0.012733
H1    H     H_    0.789236 0.503357 0.993878 0.135716
H2    H     H_    0.210764 0.496643 0.006122 0.135716
H3    H     H_    0.711328 0.001702 0.004718 0.135661
H4    H     H_    0.288672 0.998298 0.995282 0.135661
C21   C     C_R   0.003664 0.395102 0.583257 -0.041611
C22   C     C_R   0.996336 0.604899 0.416744 -0.041611
C23   C     C_R   0.496009 0.895097 0.416738 -0.040750
C24   C     C_R   0.503989 0.104903 0.583262 -0.040757
H5    H     H_    0.179738 0.604925 0.572843 0.121290
H6    H     H_    0.820258 0.395077 0.427158 0.121290
H7    H     H_    0.326967 0.105884 0.426110 0.121260
H8    H     H_    0.673022 0.894116 0.573890 0.121258
C25   C     C_R   0.106540 0.582858 0.530563 -0.197961
C26   C     C_R   0.893458 0.417143 0.469437 -0.197961
C27   C     C_R   0.397509 0.083402 0.468832 -0.197601
C28   C     C_R   0.602481 0.916598 0.531169 -0.197599
C29   C     C_R   0.079447 0.627942 0.476175 -0.209841
C30   C     C_R   0.920550 0.372059 0.523826 -0.209841
C31   C     C_R   0.423831 0.128338 0.523397 -0.210041
C32   C     C_R   0.576160 0.871662 0.476604 -0.210043
C33   C     C_R   0.942271 0.532248 0.410910 0.084524
C34   C     C_R   0.057732 0.467752 0.589091 0.084524
C35   C     C_R   0.555904 0.032029 0.589350 0.084487
C36   C     C_R   0.444098 0.967972 0.410649 0.084486
C37   C     C_R   0.958176 0.487410 0.469838 0.085095
C38   C     C_R   0.041824 0.512591 0.530163 0.085095
C39   C     C_R   0.540338 0.987216 0.530382 0.085112
C40   C     C_R   0.459658 0.012785 0.469617 0.085111
H9    H     H_    0.872409 0.317919 0.519698 0.125295
H10   H     H_    0.127586 0.682082 0.480303 0.125294
H11   H     H_    0.622423 0.817296 0.480970 0.124680
H12   H     H_    0.377565 0.182703 0.519031 0.124682
C41   C     C_3   0.122192 0.502874 0.655207 -0.401565
C42   C     C_3   0.090527 0.465490 0.723396 -0.742732
H13   H     H_    0.948360 0.443379 0.728015 0.211129
H14   H     H_    0.199880 0.425472 0.729236 0.250373
H15   H     H_    0.105377 0.503969 0.765964 0.209576
H16   H     H_    0.271893 0.515984 0.648670 0.185719
H17   H     H_    0.043665 0.553133 0.662202 0.189651
C43   C     C_3   0.877816 0.497126 0.344793 -0.401562
C44   C     C_3   0.909492 0.534509 0.276604 -0.742739
H18   H     H_    0.800141 0.574526 0.270761 0.250370
H19   H     H_    0.051660 0.556620 0.271987 0.211133
H20   H     H_    0.894648 0.496029 0.234036 0.209578
H21   H     H_    0.956342 0.446867 0.337799 0.189652
H22   H     H_    0.728114 0.484016 0.351328 0.185719
C45   C     C_3   0.382140 0.003338 0.344291 -0.402507
C46   C     C_3   0.411967 0.965437 0.276305 -0.743274
H23   H     H_    0.553605 0.942834 0.271621 0.211528
H24   H     H_    0.301588 0.925755 0.270886 0.250079
H25   H     H_    0.397584 0.003734 0.233554 0.209829
H26   H     H_    0.233092 0.017593 0.350592 0.185988
H27   H     H_    0.463344 0.052956 0.337194 0.189816
C47   C     C_3   0.617872 0.996663 0.655707 -0.402498
C48   C     C_3   0.588053 0.034562 0.723695 -0.743268
H28   H     H_    0.698432 0.074244 0.729112 0.250081
H29   H     H_    0.446415 0.057162 0.728381 0.211525
H30   H     H_    0.602446 0.996264 0.766444 0.209824
H31   H     H_    0.536668 0.947044 0.662806 0.189812
H32   H     H_    0.766919 0.982406 0.649405 0.185986

loop_
_geom_bond_atom_site_label_1
_geom_bond_atom_site_label_2
_ccdc_geom_bond_type
C26   C30   A    
C16   H3    S    
O1    C5    A    
H7    C27   S    
O13   V1    S    
O3    C7    A    
O15   V3    S    
C41   C42   S    
C9    C18   T    
O20   V1    S    
O9    C4    A    
C1    C11   S    
O10   C3    A    
C2    C12   S    
O4    C8    A    
O11   C2    A    
C42   H14   S    
C31   H12   S    
C41   H17   S    
C47   H31   S    
C36   C45   S    
C13   C18   S    
C14   H1    S    
C35   C47   S    
C4    C10   S    
C45   H26   S    
C16   C19   S    
O16   C8    A    
O2    C6    A    
C30   H9    S    
O14   V2    S    
C25   C38   A    
O5    C1    A    
O4    V1    S    
O9    V1    S    
C27   C40   A    
O17   V4    S    
O7    C3    A    
O11   V3    S    
O18   V3    S    
O8    C4    A    
O12   V4    S    
O19   V2    S    
C10   C17   T    
C43   H22   S    
O5    V1    S    
C44   H19   S    
O7    V3    S    
C21   C34   A    
O8    V4    S    
C43   C44   S    
C14   C17   S    
C15   C16   D    
H5    C25   S    
C42   H13   S    
C7    C22   S    
C28   C39   A    
C44   H18   S    
C46   H25   S    
O13   C5    A    
H8    C28   S    
O2    V3    S    
O3    V2    S    
O15   C7    A    
C13   C14   D    
O6    C2    A    
O10   V2    S    
C48   H28   S    
C36   C40   A    
C46   H24   S    
C45   H27   S    
C11   C20   T    
C24   C35   A    
O6    V2    S    
H6    C26   S    
C43   H21   S    
C45   C46   S    
O16   V4    S    
C44   H20   S    
C8    C21   S    
C33   C37   A    
C34   C41   S    
C21   C30   A    
C48   H29   S    
O14   C6    A    
C23   C32   A    
C33   C43   S    
C24   C31   A    
C26   C37   A    
C25   C29   A    
C15   C20   S    
C29   H10   S    
C27   C31   A    
C28   C32   A    
C39   C40   A    
C42   H15   S    
C34   C38   A    
C41   H16   S    
C47   H32   S    
C46   H23   S    
C32   H11   S    
C35   C39   A    
C23   C36   A    
O1    V4    S    
C37   C38   A    
C22   C33   A    
C48   H30   S    
O12   C1    A    
C47   C48   S    
C22   C29   A    
C6    C23   S    
C12   C19   T    
C13   H2    S    
C3    C9    S    
C5    C24   S    
C15   H4    S    
