data_mof_unit_55072.cif
_audit_creation_date              2012-10-26T18:50:18-0400
_audit_creation_method            fapswitch 2.2
_symmetry_space_group_name_H-M    P1
_symmetry_Int_Tables_number       1
_space_group_crystal_system       triclinic
_cell_length_a                    9.641532
_cell_length_b                    10.807242
_cell_length_c                    15.386473
_cell_angle_alpha                 87.904388
_cell_angle_beta                  73.894366
_cell_angle_gamma                 91.082943
_cell_volume                      1538.58640042

loop_
_atom_site_label
_atom_site_type_symbol
_atom_type_description
_atom_site_fract_x
_atom_site_fract_y
_atom_site_fract_z
_atom_type_partial_charge
C1    C     C_R   0.997098 0.262766 0.504022 0.534347
C2    C     C_R   0.227273 0.471998 0.040400 0.044376
C3    C     C_R   0.321838 0.520897 0.087235 0.037294
C4    C     C_R   0.918874 0.499159 0.672925 0.506378
C5    C     C_R   0.082386 0.443168 0.086755 -0.140822
C6    C     C_R   0.032225 0.457105 0.179994 -0.136517
C7    C     C_R   0.270125 0.530365 0.181558 -0.128081
C8    C     C_R   0.107361 0.127182 0.637112 -0.172880
C9    C     C_R   0.177584 0.063899 0.691883 -0.062878
C10   C     C_R   0.191482 0.936660 0.686926 0.441820
C11   C     C_R   0.130263 0.870920 0.629520 -0.066316
C12   C     C_R   0.674531 0.527293 0.906261 0.050112
C13   C     C_R   0.062356 0.933739 0.570698 -0.035543
C14   C     C_R   0.054649 0.064430 0.573086 0.010418
C15   C     C_R   0.991002 0.128707 0.512915 0.018450
C16   C     C_R   0.999427 0.737081 0.504349 0.533076
C17   C     C_R   0.925106 0.064594 0.457381 -0.134380
C18   C     C_R   0.928079 0.937084 0.456904 -0.132433
C19   C     C_R   0.998689 0.871003 0.510999 0.012151
C20   C     C_R   0.701094 0.662432 0.378491 -0.081838
C21   C     C_R   0.656760 0.743955 0.320430 -0.172089
C22   C     C_R   0.513148 0.746595 0.322237 -0.174387
C23   C     C_R   0.762207 0.601159 0.946069 -0.011355
C24   C     C_R   0.413185 0.666626 0.381252 -0.083501
C25   C     C_R   0.453349 0.581257 0.441321 0.159884
C26   C     C_R   0.602872 0.580248 0.440633 0.155332
C27   C     C_R   0.544203 0.422959 0.557371 0.118820
C28   C     C_R   0.081976 0.499878 0.327626 0.536060
C29   C     C_R   0.397317 0.424119 0.556225 0.043269
C30   C     C_R   0.878519 0.511008 0.773014 -0.088378
C31   C     C_R   0.127227 0.497431 0.228204 -0.002779
C32   C     C_R   0.911303 0.621556 0.901974 0.006771
C33   C     C_R   0.971401 0.571953 0.816083 -0.002623
C34   C     C_R   0.522990 0.514901 0.949139 0.072721
C35   C     C_R   0.742162 0.467536 0.825591 -0.030145
C36   C     C_2   0.579102 0.333699 0.623080 0.232948
C37   C     C_2   0.002593 0.693989 0.946557 0.279950
C38   C     C_2   0.130910 0.560974 0.779348 0.243713
C39   C     C_2   0.699849 0.338554 0.809919 0.237233
C40   C     C_R   0.467295 0.552291 0.039262 0.033792
C41   C     C_R   0.557118 0.623409 0.077501 -0.123361
C42   C     C_R   0.699724 0.650432 0.030810 -0.124804
C43   C     C_R   0.424424 0.472899 0.902977 -0.023315
C44   C     C_R   0.278896 0.451650 0.948118 -0.079867
Cu1   Cu    Cu3+1 0.140660 0.499990 0.500010 0.921809
Cu2   Cu    Cu3+1 0.859340 0.500010 0.499990 0.930010
F1    F     F_    0.263997 0.877064 0.738822 -0.532389
H1    H     H_    0.760846 0.708971 0.063322 0.112263
H2    H     H_    0.341587 0.557473 0.220811 0.117224
H3    H     H_    0.478709 0.810748 0.277178 0.125024
H4    H     H_    0.306134 0.675796 0.376547 0.180630
H5    H     H_    0.317478 0.362393 0.601333 0.148887
H6    H     H_    0.920876 0.431823 0.214774 0.136649
H7    H     H_    0.207272 0.415569 0.911322 0.110209
H8    H     H_    0.517571 0.665301 0.141899 0.108620
H9    H     H_    0.458853 0.457100 0.831236 0.170245
H10   H     H_    0.687555 0.315076 0.622128 0.166417
H11   H     H_    0.007732 0.666048 0.013943 0.079757
H12   H     H_    0.008484 0.408124 0.051057 0.113427
H13   H     H_    0.173943 0.477882 0.745685 0.105846
H14   H     H_    0.755721 0.294479 0.748462 0.106863
H15   H     H_    0.874710 0.113771 0.412070 0.134072
H16   H     H_    0.093465 0.225167 0.646694 0.128959
H17   H     H_    0.220642 0.113863 0.738837 0.182530
H18   H     H_    0.136634 0.771433 0.632734 0.183085
H19   H     H_    0.878418 0.889866 0.411726 0.119352
H20   H     H_    0.813501 0.668282 0.371842 0.176757
H21   H     H_    0.734671 0.805895 0.273866 0.121047
N1    N     N_R   0.648320 0.501210 0.499140 -0.271109
N2    N     N_R   0.352470 0.501290 0.499110 -0.264775
O1    O     O_R   0.118810 0.319640 0.500010 -0.495865
O2    O     O_2   0.065305 0.789561 0.910462 -0.380193
O3    O     O_2   0.216468 0.640589 0.788127 -0.394476
O4    O     O_2   0.613434 0.275456 0.868622 -0.468232
O5    O     O_R   0.881240 0.319660 0.500000 -0.531971
O6    O     O_R   0.055570 0.499980 0.629840 -0.522888
O7    O     O_R   0.818000 0.500010 0.629830 -0.504761
O8    O     O_R   0.118760 0.680340 0.500000 -0.531018
O9    O     O_R   0.881190 0.680360 0.499990 -0.500439
O10   O     O_R   0.182000 0.499990 0.370170 -0.512810
O11   O     O_R   0.944430 0.500020 0.370160 -0.521824
O12   O     O_2   0.483667 0.277316 0.680841 -0.547558

loop_
_geom_bond_atom_site_label_1
_geom_bond_atom_site_label_2
_ccdc_geom_bond_type
Cu1   O1    S    
C9    H17   S    
C41   C42   A    
C20   H20   S    
Cu1   Cu2   S    
C12   C23   A    
C1    O1    A    
C23   C42   A    
C30   C35   A    
Cu1   O6    S    
C34   C40   A    
C3    C7    A    
Cu2   O9    S    
C27   C29   A    
C18   C19   A    
C39   O4    D    
C41   H8    S    
Cu2   N1    S    
C2    C44   A    
C8    C9    A    
Cu1   O8    S    
C1    C15   S    
C9    C10   A    
C37   H11   S    
C27   N1    A    
C22   H3    S    
C24   H4    S    
C6    C31   A    
Cu1   N2    S    
C13   C14   A    
Cu2   O5    S    
C39   H14   S    
C7    C31   A    
C5    H12   S    
C1    O5    A    
C24   C25   A    
C7    H2    S    
C36   H10   S    
C36   O12   D    
C13   C19   A    
C25   C26   A    
C35   C39   S    
C43   C44   A    
C17   H15   S    
Cu2   O11   S    
C17   C18   A    
C42   H1    S    
C32   C37   S    
C12   C35   A    
C38   H13   S    
C40   C41   A    
C3    C40   A    
C21   H21   S    
C22   C24   A    
C2    C5    A    
C6    H6    S    
C12   C34   A    
C29   N2    A    
C15   C17   A    
C8    C14   A    
C30   C33   A    
C28   O11   A    
C28   C31   S    
C34   C43   A    
Cu2   O7    S    
C27   C36   S    
C18   H19   S    
C33   C38   S    
C16   O9    A    
C23   C32   A    
C2    C3    A    
C4    O7    A    
C32   C33   A    
C11   C13   A    
C5    C6    A    
C20   C26   A    
C16   C19   S    
Cu1   O10   S    
C16   O8    A    
C28   O10   A    
C4    O6    A    
C10   C11   A    
C8    H16   S    
C44   H7    S    
C43   H9    S    
C20   C21   A    
C37   O2    D    
C10   F1    S    
C26   N1    A    
C14   C15   A    
C25   N2    A    
C21   C22   A    
C29   H5    S    
C4    C30   S    
C11   H18   S    
C38   O3    D    
