data_mof_unit_29961.cif
_audit_creation_date              2012-12-11T14:28:12-0500
_audit_creation_method            fapswitch 2.2
_symmetry_space_group_name_H-M    P1
_symmetry_Int_Tables_number       1
_space_group_crystal_system       triclinic
_cell_length_a                    11.054191
_cell_length_b                    19.3617
_cell_length_c                    18.615993
_cell_angle_alpha                 89.964015
_cell_angle_beta                  90.155904
_cell_angle_gamma                 89.796907
_cell_volume                      3984.30185378

loop_
_atom_site_label
_atom_site_type_symbol
_atom_type_description
_atom_site_fract_x
_atom_site_fract_y
_atom_site_fract_z
_atom_type_partial_charge
C1    C     C_R   0.318508 0.966452 0.643840 0.538711
C2    C     C_R   0.317632 0.936605 0.861509 0.539562
C3    C     C_R   0.322517 0.029276 0.351687 0.535226
C4    C     C_R   0.319042 0.036425 0.144507 0.534809
C5    C     C_R   0.818509 0.466456 0.643843 0.538716
C6    C     C_R   0.817631 0.436605 0.861509 0.539562
C7    C     C_R   0.822517 0.529277 0.351690 0.535210
C8    C     C_R   0.819037 0.536419 0.144511 0.534821
C9    C     C_3   0.052229 0.678608 0.485606 -0.156398
C10   C     C_3   0.135774 0.688802 0.021914 -0.117801
C11   C     C_3   0.186021 0.280318 0.532270 -0.180340
C12   C     C_3   0.150658 0.274926 0.964608 -0.133814
C13   C     C_3   0.552276 0.178613 0.485595 -0.156350
C14   C     C_3   0.635784 0.188804 0.021915 -0.117829
C15   C     C_3   0.685997 0.780338 0.532258 -0.180308
C16   C     C_3   0.650650 0.774933 0.964624 -0.133794
C17   C     C_3   0.055924 0.739889 0.433075 0.057811
C18   C     C_3   0.030251 0.723566 0.062118 0.062233
C19   C     C_3   0.070717 0.257557 0.570678 0.041235
C20   C     C_3   0.019299 0.274072 0.938485 0.063420
C21   C     C_3   0.555949 0.239899 0.433068 0.057816
C22   C     C_3   0.530262 0.223569 0.062119 0.062243
C23   C     C_3   0.570708 0.757564 0.570673 0.041232
C24   C     C_3   0.519296 0.774072 0.938490 0.063402
C25   C     C_R   0.339332 0.987512 0.417384 -0.001445
C26   C     C_R   0.324559 0.007569 0.074122 -0.005577
C27   C     C_R   0.321349 0.992412 0.568174 -0.028232
C28   C     C_R   0.328334 0.955326 0.936351 -0.028630
C29   C     C_R   0.839332 0.487518 0.417392 -0.001436
C30   C     C_R   0.824533 0.507547 0.074133 -0.005588
C31   C     C_R   0.821351 0.492420 0.568181 -0.028219
C32   C     C_R   0.828323 0.455319 0.936354 -0.028669
C33   C     C_R   0.560371 0.997327 0.427890 -0.144816
C34   C     C_R   0.544043 0.984186 0.084381 -0.113587
C35   C     C_R   0.538292 0.019827 0.574553 -0.138373
C36   C     C_R   0.556475 0.973401 0.938647 -0.142995
C37   C     C_R   0.060374 0.497329 0.427899 -0.144803
C38   C     C_R   0.044004 0.484172 0.084396 -0.113425
C39   C     C_R   0.038295 0.519834 0.574560 -0.138305
C40   C     C_R   0.056464 0.473418 0.938661 -0.142987
C41   C     C_R   0.664405 0.010834 0.468999 0.264076
C42   C     C_R   0.654479 0.994848 0.051173 0.279889
C43   C     C_R   0.654081 0.016759 0.544045 0.284855
C44   C     C_R   0.657134 0.997812 0.976125 0.262188
C45   C     C_R   0.164411 0.510835 0.469005 0.264029
C46   C     C_R   0.154410 0.494904 0.051197 0.279886
C47   C     C_R   0.154084 0.516761 0.544056 0.284844
C48   C     C_R   0.157097 0.497858 0.976148 0.262057
C49   C     C_R   0.434596 0.002805 0.534613 -0.060206
C50   C     C_R   0.440259 0.973327 0.970667 -0.060015
C51   C     C_R   0.444904 0.995631 0.459433 -0.053249
C52   C     C_R   0.435923 0.987557 0.044232 -0.065380
C53   C     C_R   0.934599 0.502814 0.534620 -0.060226
C54   C     C_R   0.940241 0.473325 0.970675 -0.060020
C55   C     C_R   0.944907 0.495636 0.459441 -0.053260
C56   C     C_R   0.935892 0.487537 0.044244 -0.065445
C57   C     C_R   0.217038 0.982337 0.523258 0.003117
C58   C     C_R   0.219179 0.961664 0.974460 0.003993
C59   C     C_R   0.233542 0.966830 0.450275 0.045327
C60   C     C_R   0.217427 0.004394 0.032858 0.022090
C61   C     C_R   0.717037 0.482348 0.523266 0.003158
C62   C     C_R   0.719160 0.461650 0.974462 0.004001
C63   C     C_R   0.733538 0.466840 0.450284 0.045362
C64   C     C_R   0.717399 0.504370 0.032870 0.022244
C65   C     C_R   0.096050 0.985370 0.547533 -0.065837
C66   C     C_R   0.108951 0.933002 0.952210 -0.056178
C67   C     C_R   0.138378 0.939555 0.408562 -0.055028
C68   C     C_R   0.107386 0.039974 0.047075 -0.107744
C69   C     C_R   0.596050 0.485384 0.547544 -0.065814
C70   C     C_R   0.608933 0.433000 0.952195 -0.056070
C71   C     C_R   0.638368 0.439567 0.408572 -0.055038
C72   C     C_R   0.607352 0.539947 0.047089 -0.107420
C73   C     C_R   0.000845 0.963917 0.503544 -0.084414
C74   C     C_R   0.999991 0.959840 0.974279 -0.048926
C75   C     C_R   0.022108 0.939096 0.435021 -0.127108
C76   C     C_R   0.000209 0.018039 0.016985 -0.067041
C77   C     C_R   0.500841 0.463931 0.503558 -0.084428
C78   C     C_R   0.499972 0.459852 0.974238 -0.049233
C79   C     C_R   0.522098 0.439111 0.435034 -0.127105
C80   C     C_R   0.500183 0.518028 0.016976 -0.067186
C81   C     C_R   0.133656 0.757350 0.644300 0.542072
C82   C     C_R   0.130504 0.756931 0.854892 0.525719
C83   C     C_R   0.135931 0.241490 0.357001 0.549577
C84   C     C_R   0.136573 0.241087 0.142839 0.539003
C85   C     C_R   0.633653 0.257350 0.644300 0.542070
C86   C     C_R   0.630505 0.256931 0.854892 0.525720
C87   C     C_R   0.635920 0.741493 0.356998 0.549558
C88   C     C_R   0.636560 0.741089 0.142844 0.538995
C89   C     C_R   0.542552 0.769845 0.645308 0.549372
C90   C     C_R   0.495538 0.787893 0.862278 0.546445
C91   C     C_R   0.535122 0.227734 0.357520 0.554270
C92   C     C_R   0.498923 0.212517 0.137399 0.568101
C93   C     C_R   0.042551 0.269845 0.645308 0.549383
C94   C     C_R   0.995537 0.287894 0.862277 0.546455
C95   C     C_R   0.035092 0.727722 0.357528 0.554311
C96   C     C_R   0.998918 0.712515 0.137400 0.568078
C97   C     C_3   0.172934 0.764339 0.465455 0.206732
C98   C     C_3   0.062254 0.792770 0.030299 0.233321
C99   C     C_3   0.068035 0.190839 0.528797 0.235987
C100  C     C_3   0.998361 0.207627 0.979710 0.250613
C101  C     C_3   0.672941 0.264363 0.465458 0.206717
C102  C     C_3   0.562263 0.292772 0.030299 0.233288
C103  C     C_3   0.568044 0.690845 0.528798 0.235967
C104  C     C_3   0.498357 0.707623 0.979710 0.250615
C105  C     C_3   0.173597 0.703447 0.517763 -0.099460
C106  C     C_3   0.167738 0.759908 0.989841 -0.119804
C107  C     C_3   0.184119 0.211403 0.489697 -0.115765
C108  C     C_3   0.128992 0.207175 0.005736 -0.134331
C109  C     C_3   0.673625 0.203467 0.517762 -0.099449
C110  C     C_3   0.667747 0.259910 0.989840 -0.119752
C111  C     C_3   0.684117 0.711421 0.489692 -0.115759
C112  C     C_3   0.628984 0.707178 0.005746 -0.134306
C113  C     C_3   0.098849 0.748433 0.569989 0.025822
C114  C     C_3   0.080624 0.745742 0.926908 0.015464
C115  C     C_3   0.103522 0.246779 0.432515 0.026044
C116  C     C_3   0.087886 0.249934 0.070960 0.028413
C117  C     C_3   0.598849 0.248436 0.569988 0.025817
C118  C     C_3   0.580630 0.245743 0.926909 0.015484
C119  C     C_3   0.603500 0.746782 0.432511 0.026040
C120  C     C_3   0.587858 0.749932 0.070968 0.028391
C121  C     C_3   0.102857 0.809428 0.518114 -0.068145
C122  C     C_3   0.975532 0.780804 0.967032 -0.093831
C123  C     C_3   0.988141 0.223672 0.470863 -0.048414
C124  C     C_3   0.956428 0.247547 0.046204 -0.099644
C125  C     C_3   0.602833 0.309436 0.518118 -0.068177
C126  C     C_3   0.475539 0.280806 0.967034 -0.093845
C127  C     C_3   0.488132 0.723664 0.470867 -0.048440
C128  C     C_3   0.456405 0.747538 0.046204 -0.099650
C129  C     C_3   0.981875 0.784500 0.485253 -0.146870
C130  C     C_3   0.944113 0.709239 0.999560 -0.163033
C131  C     C_3   0.990773 0.292545 0.513414 -0.091683
C132  C     C_3   0.977635 0.315702 0.004339 -0.186100
C133  C     C_3   0.481866 0.284493 0.485249 -0.146867
C134  C     C_3   0.444122 0.209240 0.999563 -0.163011
C135  C     C_3   0.490742 0.792538 0.513413 -0.091666
C136  C     C_3   0.477609 0.815696 0.004344 -0.186115
C137  C     C_3   0.979260 0.723344 0.538944 -0.166387
C138  C     C_3   0.049358 0.674752 0.958335 -0.133193
C139  C     C_3   0.106787 0.315240 0.474121 -0.127141
C140  C     C_3   0.110017 0.317426 0.030270 -0.115117
C141  C     C_3   0.479276 0.223331 0.538936 -0.166374
C142  C     C_3   0.549366 0.174753 0.958337 -0.133196
C143  C     C_3   0.606742 0.815247 0.474112 -0.127106
C144  C     C_3   0.609984 0.817425 0.030285 -0.115135
Cr1   Cr    Cr6+3 0.488160 0.884660 0.750000 0.961127
Cr2   Cr    Cr6+3 0.488160 0.115340 0.250000 0.987394
Cr3   Cr    Cr6+3 0.988160 0.384660 0.750000 0.961135
Cr4   Cr    Cr6+3 0.988160 0.615340 0.250000 0.987569
Cr5   Cr    Cr6+3 0.173480 0.883120 0.750000 0.969550
Cr6   Cr    Cr6+3 0.173480 0.116880 0.250000 0.976318
Cr7   Cr    Cr6+3 0.673480 0.383120 0.750000 0.969533
Cr8   Cr    Cr6+3 0.673480 0.616880 0.250000 0.976267
Cr9   Cr    Cr6+3 0.333410 0.727260 0.750000 1.023251
Cr10  Cr    Cr6+3 0.333410 0.272740 0.250000 1.000448
Cr11  Cr    Cr6+3 0.833410 0.227260 0.750000 1.023238
Cr12  Cr    Cr6+3 0.833410 0.772740 0.250000 1.000521
H1    H     H_    0.251486 0.669909 0.532449 0.179966
H2    H     H_    0.255434 0.784128 0.980079 0.103294
H3    H     H_    0.260347 0.175901 0.477385 0.123298
H4    H     H_    0.179887 0.158595 0.001369 0.090650
H5    H     H_    0.751537 0.169945 0.532451 0.179963
H6    H     H_    0.755444 0.284130 0.980079 0.103294
H7    H     H_    0.760358 0.675931 0.477376 0.123298
H8    H     H_    0.679868 0.658591 0.001403 0.090638
H9    H     H_    0.910823 0.962602 0.523552 0.224858
H10   H     H_    0.918208 0.935624 0.956231 0.171068
H11   H     H_    0.948489 0.920154 0.402133 0.150127
H12   H     H_    0.919258 0.046357 0.028299 0.253824
H13   H     H_    0.410824 0.462612 0.523573 0.224833
H14   H     H_    0.418190 0.435658 0.956149 0.170868
H15   H     H_    0.448476 0.420171 0.402147 0.150169
H16   H     H_    0.419224 0.546339 0.028300 0.253669
H17   H     H_    0.135947 0.858378 0.539175 0.149533
H18   H     H_    0.914332 0.819281 0.942417 0.091550
H19   H     H_    0.911718 0.196502 0.445479 0.126230
H20   H     H_    0.878681 0.234692 0.081288 0.116996
H21   H     H_    0.635890 0.358388 0.539192 0.149538
H22   H     H_    0.414336 0.319286 0.942427 0.091529
H23   H     H_    0.411709 0.696478 0.445504 0.126242
H24   H     H_    0.378658 0.734678 0.081285 0.117015
H25   H     H_    0.904419 0.817260 0.468620 0.131304
H26   H     H_    0.858901 0.683102 0.008563 0.101524
H27   H     H_    0.913010 0.326898 0.526057 0.166447
H28   H     H_    0.906305 0.354287 0.010704 0.110733
H29   H     H_    0.404400 0.317247 0.468613 0.131319
H30   H     H_    0.358911 0.183106 0.008577 0.101522
H31   H     H_    0.412968 0.826880 0.526060 0.166418
H32   H     H_    0.406289 0.854288 0.010705 0.110730
H33   H     H_    0.903544 0.705046 0.572876 0.111589
H34   H     H_    0.038171 0.626487 0.927247 0.122614
H35   H     H_    0.124017 0.366107 0.449344 0.147320
H36   H     H_    0.161184 0.361579 0.050862 0.125715
H37   H     H_    0.403569 0.205015 0.572866 0.111582
H38   H     H_    0.538194 0.126487 0.927247 0.122604
H39   H     H_    0.623944 0.866114 0.449329 0.147314
H40   H     H_    0.661108 0.861573 0.050929 0.125812
H41   H     H_    0.025447 0.626634 0.468456 0.139566
H42   H     H_    0.201716 0.651410 0.044842 0.189300
H43   H     H_    0.262732 0.304558 0.561160 0.116202
H44   H     H_    0.227782 0.285577 0.928813 0.134876
H45   H     H_    0.525525 0.126635 0.468443 0.139586
H46   H     H_    0.701724 0.151411 0.044844 0.189193
H47   H     H_    0.762699 0.804592 0.561143 0.116235
H48   H     H_    0.727776 0.785593 0.928834 0.134887
H49   H     H_    0.571139 0.984661 0.371704 0.137689
H50   H     H_    0.544594 0.976166 0.141638 0.144754
H51   H     H_    0.530925 0.034663 0.630305 0.137283
H52   H     H_    0.578094 0.955421 0.886118 0.185324
H53   H     H_    0.071137 0.484660 0.371715 0.137693
H54   H     H_    0.044597 0.476126 0.141655 0.144879
H55   H     H_    0.030925 0.534671 0.630314 0.137303
H56   H     H_    0.078099 0.455442 0.886132 0.185292
H57   H     H_    0.153514 0.922195 0.353948 0.138356
H58   H     H_    0.100647 0.085350 0.080065 0.168446
H59   H     H_    0.072513 0.004906 0.599643 0.178952
H60   H     H_    0.106581 0.890196 0.917657 0.158764
H61   H     H_    0.653499 0.422206 0.353958 0.138313
H62   H     H_    0.600607 0.585323 0.080079 0.168283
H63   H     H_    0.572514 0.504916 0.599657 0.178966
H64   H     H_    0.606563 0.390201 0.917636 0.158791
O1    O     O_R   0.575450 0.828820 0.667950 -0.549897
O2    O     O_R   0.575450 0.828820 0.832050 -0.546036
O3    O     O_R   0.575450 0.171180 0.332050 -0.554577
O4    O     O_R   0.575450 0.171180 0.167950 -0.519341
O5    O     O_R   0.075450 0.328820 0.667950 -0.549892
O6    O     O_R   0.075450 0.328820 0.832050 -0.546044
O7    O     O_R   0.075450 0.671180 0.332050 -0.554573
O8    O     O_R   0.075450 0.671180 0.167950 -0.519205
O9    O     O_R   0.416860 0.942890 0.674680 -0.505878
O10   O     O_R   0.416860 0.942890 0.825320 -0.536390
O11   O     O_R   0.416860 0.057110 0.325320 -0.518586
O12   O     O_R   0.416860 0.057110 0.174680 -0.526767
O13   O     O_R   0.916860 0.442890 0.674680 -0.505870
O14   O     O_R   0.916860 0.442890 0.825320 -0.536373
O15   O     O_R   0.916860 0.557110 0.325320 -0.518591
O16   O     O_R   0.916860 0.557110 0.174680 -0.526731
O17   O     O_R   0.213790 0.953680 0.668330 -0.537785
O18   O     O_R   0.213790 0.953680 0.831670 -0.519590
O19   O     O_R   0.213790 0.046320 0.331670 -0.520943
O20   O     O_R   0.213790 0.046320 0.168330 -0.542357
O21   O     O_R   0.713790 0.453680 0.668330 -0.537789
O22   O     O_R   0.713790 0.453680 0.831670 -0.519603
O23   O     O_R   0.713790 0.546320 0.331670 -0.520960
O24   O     O_R   0.713790 0.546320 0.168330 -0.542293
O25   O     O_R   0.121360 0.817890 0.672660 -0.519073
O26   O     O_R   0.121360 0.817890 0.827340 -0.549293
O27   O     O_R   0.121360 0.182110 0.327340 -0.516079
O28   O     O_R   0.121360 0.182110 0.172660 -0.524369
O29   O     O_R   0.621360 0.317890 0.672660 -0.519082
O30   O     O_R   0.621360 0.317890 0.827340 -0.549315
O31   O     O_R   0.621360 0.682110 0.327340 -0.516087
O32   O     O_R   0.621360 0.682110 0.172660 -0.524437
O33   O     O_R   0.206850 0.711370 0.665820 -0.506628
O34   O     O_R   0.206850 0.711370 0.834180 -0.537321
O35   O     O_R   0.206850 0.288630 0.334180 -0.526336
O36   O     O_R   0.206850 0.288630 0.165820 -0.549312
O37   O     O_R   0.706850 0.211370 0.665820 -0.506638
O38   O     O_R   0.706850 0.211370 0.834180 -0.537289
O39   O     O_R   0.706850 0.788630 0.334180 -0.526382
O40   O     O_R   0.706850 0.788630 0.165820 -0.549330
O41   O     O_R   0.457710 0.733190 0.672630 -0.475089
O42   O     O_R   0.457710 0.733190 0.827370 -0.489572
O43   O     O_R   0.457710 0.266810 0.327370 -0.508433
O44   O     O_R   0.457710 0.266810 0.172630 -0.474063
O45   O     O_R   0.957710 0.233190 0.672630 -0.475089
O46   O     O_R   0.957710 0.233190 0.827370 -0.489581
O47   O     O_R   0.957710 0.766810 0.327370 -0.508414
O48   O     O_R   0.957710 0.766810 0.172630 -0.473904
O49   O     O_3   0.331690 0.831680 0.750000 -0.292553
O50   O     O_3   0.331690 0.168320 0.250000 -0.279697
O51   O     O_3   0.831690 0.331680 0.750000 -0.292551
O52   O     O_3   0.831690 0.668320 0.250000 -0.279742
O53   O     O_3   0.267219 0.790809 0.423926 -0.745991
H65   H     H_    0.272915 0.761040 0.380777 0.315719
O54   O     O_3   0.069568 0.851913 0.073156 -0.704821
H66   H     H_    0.146203 0.847422 0.100591 0.325670
O55   O     O_3   0.045668 0.127399 0.560960 -0.687525
H67   H     H_    0.105268 0.123988 0.600723 0.309818
O56   O     O_3   0.939859 0.150603 0.951354 -0.724638
H68   H     H_    0.998555 0.130227 0.917257 0.330385
O57   O     O_3   0.767239 0.290838 0.423943 -0.746002
H69   H     H_    0.772932 0.261081 0.380784 0.315692
O58   O     O_3   0.569583 0.351918 0.073152 -0.704863
H70   H     H_    0.646208 0.347420 0.100595 0.325690
O59   O     O_3   0.545701 0.627407 0.560973 -0.687562
H71   H     H_    0.605278 0.624019 0.600749 0.309829
O60   O     O_3   0.439870 0.650597 0.951347 -0.724587
H72   H     H_    0.498576 0.630224 0.917253 0.330388
O61   O     O_3   0.777174 0.013123 0.437018 -0.575595
C145  C     C_3   0.780595 0.066300 0.384988 -0.019499
H73   H     H_    0.749989 0.116152 0.408182 0.149283
H74   H     H_    0.723975 0.053374 0.337496 0.137942
C146  C     C_3   0.909476 0.075966 0.358800 -0.340305
H75   H     H_    0.941604 0.028930 0.330836 0.137826
H76   H     H_    0.912281 0.119901 0.320530 0.113679
H77   H     H_    0.970904 0.086444 0.404716 0.210170
O62   O     O_3   0.755074 0.010190 0.092298 -0.584274
C147  C     C_3   0.795094 0.950974 0.130242 -0.016317
H78   H     H_    0.842516 0.915030 0.093163 0.191081
H79   H     H_    0.720377 0.922974 0.157258 0.130034
C148  C     C_3   0.882332 0.972914 0.189009 -0.341288
H80   H     H_    0.836401 0.010739 0.224416 0.127419
H81   H     H_    0.910434 0.927301 0.221305 0.121079
H82   H     H_    0.963892 0.997193 0.165691 0.177827
O63   O     O_3   0.757151 0.018098 0.587244 -0.545544
C149  C     C_3   0.746105 0.968146 0.643016 -0.023815
H83   H     H_    0.697540 0.921374 0.624241 0.168780
H84   H     H_    0.697165 0.991119 0.689344 0.130934
C150  C     C_3   0.868935 0.943013 0.669742 -0.371259
H85   H     H_    0.926500 0.987396 0.685168 0.157968
H86   H     H_    0.856043 0.909067 0.717123 0.103893
H87   H     H_    0.914523 0.910580 0.629008 0.132755
O64   O     O_3   0.763922 0.011634 0.941069 -0.596247
C151  C     C_3   0.748239 0.055433 0.880894 -0.001662
H88   H     H_    0.759923 0.109071 0.898681 0.243780
H89   H     H_    0.658951 0.052812 0.853594 0.098339
C152  C     C_3   0.843146 0.037548 0.825287 -0.357858
H90   H     H_    0.830365 0.983054 0.809455 0.128176
H91   H     H_    0.833222 0.071665 0.777635 0.126654
H92   H     H_    0.935645 0.042790 0.847501 0.163500
O65   O     O_3   0.277178 0.513121 0.437015 -0.575643
C153  C     C_3   0.280575 0.566269 0.384952 -0.019529
H93   H     H_    0.249798 0.616110 0.408091 0.149359
H94   H     H_    0.224060 0.553276 0.337438 0.137829
C154  C     C_3   0.409484 0.576019 0.358832 -0.340206
H95   H     H_    0.441778 0.529024 0.330861 0.137935
H96   H     H_    0.412270 0.619972 0.320586 0.113818
H97   H     H_    0.470813 0.586511 0.404789 0.210102
O66   O     O_3   0.254920 0.510301 0.092359 -0.584235
C155  C     C_3   0.295293 0.451000 0.130016 -0.016588
H98   H     H_    0.343128 0.415383 0.092788 0.191157
H99   H     H_    0.220724 0.422653 0.156780 0.130366
C156  C     C_3   0.382122 0.472868 0.189000 -0.340929
H100  H     H_    0.334906 0.509302 0.225363 0.125909
H101  H     H_    0.412408 0.426988 0.220166 0.122493
H102  H     H_    0.462428 0.498763 0.166020 0.177462
O67   O     O_3   0.257137 0.518092 0.587269 -0.545592
C157  C     C_3   0.246113 0.468079 0.642984 -0.023779
H103  H     H_    0.197694 0.421288 0.624124 0.168703
H104  H     H_    0.197039 0.490961 0.689311 0.131003
C158  C     C_3   0.368959 0.443019 0.669756 -0.371283
H105  H     H_    0.426437 0.487434 0.685193 0.158004
H106  H     H_    0.356076 0.409069 0.717135 0.103889
H107  H     H_    0.414648 0.410606 0.629045 0.132738
O68   O     O_3   0.263891 0.511701 0.941107 -0.596294
C159  C     C_3   0.248202 0.555461 0.880902 -0.001618
H108  H     H_    0.259934 0.609104 0.898654 0.243853
H109  H     H_    0.158897 0.552850 0.853620 0.098342
C160  C     C_3   0.343067 0.537528 0.825286 -0.357915
H110  H     H_    0.330271 0.483021 0.809499 0.128181
H111  H     H_    0.333112 0.571610 0.777609 0.126640
H112  H     H_    0.435581 0.542791 0.847474 0.163500

loop_
_geom_bond_atom_site_label_1
_geom_bond_atom_site_label_2
_ccdc_geom_bond_type
C6    C32   S    
Cr1   O10   S    
C7    C29   S    
C145  C146  S    
C119  C143  S    
Cr4   O52   S    
C153  H94   S    
C120  C144  S    
C110  C118  S    
O67   C157  S    
C36   C50   A    
Cr10  O44   S    
C156  H100  S    
C4    O12   A    
C16   C144  S    
Cr8   O24   S    
C57   C59   A    
C153  C154  S    
Cr1   O1    S    
C8    O24   A    
C58   C60   A    
C62   C70   A    
C61   C63   A    
C62   C64   A    
Cr10  O43   S    
C121  H17   S    
C49   C51   A    
C34   C42   A    
C84   O36   A    
C50   C52   A    
C23   C89   S    
C128  H24   S    
C88   O32   A    
C97   C105  S    
C150  H86   S    
C73   C75   A    
C42   C44   A    
C20   C132  S    
C21   C133  S    
C116  C140  S    
Cr3   O6    S    
Cr10  O35   S    
C77   C79   A    
C112  H8    S    
C46   C48   A    
C115  C123  S    
C155  H98   S    
Cr2   O50   S    
C27   C57   A    
C87   O39   A    
C112  C120  S    
Cr11  O38   S    
C19   C99   S    
C29   C55   A    
C151  H88   S    
C148  H80   S    
C30   C56   A    
C46   O66   S    
C100  C124  S    
C152  H92   S    
C15   C111  S    
Cr11  O51   S    
C104  C128  S    
C12   C20   S    
C149  H83   S    
C142  H38   S    
C13   C21   S    
C85   C117  S    
Cr11  O45   S    
C63   C71   A    
C113  C137  S    
C36   C44   A    
C33   C51   A    
C147  H78   S    
C80   H16   S    
C37   C45   A    
C130  C138  S    
C91   O43   A    
C39   C47   A    
C148  H82   S    
C40   C48   A    
Cr9   O33   S    
C34   C52   A    
C102  O58   S    
C24   C90   S    
C15   H47   S    
C42   O62   S    
C28   C58   A    
C72   H62   S    
C98   C106  S    
C61   C69   A    
C33   C41   A    
C10   C18   S    
C76   H12   S    
C95   O7    A    
C2    C28   S    
C32   C62   A    
C93   O5    A    
C129  C137  S    
C126  C134  S    
O65   C153  S    
C83   O27   A    
C43   O63   S    
C10   C138  S    
C81   O33   A    
Cr10  O50   S    
C101  C109  S    
C96   O48   A    
C14   C142  S    
C85   O29   A    
C160  H110  S    
C134  H30   S    
C53   C55   A    
C69   C77   A    
Cr4   O8    S    
Cr6   O50   S    
C71   C79   A    
C110  H6    S    
Cr6   O28   S    
C33   H49   S    
C74   C76   A    
C96   O8    A    
C105  C113  S    
C65   H59   S    
C89   O1    A    
C78   C80   A    
C9    C105  S    
C66   C74   A    
Cr4   O16   S    
C78   H14   S    
C124  C132  S    
C111  C119  S    
C36   H52   S    
C20   C94   S    
C154  H96   S    
C103  O59   S    
C97   C121  S    
C59   C67   A    
C95   O47   A    
C35   C49   A    
C101  C125  S    
C126  H22   S    
C35   C43   A    
C133  H29   S    
C24   C136  S    
C135  C143  S    
C6    O14   A    
C84   C116  S    
O55   H67   S    
C136  H32   S    
C131  H27   S    
C135  H31   S    
C9    H41   S    
Cr7   O30   S    
Cr2   O11   S    
C158  H106  S    
C23   C103  S    
C100  C108  S    
C82   O26   A    
C39   H55   S    
C83   C115  S    
C73   H9    S    
C3    O11   A    
C104  C112  S    
C94   O6    A    
C1    O17   A    
C122  H18   S    
C87   C119  S    
C146  H75   S    
Cr7   O21   S    
Cr2   O4    S    
C159  H109  S    
Cr12  O48   S    
C57   C65   A    
O61   C145  S    
C12   H44   S    
C141  H37   S    
C38   H54   S    
C15   C143  S    
Cr6   O19   S    
C160  H112  S    
C157  H104  S    
C100  O56   S    
C10   C106  S    
C67   C75   A    
C160  H111  S    
Cr8   O32   S    
C159  C160  S    
C14   C110  S    
Cr1   O9    S    
C102  C126  S    
C123  H19   S    
C144  H40   S    
C68   C76   A    
C157  C158  S    
C40   C54   A    
C101  O57   S    
C84   O28   A    
Cr4   O15   S    
C127  H23   S    
C14   C22   S    
C72   C80   A    
C16   H48   S    
C11   C107  S    
C99   O55   S    
C14   H46   S    
C114  C138  S    
C66   H60   S    
C90   O42   A    
C38   C46   A    
C131  C139  S    
C2    O10   A    
C37   C55   A    
Cr3   O14   S    
C38   C56   A    
O58   H70   S    
C22   C92   S    
C6    O22   A    
C25   C59   A    
C26   C60   A    
C27   C49   A    
C119  C127  S    
C29   C63   A    
C30   C64   A    
C41   C43   A    
C31   C61   A    
O54   H66   S    
C44   O64   S    
Cr3   O5    S    
C109  C117  S    
Cr10  O36   S    
C11   C19   S    
Cr5   O26   S    
C155  H99   S    
C127  C135  S    
C146  H77   S    
C139  H35   S    
C48   O68   S    
C128  C136  S    
Cr11  O37   S    
C150  H87   S    
C93   O45   A    
C151  H89   S    
C103  C111  S    
C145  H73   S    
O66   C155  S    
C79   H15   S    
C152  H91   S    
C11   C139  S    
C86   O38   A    
Cr3   O51   S    
C9    C137  S    
C105  H1    S    
C155  C156  S    
C149  H84   S    
O56   H68   S    
C12   C140  S    
C17   C95   S    
C13   C141  S    
C88   C120  S    
C68   H58   S    
C19   C93   S    
Cr12  O39   S    
C151  C152  S    
C148  H81   S    
C153  H93   S    
C147  H79   S    
C32   C54   A    
C156  H101  S    
C7    O15   A    
C149  C150  S    
C3    C25   S    
Cr8   O23   S    
Cr1   O2    S    
C150  H85   S    
C83   O35   A    
C147  C148  S    
C117  C141  S    
O59   H71   S    
C134  C142  S    
O60   H72   S    
C20   C100  S    
C92   O4    A    
C143  H39   S    
Cr5   O18   S    
C4    O20   A    
C86   C118  S    
C124  H20   S    
C8    O16   A    
C35   H51   S    
C106  C114  S    
Cr6   O20   S    
C102  C110  S    
C91   O3    A    
C74   H10   S    
C16   C112  S    
C12   C108  S    
C21   C91   S    
Cr5   O25   S    
C116  C124  S    
C123  C131  S    
C69   H63   S    
C121  C129  S    
C4    C26   S    
C120  C128  S    
Cr12  O52   S    
C132  C140  S    
C99   C107  S    
C40   H56   S    
C133  C141  S    
C71   H61   S    
C23   C135  S    
C8    C30   S    
Cr9   O41   S    
C108  C116  S    
Cr5   O49   S    
C136  C144  S    
C132  H28   S    
O64   C151  S    
C39   C53   A    
C107  C115  S    
C154  H95   S    
C11   H43   S    
Cr11  O46   S    
C98   O54   S    
C88   O40   A    
C60   C68   A    
O63   C149  S    
C81   C113  S    
Cr5   O17   S    
C82   O34   A    
C3    O19   A    
C86   O30   A    
Cr9   O34   S    
C70   C78   A    
C18   C96   S    
O62   C147  S    
Cr7   O29   S    
Cr2   O12   S    
C158  H105  S    
C34   H50   S    
C22   C134  S    
C90   O2    A    
C45   O65   S    
C65   C73   A    
Cr1   O49   S    
C45   C47   A    
C28   C50   A    
C58   C66   A    
C13   C109  S    
C21   C101  S    
C15   C23   S    
C16   C24   S    
C5    O13   A    
C138  H34   S    
Cr4   O7    S    
C10   H42   S    
C156  H102  S    
C47   O67   S    
C19   C131  S    
Cr6   O27   S    
C94   O46   A    
C54   C56   A    
C17   C129  S    
C81   O25   A    
C111  H7    S    
C82   C114  S    
C130  H26   S    
C2    O18   A    
O57   H69   S    
C106  H2    S    
C70   H64   S    
C24   C104  S    
C154  H97   S    
C25   C51   A    
C26   C52   A    
O53   H65   S    
C113  C121  S    
C92   O44   A    
C31   C53   A    
Cr9   O42   S    
C37   H53   S    
C137  H33   S    
Cr3   O13   S    
C9    C17   S    
C125  H21   S    
C140  H36   S    
C67   H57   S    
C103  C127  S    
C99   C123  S    
C158  H107  S    
C125  C133  S    
C129  H25   S    
Cr9   O49   S    
C115  C139  S    
C118  C142  S    
C107  H3    S    
C108  H4    S    
C41   O61   S    
C118  C126  S    
C22   C102  S    
C85   O37   A    
C5    O21   A    
C87   O31   A    
C146  H76   S    
C109  H5    S    
Cr7   O22   S    
Cr2   O3    S    
Cr7   O51   S    
C159  H108  S    
Cr12  O47   S    
C17   C97   S    
Cr8   O52   S    
C13   H45   S    
C145  H74   S    
C64   C72   A    
C152  H90   S    
C18   C130  S    
C104  O60   S    
C114  C122  S    
C1    O9    A    
C89   O41   A    
C98   C122  S    
C77   H13   S    
C157  H103  S    
C7    O23   A    
C1    C27   S    
C75   H11   S    
C18   C98   S    
Cr12  O40   S    
O68   C159  S    
C117  C125  S    
C97   O53   S    
C122  C130  S    
Cr8   O31   S    
C5    C31   S    
