data_mof_unit_34646.cif
_audit_creation_date              2012-12-10T18:13:27-0500
_audit_creation_method            fapswitch 2.2
_symmetry_space_group_name_H-M    P1
_symmetry_Int_Tables_number       1
_space_group_crystal_system       triclinic
_cell_length_a                    12.611302
_cell_length_b                    13.033392
_cell_length_c                    16.601294
_cell_angle_alpha                 89.788624
_cell_angle_beta                  98.876728
_cell_angle_gamma                 96.217152
_cell_volume                      2679.94719202

loop_
_atom_site_label
_atom_site_type_symbol
_atom_type_description
_atom_site_fract_x
_atom_site_fract_y
_atom_site_fract_z
_atom_type_partial_charge
C1    C     C_R   0.559485 0.691674 0.502947 0.881492
C2    C     C_R   0.593985 0.408260 0.244695 -0.338005
C3    C     C_R   0.539171 0.352557 0.841016 0.497185
C4    C     C_R   0.511569 0.374204 0.758844 -0.277398
C5    C     C_R   0.467694 0.544426 0.791652 -0.174567
C6    C     C_R   0.492704 0.523038 0.874114 -0.197954
C7    C     C_R   0.530199 0.428513 0.899023 -0.012147
C8    C     C_2   0.502314 0.342705 0.024702 -0.010663
C9    C     C_2   0.559576 0.413614 0.986156 -0.103113
C10   C     C_R   0.479962 0.470805 0.734274 -0.097853
C11   C     C_R   0.291289 0.067278 0.382385 0.441082
C12   C     C_R   0.510690 0.492647 0.347851 0.921333
C13   C     C_R   0.410544 0.200010 0.464152 -0.150272
C14   C     C_R   0.703275 0.838666 0.525448 -0.258425
C15   C     C_R   0.741711 0.940748 0.513509 -0.177703
C16   C     C_R   0.672194 0.008664 0.474952 0.404837
C17   C     C_R   0.560975 0.973421 0.452212 -0.003370
C18   C     C_R   0.530861 0.866920 0.445632 0.034228
C19   C     C_R   0.477200 0.038014 0.438894 0.080309
C20   C     C_R   0.374512 0.001039 0.394715 0.020727
C21   C     C_R   0.358727 0.898284 0.366511 -0.116893
C22   C     C_R   0.435733 0.831666 0.393124 -0.177147
C23   C     C_R   0.441275 0.307911 0.488694 0.882058
C24   C     C_R   0.490011 0.133418 0.477958 -0.181941
C25   C     C_R   0.311247 0.167223 0.416366 -0.243080
C26   C     C_R   0.597868 0.800135 0.490699 -0.115049
C27   C     C_R   0.908178 0.361480 0.624396 -0.206628
C28   C     C_R   0.205241 0.626753 0.402133 0.116991
C29   C     C_R   0.101196 0.652942 0.379576 -0.152041
C30   C     C_R   0.017851 0.604437 0.416301 -0.175334
C31   C     C_R   0.038476 0.528511 0.475850 0.020879
C32   C     C_R   0.146498 0.504069 0.496376 0.228816
C33   C     C_R   0.956787 0.477248 0.516473 0.005678
C34   C     C_R   0.486983 0.498839 0.650916 0.881657
C35   C     C_R   0.985597 0.406829 0.579465 0.169289
C36   C     C_R   0.091303 0.382318 0.597078 -0.235088
C37   C     C_R   0.169934 0.428693 0.554942 -0.174334
C38   C     C_R   0.847077 0.493219 0.497785 -0.024872
C39   C     C_R   0.802221 0.383668 0.604999 0.113212
C40   C     C_R   0.506674 0.458897 0.262370 -0.233922
C41   C     C_R   0.414387 0.461317 0.201348 0.436969
C42   C     C_R   0.411460 0.410516 0.127239 -0.310149
C43   C     C_R   0.499343 0.362710 0.110422 -0.060091
C44   C     C_R   0.590944 0.359724 0.169767 0.490631
H1    H     H_    0.485652 0.581360 0.918782 0.166760
H2    H     H_    0.250203 0.220045 0.404758 0.220146
H3    H     H_    0.285399 0.866738 0.328181 0.215416
H4    H     H_    0.826274 0.966528 0.533264 0.196996
H5    H     H_    0.929308 0.309245 0.673788 0.163430
H6    H     H_    0.817200 0.543174 0.449751 0.130668
H7    H     H_    0.268875 0.663324 0.372850 0.161214
H8    H     H_    0.938878 0.628638 0.397416 0.148406
H9    H     H_    0.248738 0.404462 0.570027 0.205719
H10   H     H_    0.611685 0.475380 0.020931 0.172011
N1    N     N_R   0.774070 0.445420 0.541180 -0.111550
N2    N     N_R   0.226730 0.554050 0.459240 -0.135790
O1    O     O_R   0.631480 0.627510 0.519670 -0.614542
O2    O     O_R   0.455770 0.662400 0.493360 -0.624468
O3    O     O_R   0.598240 0.480510 0.398910 -0.635066
O4    O     O_R   0.422540 0.515400 0.372600 -0.548972
O5    O     O_R   0.544230 0.337600 0.506640 -0.607181
O6    O     O_R   0.368520 0.372490 0.480330 -0.628392
O7    O     O_R   0.577460 0.484600 0.627400 -0.610357
O8    O     O_R   0.401760 0.519490 0.601090 -0.630804
Zn1   Zn    Zn3+2 0.617320 0.476700 0.517570 0.963267
Zn2   Zn    Zn3+2 0.382680 0.523300 0.482430 0.986589
S1    S     S_3+6 0.304486 0.532336 0.210022 0.047119
O9    O     O_2   0.235289 0.477462 0.266302 -0.227130
O10   O     O_2   0.346177 0.638552 0.243224 -0.363686
O11   O     O_3   0.227575 0.543485 0.118784 -0.497500
H11   H     H_    0.271446 0.592686 0.088249 0.356627
S2    S     S_3+6 0.161916 0.027900 0.326496 0.046323
O12   O     O_2   0.090544 0.113545 0.323179 -0.215982
O13   O     O_2   0.173633 0.998110 0.241184 -0.269574
O14   O     O_3   0.105072 0.925306 0.372103 -0.585816
H12   H     H_    0.034354 0.906298 0.337544 0.392123
H13   H     H_    0.563167 0.156738 0.519787 0.201144
H14   H     H_    0.757621 0.788800 0.558658 0.189963
S3    S     S_3+6 0.732314 0.125173 0.438675 0.047535
O15   O     O_2   0.766970 0.198554 0.509424 -0.361616
O16   O     O_2   0.830588 0.104261 0.403109 -0.189840
O17   O     O_3   0.646377 0.177623 0.366420 -0.508288
H15   H     H_    0.653739 0.252075 0.380512 0.382680
H16   H     H_    0.422647 0.753275 0.370906 0.192692
H17   H     H_    0.741385 0.349648 0.639391 0.148804
H18   H     H_    0.522160 0.318598 0.713122 0.177417
H19   H     H_    0.113383 0.326567 0.643614 0.167765
H20   H     H_    0.085226 0.710648 0.333535 0.186551
H21   H     H_    0.445573 0.619917 0.772865 0.158442
S4    S     S_3+6 0.701934 0.295498 0.151866 0.097985
O18   O     O_2   0.771196 0.364058 0.103188 -0.251333
O19   O     O_2   0.768426 0.270627 0.231264 -0.215608
O20   O     O_3   0.656298 0.185452 0.099213 -0.494033
H22   H     H_    0.722102 0.154552 0.090566 0.409185
S5    S     S_3+6 0.595669 0.236031 0.867932 0.037055
O21   O     O_2   0.627705 0.187544 0.794522 -0.305713
O22   O     O_2   0.693855 0.258072 0.931745 -0.229641
O23   O     O_3   0.504025 0.153142 0.905000 -0.550612
H23   H     H_    0.544274 0.095434 0.927102 0.403070
H24   H     H_    0.665259 0.405097 0.289821 0.217720
H25   H     H_    0.437820 0.290958 0.990544 0.196135
H26   H     H_    0.343110 0.414180 0.079376 0.207208

loop_
_geom_bond_atom_site_label_1
_geom_bond_atom_site_label_2
_ccdc_geom_bond_type
O7    Zn1   S    
O20   H22   S    
C6    H1    S    
C41   C42   A    
S5    O21   D    
C18   C26   A    
C8    C43   S    
O14   H12   S    
C28   N2    A    
S5    O23   S    
C41   S1    S    
C36   C37   A    
C3    C7    A    
C30   C31   A    
C28   H7    S    
C4    H18   S    
C11   C25   A    
C15   C16   A    
C13   C23   S    
C29   H20   S    
C17   C19   A    
C12   O3    A    
O2    Zn2   S    
C23   O6    A    
C39   N1    A    
C38   N1    A    
C35   C36   A    
C2    C44   A    
C8    C9    D    
C31   C33   A    
C2    C40   A    
O11   H11   S    
C8    H25   S    
C37   H9    S    
C2    H24   S    
C21   C22   A    
C13   C25   A    
C15   H4    S    
S2    O14   S    
C42   H26   S    
N1    Zn1   S    
C36   H19   S    
C11   C20   A    
O6    Zn2   S    
S1    O9    D    
S2    O13   D    
C27   C39   A    
S3    O16   D    
C11   S2    S    
C16   C17   A    
C27   C35   A    
C13   C24   A    
S1    O10   D    
C22   H16   S    
C12   C40   S    
C43   C44   A    
C29   C30   A    
C1    O1    A    
S4    O19   D    
C31   C32   A    
C34   O8    A    
C17   C18   A    
C10   C34   S    
C32   C37   A    
C14   C26   A    
C40   C41   A    
O23   H23   S    
C1    C26   S    
C42   C43   A    
C39   H17   S    
C4    C10   A    
C3    C4    A    
C44   S4    S    
S4    O20   S    
C7    C9    S    
C30   H8    S    
C28   C29   A    
C18   C22   A    
O1    Zn1   S    
S2    O12   D    
S3    O17   S    
S5    O22   D    
C6    C7    A    
C38   H6    S    
C33   C38   A    
S1    O11   S    
C16   S3    S    
C19   C20   A    
C19   C24   A    
C5    C10   A    
C1    O2    A    
O3    Zn1   S    
S4    O18   D    
C5    C6    A    
N2    Zn2   S    
C34   O7    A    
C33   C35   A    
C14   H14   S    
O4    Zn2   S    
S3    O15   D    
C12   O4    A    
O5    Zn1   S    
C24   H13   S    
C23   O5    A    
C20   C21   A    
O17   H15   S    
C14   C15   A    
C3    S5    S    
C9    H10   S    
C25   H2    S    
C32   N2    A    
C5    H21   S    
C27   H5    S    
O8    Zn2   S    
C21   H3    S    
