data_mof_unit_53664.cif
_audit_creation_date              2012-12-10T16:51:33-0500
_audit_creation_method            fapswitch 2.2
_symmetry_space_group_name_H-M    P1
_symmetry_Int_Tables_number       1
_space_group_crystal_system       triclinic
_cell_length_a                    7.925266
_cell_length_b                    8.567326
_cell_length_c                    12.097304
_cell_angle_alpha                 94.010533
_cell_angle_beta                  101.184432
_cell_angle_gamma                 93.413117
_cell_volume                      801.567999842

loop_
_atom_site_label
_atom_site_type_symbol
_atom_type_description
_atom_site_fract_x
_atom_site_fract_y
_atom_site_fract_z
_atom_type_partial_charge
C1    C     C_R   0.045614 0.794376 0.502730 0.875557
C2    C     C_R   0.162323 0.510259 0.832783 -0.112814
C3    C     C_2   0.074549 0.958667 0.523893 0.038859
C4    C     C_R   0.106222 0.505163 0.710332 0.826881
C5    C     C_2   0.935858 0.041689 0.498931 -0.450163
C6    C     C_R   0.957786 0.206116 0.504779 0.964996
C7    C     C_R   0.893213 0.489464 0.289830 0.861861
C8    C     C_R   0.813745 0.299969 0.996161 -0.189224
C9    C     C_R   0.832796 0.463989 0.168892 -0.063811
C10   C     C_R   0.079296 0.604033 0.902051 -0.194973
C11   C     C_R   0.154611 0.641633 0.014840 -0.127295
C12   C     C_R   0.404352 0.499603 0.988738 0.081009
C13   C     C_R   0.317506 0.594075 0.057552 -0.204707
C14   C     C_3   0.426550 0.250437 0.329195 -0.726580
C15   C     C_3   0.653986 0.684020 0.711125 -0.715240
C16   C     C_3   0.384673 0.029644 0.548940 -0.717776
C17   C     C_R   0.316185 0.443965 0.879305 0.085550
C18   C     C_R   0.575265 0.457841 0.024664 0.076849
C19   C     C_R   0.646774 0.346058 0.958020 0.162364
C20   C     C_R   0.548704 0.278315 0.856234 -0.267581
C21   C     C_R   0.385098 0.325818 0.817829 -0.207429
C22   C     C_R   0.677237 0.523834 0.125606 -0.262943
C23   C     C_R   0.905408 0.356206 0.103056 -0.188055
H1    H     H_    0.598704 0.189223 0.805866 0.154919
H2    H     H_    0.382227 0.480671 0.305152 0.220007
H3    H     H_    0.441156 0.228740 0.240039 0.211068
H4    H     H_    0.294205 0.207198 0.335580 0.239951
H5    H     H_    0.524351 0.185892 0.382331 0.238855
H6    H     H_    0.408820 0.675333 0.611678 0.283392
H7    H     H_    0.603105 0.764327 0.770871 0.188261
H8    H     H_    0.775967 0.742105 0.697442 0.257808
H9    H     H_    0.674350 0.571023 0.749680 0.255051
H10   H     H_    0.249971 0.981345 0.675694 0.196925
H11   H     H_    0.440020 0.152820 0.558204 0.257585
H12   H     H_    0.869170 0.214597 0.946063 0.134638
H13   H     H_    0.357340 0.985240 0.458263 0.237644
H14   H     H_    0.483069 0.959266 0.595960 0.225107
H15   H     H_    0.634498 0.616227 0.176335 0.143475
H16   H     H_    0.960136 0.654095 0.868245 0.149639
H17   H     H_    0.370046 0.630936 0.144993 0.122756
H18   H     H_    0.089859 0.713744 0.068238 0.140887
H19   H     H_    0.312006 0.268357 0.739625 0.193261
H20   H     H_    0.027303 0.309484 0.136420 0.154057
H21   H     H_    0.807939 0.988426 0.460389 0.151956
N1    N     N_2   0.434800 0.456690 0.470850 0.009313
N2    N     N_2   0.565200 0.543310 0.529150 0.054158
N3    N     N_2   0.455267 0.416062 0.362619 -0.180733
N4    N     N_2   0.531953 0.659067 0.605620 -0.243208
N5    N     N_2   0.230726 0.023275 0.596640 -0.300238
O1    O     O_R   0.893060 0.738880 0.507150 -0.620408
O2    O     O_R   0.172250 0.711130 0.488470 -0.642005
O3    O     O_R   0.944700 0.520730 0.667600 -0.618918
O4    O     O_R   0.223890 0.492980 0.648920 -0.635233
O5    O     O_R   0.827750 0.288870 0.511530 -0.617819
O6    O     O_R   0.106940 0.261120 0.492850 -0.580693
O7    O     O_R   0.776110 0.507020 0.351080 -0.585688
O8    O     O_R   0.055300 0.479270 0.332400 -0.633617
Zn1   Zn    Zn3+2 0.813580 0.518530 0.512470 0.961327
Zn2   Zn    Zn3+2 0.186420 0.481470 0.487530 0.931187

loop_
_geom_bond_atom_site_label_1
_geom_bond_atom_site_label_2
_ccdc_geom_bond_type
C12   C17   A    
C22   H15   S    
C2    C4    S    
C15   H8    S    
C14   N3    S    
O6    Zn2   S    
C4    O4    A    
C11   C13   A    
C1    O1    A    
C6    O6    A    
C19   C20   A    
C16   H14   S    
C14   H5    S    
C20   C21   A    
O4    Zn2   S    
C15   H9    S    
N1    N2    D    
C14   H3    S    
C2    C17   A    
C1    O2    A    
C16   H13   S    
O3    Zn1   S    
C15   N4    S    
C6    O5    A    
C7    O7    A    
C5    H21   S    
O7    Zn1   S    
C11   H18   S    
N2    N4    S    
C4    O3    A    
N1    N3    S    
C3    N5    S    
C5    C6    S    
C14   H4    S    
C17   C21   A    
C9    C22   A    
O8    Zn2   S    
C8    C19   A    
O2    Zn2   S    
C10   C11   A    
H6    N4    S    
H10   N5    S    
C21   H19   S    
O1    Zn1   S    
C3    C5    D    
C16   N5    S    
C8    C23   A    
C23   H20   S    
C12   C13   A    
C15   H7    S    
C18   C19   A    
O5    Zn1   S    
C12   C18   A    
C7    C9    S    
H2    N3    S    
N1    Zn2   S    
C13   H17   S    
C9    C23   A    
C16   H11   S    
C18   C22   A    
C7    O8    A    
N2    Zn1   S    
C20   H1    S    
C10   H16   S    
C1    C3    S    
C8    H12   S    
C2    C10   A    
