data_mof_unit_62148.cif
_audit_creation_date              2012-12-10T19:31:19-0500
_audit_creation_method            fapswitch 2.2
_symmetry_space_group_name_H-M    P1
_symmetry_Int_Tables_number       1
_space_group_crystal_system       triclinic
_cell_length_a                    19.188755
_cell_length_b                    15.767369
_cell_length_c                    14.959271
_cell_angle_alpha                 90.002676
_cell_angle_beta                  89.732036
_cell_angle_gamma                 90.230919
_cell_volume                      4525.93364167

loop_
_atom_site_label
_atom_site_type_symbol
_atom_type_description
_atom_site_fract_x
_atom_site_fract_y
_atom_site_fract_z
_atom_type_partial_charge
C1    C     C_R   0.500680 0.337690 0.499996 0.958821
C2    C     C_R   0.499319 0.662310 0.500004 0.958819
C3    C     C_3   0.560444 0.970319 0.531857 0.207918
C4    C     C_3   0.439555 0.029681 0.468142 0.207913
C5    C     C_3   0.552712 0.027058 0.448315 -0.162933
C6    C     C_3   0.447286 0.972941 0.551685 -0.162935
C7    C     C_1   0.501353 0.249173 0.500033 -0.021414
C8    C     C_1   0.498646 0.750826 0.499967 -0.021408
C9    C     C_3   0.509098 0.027478 0.583822 -0.154966
C10   C     C_3   0.490900 0.972522 0.416178 -0.154966
C11   C     C_3   0.501574 0.083578 0.500383 0.041462
C12   C     C_3   0.498425 0.916422 0.499617 0.041462
C13   C     C_1   0.501717 0.174184 0.500171 0.165670
C14   C     C_1   0.498281 0.825816 0.499828 0.165668
C15   C     C_3   0.500438 0.420288 0.970788 -0.071282
C16   C     C_3   0.499562 0.579712 0.029212 -0.071283
C17   C     C_3   0.556963 0.461160 0.030082 0.279803
C18   C     C_3   0.443037 0.538840 0.969918 0.279802
C19   C     C_3   0.442745 0.459013 0.030958 -0.300056
C20   C     C_3   0.557254 0.540987 0.969042 -0.300054
C21   C     C_3   0.499827 0.500539 0.089857 -0.028660
C22   C     C_3   0.500172 0.499461 0.910143 -0.028661
C23   C     C_R   0.365480 0.499876 0.500264 0.981195
C24   C     C_R   0.634519 0.500126 0.499736 0.981211
C25   C     C_1   0.499912 0.500178 0.189923 0.246172
C26   C     C_1   0.500088 0.499822 0.810077 0.246175
C27   C     C_R   0.253758 0.562231 0.545522 0.197981
C28   C     C_R   0.746242 0.437760 0.454509 0.197970
C29   C     C_R   0.181160 0.561360 0.546485 0.249513
C30   C     C_R   0.818840 0.438630 0.453558 0.249515
C31   C     C_R   0.145155 0.495544 0.503140 -0.081113
C32   C     C_R   0.854843 0.504460 0.496880 -0.081119
C33   C     C_R   0.180840 0.429579 0.458328 -0.122172
C34   C     C_R   0.819155 0.570440 0.541663 -0.122177
C35   C     C_R   0.254207 0.430601 0.457293 -0.134782
C36   C     C_R   0.745789 0.569415 0.542695 -0.134784
C37   C     C_R   0.289958 0.497193 0.501195 -0.169218
C38   C     C_R   0.710041 0.502812 0.498808 -0.169201
C39   C     C_R   0.930158 0.501552 0.498349 0.422261
C40   C     C_R   0.069839 0.498456 0.501673 0.422247
H1    H     H_    0.604500 0.574730 0.944528 0.187130
H2    H     H_    0.395499 0.425270 0.055472 0.187129
N1    N     N_R   0.032933 0.487657 0.578210 -0.089282
N2    N     N_R   0.967064 0.512350 0.421812 -0.089281
N3    N     N_R   0.963841 0.489346 0.576590 -0.122624
N4    N     N_R   0.036155 0.510662 0.423432 -0.122631
N5    N     N_1   0.500020 0.500000 0.268010 -0.074058
N6    N     N_1   0.499980 0.500000 0.731990 -0.074057
O1    O     O_R   0.500000 0.376780 0.574460 -0.594465
O2    O     O_R   0.500000 0.623220 0.425540 -0.594461
O3    O     O_R   0.500010 0.376780 0.425520 -0.596307
O4    O     O_R   0.499990 0.623220 0.574480 -0.596321
O5    O     O_R   0.398130 0.499990 0.574490 -0.581213
O6    O     O_R   0.601870 0.500010 0.425510 -0.581208
O7    O     O_R   0.398140 0.499990 0.425550 -0.623243
O8    O     O_R   0.601860 0.500010 0.574450 -0.623254
Zn1   Zn    Zn3+2 0.499990 0.500000 0.599450 1.083087
Zn2   Zn    Zn3+2 0.500010 0.500000 0.400550 1.083096
Br1   Br    Br    0.303453 0.655419 0.600704 -0.310827
Br2   Br    Br    0.696551 0.344562 0.399347 -0.310841
Br3   Br    Br    0.130909 0.652891 0.603476 -0.282912
Br4   Br    Br    0.869096 0.347077 0.396617 -0.282907
C41   C     C_2   0.142105 0.357543 0.416338 0.494055
H3    H     H_    0.162412 0.326302 0.357305 0.059213
O9    O     O_2   0.087734 0.330764 0.448579 -0.494479
C42   C     C_2   0.857887 0.642491 0.583627 0.494070
H4    H     H_    0.837571 0.673757 0.642639 0.059219
O10   O     O_2   0.912265 0.669252 0.551388 -0.494498
C43   C     C_2   0.293189 0.359719 0.414626 0.461365
H5    H     H_    0.278152 0.336015 0.349487 0.060605
O11   O     O_2   0.341646 0.325867 0.453063 -0.555086
C44   C     C_2   0.706803 0.640304 0.585342 0.461336
H6    H     H_    0.721835 0.664018 0.650478 0.060616
O12   O     O_2   0.658349 0.674147 0.546889 -0.555098
C45   C     C_2   0.612299 0.055144 0.390213 0.510921
H7    H     H_    0.644531 0.008041 0.357400 0.099441
O13   O     O_2   0.624857 0.130362 0.379452 -0.496826
C46   C     C_2   0.387700 0.944855 0.609787 0.510913
H8    H     H_    0.355468 0.991958 0.642600 0.099442
O14   O     O_2   0.375142 0.869638 0.620548 -0.496832
Br5   Br    Br    0.647358 0.925820 0.577651 -0.412182
Br6   Br    Br    0.352640 0.074179 0.422348 -0.412167
C47   C     C_2   0.480447 0.943946 0.321612 0.498321
H9    H     H_    0.475867 0.990784 0.268909 0.087764
O15   O     O_2   0.477079 0.868636 0.303365 -0.503508
C48   C     C_2   0.519551 0.056054 0.678388 0.498323
H10   H     H_    0.524131 0.009216 0.731091 0.087763
O16   O     O_2   0.522920 0.131363 0.696635 -0.503507
Br7   Br    Br    0.640073 0.405022 0.072685 -0.390131
Br8   Br    Br    0.359927 0.594978 0.927315 -0.390120
C49   C     C_2   0.500955 0.329438 0.941676 0.504593
H11   H     H_    0.501044 0.279526 0.991549 0.084403
O17   O     O_2   0.501292 0.311070 0.862454 -0.507934
C50   C     C_2   0.499045 0.670562 0.058324 0.504592
H12   H     H_    0.498955 0.720474 0.008451 0.084403
O18   O     O_2   0.498708 0.688930 0.137546 -0.507934

loop_
_geom_bond_atom_site_label_1
_geom_bond_atom_site_label_2
_ccdc_geom_bond_type
C42   O10   D    
C41   O9    D    
C16   C21   S    
C27   C29   A    
C11   C13   S    
C34   C42   S    
C6    C9    S    
C20   H1    S    
N6    Zn1   S    
C15   C22   S    
O8    Zn1   S    
C15   C19   S    
C35   C37   A    
C5    C11   S    
C6    C12   S    
C46   O14   D    
C6    C46   S    
C24   O6    A    
C10   C47   S    
C17   C20   S    
O1    Zn1   S    
C31   C40   S    
C43   O11   D    
C18   C19   S    
C32   C39   S    
C45   O13   D    
C3    C12   S    
C2    O2    A    
C40   N1    A    
C3    Br5   S    
C24   C38   S    
C31   C33   A    
C25   N5    T    
C34   C36   A    
C19   H2    S    
C26   N6    T    
C39   N3    A    
C42   H4    S    
C1    C7    S    
C43   H5    S    
N2    N4    A    
C23   O5    A    
C28   Br2   S    
C29   Br3   S    
C33   C41   S    
C18   Br8   S    
C17   Br7   S    
C4    C6    S    
C49   H11   S    
O5    Zn1   S    
C48   H10   S    
C23   C37   S    
C17   C21   S    
C32   C34   A    
C5    C45   S    
C40   N4    A    
C45   H7    S    
C3    C9    S    
C9    C48   S    
C49   O17   D    
C1    O3    A    
C47   H9    S    
C28   C38   A    
C16   C20   S    
O2    Zn2   S    
O3    Zn2   S    
C4    C11   S    
C50   O18   D    
N1    N3    A    
C10   C12   S    
C44   O12   D    
C47   O15   D    
C20   C22   S    
C9    C11   S    
C4    C10   S    
C36   C38   A    
O6    Zn2   S    
C15   C17   S    
C21   C25   S    
C8    C14   T    
C19   C21   S    
C18   C22   S    
C2    C8    S    
C12   C14   S    
C44   H6    S    
C3    C5    S    
C23   O7    A    
C39   N2    A    
C24   O8    A    
C16   C50   S    
C2    O4    A    
C30   Br4   S    
C5    C10   S    
C29   C31   A    
C27   Br1   S    
N5    Zn2   S    
C30   C32   A    
C46   H8    S    
C27   C37   A    
C28   C30   A    
C33   C35   A    
C48   O16   D    
C50   H12   S    
O4    Zn1   S    
C15   C49   S    
C41   H3    S    
C7    C13   T    
C4    Br6   S    
C35   C43   S    
C16   C18   S    
C22   C26   S    
O7    Zn2   S    
C1    O1    A    
C36   C44   S    
