data_mof_unit_12483.cif
_audit_creation_date              2012-12-10T17:09:33-0500
_audit_creation_method            fapswitch 2.2
_symmetry_space_group_name_H-M    P1
_symmetry_Int_Tables_number       1
_space_group_crystal_system       triclinic
_cell_length_a                    10.492778
_cell_length_b                    10.657472
_cell_length_c                    10.068422
_cell_angle_alpha                 88.745933
_cell_angle_beta                  90.457051
_cell_angle_gamma                 90.868754
_cell_volume                      1125.48427615

loop_
_atom_site_label
_atom_site_type_symbol
_atom_type_description
_atom_site_fract_x
_atom_site_fract_y
_atom_site_fract_z
_atom_type_partial_charge
C1    C     C_R   0.492592 0.262557 0.501339 0.932765
C2    C     C_2   0.601517 0.511059 0.072936 -0.028763
C3    C     C_R   0.257521 0.496032 0.499658 0.850974
C4    C     C_R   0.496580 0.737468 0.498086 0.915506
C5    C     C_R   0.742357 0.503194 0.500450 0.868730
C6    C     C_3   0.038252 0.413064 0.592695 0.117541
C7    C     C_3   0.952688 0.383012 0.472438 0.105272
C8    C     C_3   0.877321 0.500821 0.501269 -0.032683
C9    C     C_3   0.961248 0.531141 0.621939 -0.190547
C10   C     C_3   0.046985 0.611506 0.528258 -0.194243
C11   C     C_3   0.884114 0.260214 0.436482 -0.418388
C12   C     C_3   0.960421 0.581460 0.407929 -0.183214
C13   C     C_3   0.976720 0.154128 0.411071 -0.363954
C14   C     C_3   0.904151 0.033188 0.378499 -0.876862
C15   C     C_3   0.392087 0.425543 0.105672 -0.618241
C16   C     C_3   0.091168 0.324688 0.701242 -0.416998
C17   C     C_3   0.984841 0.259999 0.782065 -0.346324
C18   C     C_3   0.039660 0.182819 0.897957 -0.898987
C19   C     C_3   0.336623 0.869101 0.298954 -0.343963
C20   C     C_3   0.242090 0.956801 0.227628 -0.394508
C21   C     C_3   0.145724 0.882675 0.144909 -0.890428
C22   C     C_3   0.038031 0.463191 0.378533 -0.195128
C23   C     C_3   0.122273 0.493535 0.499492 -0.030411
C24   C     C_2   0.424454 0.934007 0.398935 0.126727
C25   C     C_2   0.493653 0.870621 0.491358 -0.377259
C26   C     C_2   0.441902 0.069608 0.393900 -0.180196
C27   C     C_2   0.463185 0.131710 0.505671 -0.398758
C28   C     C_2   0.601696 0.488511 0.925981 -0.156159
H1    H     H_    0.453832 0.086695 0.603086 0.159704
H2    H     H_    0.442198 0.117510 0.297608 0.169989
H3    H     H_    0.837118 0.006956 0.459717 0.260719
H4    H     H_    0.849777 0.045351 0.284092 0.264348
H5    H     H_    0.972044 0.955401 0.367661 0.252411
H6    H     H_    0.039687 0.181197 0.326620 0.216168
H7    H     H_    0.036903 0.136318 0.500306 0.224779
H8    H     H_    0.818118 0.232471 0.518033 0.187762
H9    H     H_    0.825809 0.277549 0.345437 0.216473
H10   H     H_    0.356551 0.368454 0.190985 0.233850
H11   H     H_    0.313020 0.487136 0.072714 0.171690
H12   H     H_    0.691042 0.464897 0.879983 0.151892
H13   H     H_    0.415640 0.355888 0.029487 0.185343
H14   H     H_    0.103292 0.109218 0.860728 0.265862
H15   H     H_    0.094393 0.244283 0.966320 0.257037
H16   H     H_    0.960775 0.136573 0.954339 0.249028
H17   H     H_    0.920154 0.331442 0.822024 0.217543
H18   H     H_    0.928271 0.196489 0.717830 0.227237
H19   H     H_    0.152156 0.253581 0.655281 0.187430
H20   H     H_    0.151928 0.381039 0.769199 0.221470
H21   H     H_    0.195352 0.830270 0.066933 0.262673
H22   H     H_    0.091124 0.815294 0.209049 0.256878
H23   H     H_    0.425476 0.546242 0.892705 0.189368
H24   H     H_    0.077743 0.948257 0.096169 0.257675
H25   H     H_    0.190303 0.011218 0.302183 0.233925
H26   H     H_    0.293939 0.023348 0.160103 0.217766
H27   H     H_    0.395438 0.823893 0.222703 0.219410
H28   H     H_    0.280267 0.795086 0.352875 0.202541
H29   H     H_    0.691900 0.536265 0.118836 0.124605
H30   H     H_    0.925520 0.559462 0.720211 0.139762
H31   H     H_    0.090300 0.704543 0.550313 0.136664
H32   H     H_    0.923624 0.650552 0.333488 0.138742
H33   H     H_    0.073788 0.435210 0.280149 0.140209
H34   H     H_    0.556502 0.917185 0.561553 0.135651
N1    N     N_2   0.501360 0.501330 0.852150 -0.197682
N2    N     N_2   0.501400 0.501360 0.147810 -0.050900
O1    O     O_R   0.499980 0.319060 0.613040 -0.612068
O2    O     O_R   0.500020 0.319100 0.386900 -0.617628
O3    O     O_R   0.313930 0.499950 0.613050 -0.629724
O4    O     O_R   0.313970 0.499990 0.386910 -0.627912
O5    O     O_R   0.499980 0.680900 0.613100 -0.606620
O6    O     O_R   0.500020 0.680940 0.386960 -0.611115
O7    O     O_R   0.686030 0.500010 0.613090 -0.624665
O8    O     O_R   0.686070 0.500050 0.386950 -0.625311
Zn1   Zn    Zn3+2 0.499970 0.499970 0.650990 0.922733
Zn2   Zn    Zn3+2 0.500030 0.500030 0.349010 0.922784

loop_
_geom_bond_atom_site_label_1
_geom_bond_atom_site_label_2
_ccdc_geom_bond_type
C19   H28   S    
O6    Zn2   S    
C5    C8    S    
C1    O1    A    
C15   N2    S    
C15   H10   S    
O5    Zn1   S    
C6    C7    S    
O3    Zn1   S    
C19   C24   S    
C18   H16   S    
C10   C23   S    
C27   H1    S    
C7    C22   S    
C9    C10   S    
C3    C23   S    
C19   C20   S    
C17   C18   S    
C14   H3    S    
C8    C12   S    
C1    C27   S    
C16   H20   S    
C6    C9    S    
C21   H21   S    
C4    C25   S    
C8    C9    S    
C2    H29   S    
O1    Zn1   S    
C7    C8    S    
C5    O7    A    
C18   H15   S    
C17   H18   S    
C22   H33   S    
C7    C11   S    
C11   C13   S    
C20   H26   S    
C15   H11   S    
C26   C27   D    
C16   C17   S    
C10   C12   S    
C14   H5    S    
C6    C23   S    
C16   H19   S    
C4    O6    A    
C4    O5    A    
C24   C26   S    
C13   H7    S    
C5    O8    A    
C25   H34   S    
C18   H14   S    
C17   H17   S    
C24   C25   D    
C28   H12   S    
C15   H13   S    
C6    C16   S    
O2    Zn2   S    
C28   N1    D    
C12   C22   S    
C13   H6    S    
H23   N1    S    
C20   C21   S    
C2    N2    D    
C10   H31   S    
O8    Zn2   S    
C9    H30   S    
C19   H27   S    
C12   H32   S    
O7    Zn1   S    
N2    Zn2   S    
C22   C23   S    
C21   H22   S    
C2    C28   S    
N1    Zn1   S    
C13   C14   S    
O4    Zn2   S    
C11   H9    S    
C21   H24   S    
C3    O3    A    
C11   H8    S    
C3    O4    A    
C14   H4    S    
C20   H25   S    
C26   H2    S    
C1    O2    A    
