data_mof_unit_58243.cif
_audit_creation_date              2012-10-26T19:57:51-0400
_audit_creation_method            fapswitch 2.2
_symmetry_space_group_name_H-M    P1
_symmetry_Int_Tables_number       1
_space_group_crystal_system       triclinic
_cell_length_a                    7.454466
_cell_length_b                    8.726549
_cell_length_c                    12.977613
_cell_angle_alpha                 87.964266
_cell_angle_beta                  79.003608
_cell_angle_gamma                 102.651056
_cell_volume                      805.958977026

loop_
_atom_site_label
_atom_site_type_symbol
_atom_type_description
_atom_site_fract_x
_atom_site_fract_y
_atom_site_fract_z
_atom_type_partial_charge
C1    C     C_R   0.453227 0.200090 0.503148 0.579481
C2    C     C_R   0.734400 0.555667 0.117655 0.371864
C3    C     C_R   0.605701 0.526758 0.858331 -0.153321
C4    C     C_R   0.394299 0.473242 0.141669 -0.153321
C5    C     C_R   0.589746 0.521930 0.966666 -0.025476
C6    C     C_R   0.410254 0.478069 0.033334 -0.025476
C7    C     C_2   0.426455 0.033149 0.504482 0.337247
C8    C     C_2   0.573545 0.966851 0.495518 0.337247
C9    C     C_R   0.546773 0.799910 0.496852 0.579481
C10   C     C_R   0.465666 0.494523 0.701579 0.552024
C11   C     C_R   0.534334 0.505477 0.298421 0.552024
C12   C     C_R   0.555373 0.511507 0.184439 0.019753
C13   C     C_R   0.444627 0.488492 0.815561 0.019753
C14   C     C_R   0.249273 0.439381 0.990765 -0.053154
C15   C     C_R   0.750727 0.560618 0.009235 -0.053154
C16   C     C_R   0.265600 0.444333 0.882344 0.371864
Cu1   Cu    Cu3+1 0.686350 0.517570 0.488220 1.115284
Cu2   Cu    Cu3+1 0.313650 0.482430 0.511780 1.115284
F1    F     F_    0.893645 0.596111 0.156433 -0.627071
F2    F     F_    0.106355 0.403889 0.843567 -0.627071
F3    F     F_    0.246749 0.946974 0.514946 -0.605060
F4    F     F_    0.753251 0.053026 0.485054 -0.605060
H1    H     H_    0.256180 0.438942 0.192519 0.177207
H2    H     H_    0.743820 0.561058 0.807481 0.177207
H3    H     H_    0.111027 0.404809 0.041292 0.177247
H4    H     H_    0.888973 0.595190 0.958708 0.177248
H5    H     H_    0.933705 0.376578 0.583059 0.272699
H6    H     H_    0.066295 0.623422 0.416941 0.272698
N1    N     N_2   0.033570 0.455950 0.529530 -0.222941
N2    N     N_2   0.966430 0.544050 0.470470 -0.222941
O1    O     O_R   0.621060 0.286250 0.492350 -0.488914
O2    O     O_R   0.378940 0.713750 0.507650 -0.488914
O3    O     O_R   0.306310 0.256580 0.512240 -0.448528
O4    O     O_R   0.693690 0.743420 0.487760 -0.448528
O5    O     O_R   0.631800 0.512400 0.642670 -0.539025
O6    O     O_R   0.368200 0.487600 0.357330 -0.539025
O7    O     O_R   0.317060 0.482730 0.662570 -0.439317
O8    O     O_R   0.682940 0.517270 0.337430 -0.439316

loop_
_geom_bond_atom_site_label_1
_geom_bond_atom_site_label_2
_ccdc_geom_bond_type
C11   O8    A    
C8    F4    S    
C11   C12   S    
C10   O5    A    
Cu1   N2    S    
C4    C12   A    
C3    C13   A    
C16   F2    S    
C2    C12   A    
H6    N2    S    
Cu1   Cu2   S    
C1    O3    A    
C7    C8    D    
Cu2   N1    S    
C7    F3    S    
C2    C15   A    
C3    H2    S    
N1    N2    D    
C10   O7    A    
C11   O6    A    
Cu2   O7    S    
C9    O4    A    
Cu1   O8    S    
C14   H3    S    
C5    C6    A    
Cu1   O1    S    
Cu2   O3    S    
C14   C16   A    
C5    C15   A    
C6    C14   A    
Cu1   O4    S    
C1    O1    A    
Cu2   O2    S    
H5    N1    S    
C4    C6    A    
C13   C16   A    
C4    H1    S    
C15   H4    S    
Cu1   O5    S    
C9    O2    A    
C2    F1    S    
C1    C7    S    
Cu2   O6    S    
C8    C9    S    
C3    C5    A    
C10   C13   S    
