data_mof_unit_16150.cif
_audit_creation_date              2012-12-10T19:22:00-0500
_audit_creation_method            fapswitch 2.2
_symmetry_space_group_name_H-M    P1
_symmetry_Int_Tables_number       1
_space_group_crystal_system       triclinic
_cell_length_a                    8.733557
_cell_length_b                    17.718274
_cell_length_c                    16.449269
_cell_angle_alpha                 89.511067
_cell_angle_beta                  97.978133
_cell_angle_gamma                 90.121483
_cell_volume                      2520.6886511

loop_
_atom_site_label
_atom_site_type_symbol
_atom_type_description
_atom_site_fract_x
_atom_site_fract_y
_atom_site_fract_z
_atom_type_partial_charge
C1    C     C_R   0.504929 0.355361 0.500847 0.849444
C2    C     C_R   0.495050 0.644638 0.499153 0.854120
C3    C     C_1   0.499085 0.966162 0.499768 0.000487
C4    C     C_1   0.501162 0.033842 0.499751 -0.001152
C5    C     C_R   0.607433 0.545650 0.835768 0.352441
C6    C     C_R   0.392900 0.454200 0.164244 0.345737
C7    C     C_R   0.602971 0.544337 0.749407 0.020872
C8    C     C_R   0.397095 0.455637 0.250585 0.017018
C9    C     C_R   0.398493 0.455917 0.736507 0.133818
C10   C     C_R   0.601506 0.544095 0.263506 0.130672
C11   C     C_R   0.397735 0.455629 0.822156 -0.265405
C12   C     C_R   0.602259 0.544409 0.177858 -0.268211
C13   C     C_R   0.502433 0.500697 0.873205 -0.012392
C14   C     C_R   0.497641 0.499310 0.126801 -0.011345
C15   C     C_1   0.500447 0.500196 0.962772 0.158755
C16   C     C_1   0.499374 0.499978 0.037214 0.157130
C17   C     C_R   0.203294 0.499817 0.479117 0.918327
C18   C     C_R   0.796705 0.500180 0.520883 0.914916
C19   C     C_2   0.037731 0.499992 0.467424 -0.321241
C20   C     C_2   0.962269 0.500007 0.532575 -0.317991
C21   C     C_R   0.578557 0.844839 0.563975 -0.116067
C22   C     C_R   0.421172 0.155233 0.435871 -0.115481
C23   C     C_R   0.575419 0.766285 0.563271 -0.226949
C24   C     C_R   0.424202 0.233781 0.436729 -0.223091
C25   C     C_R   0.489991 0.727544 0.497829 -0.167259
C26   C     C_R   0.509876 0.272451 0.502147 -0.150967
C27   C     C_R   0.403071 0.769117 0.433040 0.422915
C28   C     C_R   0.597100 0.230821 0.566798 0.385773
C29   C     C_R   0.408681 0.848041 0.434481 -0.188364
C30   C     C_R   0.591811 0.151887 0.565107 -0.209592
C31   C     C_R   0.495948 0.885534 0.499395 0.047642
C32   C     C_R   0.504251 0.114471 0.500235 0.067499
Cu1   Cu    Cu3+1 0.499990 0.499980 0.580420 1.020673
Cu2   Cu    Cu3+1 0.500010 0.500020 0.419580 1.017842
H1    H     H_    0.977718 0.500229 0.404908 0.183378
H2    H     H_    0.022282 0.499771 0.595092 0.185563
H3    H     H_    0.645931 0.873810 0.614642 0.162955
H4    H     H_    0.353562 0.126319 0.385240 0.163685
H5    H     H_    0.641913 0.735610 0.613444 0.179897
H6    H     H_    0.357455 0.264510 0.386682 0.179359
H7    H     H_    0.344040 0.880684 0.385329 0.197957
H8    H     H_    0.656896 0.119129 0.613983 0.169001
H9    H     H_    0.682427 0.578886 0.720402 0.162142
H10   H     H_    0.317437 0.421190 0.279563 0.162510
H11   H     H_    0.317362 0.420643 0.698229 0.150442
H12   H     H_    0.682592 0.579385 0.301791 0.145736
H13   H     H_    0.315603 0.420224 0.848383 0.194685
H14   H     H_    0.684316 0.579866 0.151637 0.190663
N1    N     N_R   0.499960 0.499970 0.701210 -0.201400
N2    N     N_R   0.500040 0.500030 0.298790 -0.199833
O1    O     O_R   0.499990 0.391240 0.567930 -0.526858
O2    O     O_R   0.500010 0.608760 0.432070 -0.526904
O3    O     O_R   0.500000 0.391270 0.432120 -0.600952
O4    O     O_R   0.500000 0.608730 0.567880 -0.601810
O5    O     O_R   0.274830 0.499990 0.552240 -0.600890
O6    O     O_R   0.725170 0.500010 0.447760 -0.601145
O7    O     O_R   0.274840 0.500020 0.416420 -0.562108
O8    O     O_R   0.725160 0.499980 0.583580 -0.560602
S1    S     S_3+6 0.279785 0.725812 0.351942 0.014080
O9    O     O_2   0.376012 0.692155 0.292480 -0.271095
O10   O     O_2   0.186471 0.664725 0.385819 -0.312642
O11   O     O_3   0.158608 0.789902 0.302104 -0.526667
H15   H     H_    0.094915 0.761226 0.258265 0.388271
S2    S     S_3+6 0.720598 0.274166 0.647852 0.030601
O12   O     O_2   0.814767 0.334790 0.613841 -0.271976
O13   O     O_2   0.625178 0.309063 0.706984 -0.278981
O14   O     O_3   0.842062 0.210520 0.698413 -0.500797
H16   H     H_    0.783933 0.187414 0.739893 0.359575
S3    S     S_3+6 0.744464 0.603323 0.895399 0.014740
O15   O     O_2   0.849496 0.641245 0.842465 -0.280386
O16   O     O_2   0.660452 0.662268 0.937269 -0.277614
O17   O     O_3   0.850280 0.549597 0.966952 -0.490554
H17   H     H_    0.914685 0.585751 0.002439 0.390743
S4    S     S_3+6 0.255953 0.396492 0.104609 0.014887
O18   O     O_2   0.165880 0.350140 0.158577 -0.276991
O19   O     O_2   0.146851 0.445920 0.049003 -0.259608
O20   O     O_3   0.348791 0.338761 0.047198 -0.519494
H18   H     H_    0.266097 0.315326 0.008144 0.387863

loop_
_geom_bond_atom_site_label_1
_geom_bond_atom_site_label_2
_ccdc_geom_bond_type
Cu1   O5    S    
C5    C13   A    
Cu2   O6    S    
Cu1   O8    S    
C27   C29   A    
C11   H13   S    
C19   C20   D    
C12   H14   S    
O20   H18   S    
C9    H11   S    
C21   C31   A    
C22   C32   A    
C24   C26   A    
Cu1   N1    S    
C15   C16   T    
C22   H4    S    
S3    O16   D    
C1    O3    A    
C5    S3    S    
C24   H6    S    
C18   O8    A    
S4    O20   S    
C10   H12   S    
Cu2   O7    S    
C7    H9    S    
C17   O5    A    
C18   C20   S    
C18   O6    A    
S1    O9    D    
C10   C12   A    
C6    S4    S    
C21   C23   A    
Cu2   N2    S    
S1    O10   D    
S4    O18   D    
O14   H16   S    
S2    O14   S    
C9    N1    A    
C7    N1    A    
C2    O4    A    
C5    C7    A    
C6    C8    A    
S2    O13   D    
S3    O17   S    
O11   H15   S    
C6    C14   A    
C1    O1    A    
Cu1   Cu2   S    
C3    C31   S    
C9    C11   A    
C4    C32   S    
C2    O2    A    
C28   S2    S    
C12   C14   A    
C13   C15   S    
C1    C26   S    
C22   C24   A    
C25   C27   A    
S4    O19   D    
C3    C4    T    
C10   N2    A    
C8    N2    A    
Cu1   O4    S    
S1    O11   S    
C29   H7    S    
Cu2   O2    S    
C8    H10   S    
O17   H17   S    
Cu1   O1    S    
C26   C28   A    
S2    O12   D    
C28   C30   A    
C29   C31   A    
C27   S1    S    
C30   C32   A    
C11   C13   A    
C23   H5    S    
C17   C19   S    
C2    C25   S    
C14   C16   S    
C23   C25   A    
S3    O15   D    
C20   H2    S    
C21   H3    S    
Cu2   O3    S    
C30   H8    S    
C19   H1    S    
C17   O7    A    
