data_mof_unit_61782.cif
_audit_creation_date              2012-10-26T19:08:50-0400
_audit_creation_method            fapswitch 2.2
_symmetry_space_group_name_H-M    P1
_symmetry_Int_Tables_number       1
_space_group_crystal_system       triclinic
_cell_length_a                    15.93336
_cell_length_b                    11.731485
_cell_length_c                    10.474805
_cell_angle_alpha                 89.999984
_cell_angle_beta                  90.0
_cell_angle_gamma                 89.999989
_cell_volume                      1957.97122618

loop_
_atom_site_label
_atom_site_type_symbol
_atom_type_description
_atom_site_fract_x
_atom_site_fract_y
_atom_site_fract_z
_atom_type_partial_charge
C1    C     C_R   0.500000 0.283328 0.500000 0.555113
C2    C     C_R   0.339779 0.499974 0.499999 0.553311
C3    C     C_R   0.660221 0.499974 0.499999 0.553311
C4    C     C_1   0.500000 0.059739 0.500000 -0.016205
C5    C     C_1   0.500000 0.161951 0.500000 0.002784
C6    C     C_1   0.500000 0.499987 0.072080 0.114377
C7    C     C_1   0.500000 0.499987 0.927920 0.114233
C8    C     C_R   0.500000 0.716684 0.500000 0.546488
C9    C     C_3   0.049327 0.424868 0.620756 -0.100231
C10   C     C_3   0.049326 0.432437 0.374011 -0.100323
C11   C     C_3   0.950673 0.424869 0.620756 -0.100231
C12   C     C_1   0.749527 0.497390 0.499977 -0.006701
C13   C     C_3   0.950674 0.432436 0.374011 -0.100324
C14   C     C_1   0.500000 0.940277 0.500000 -0.020519
C15   C     C_1   0.500000 0.838064 0.500000 -0.006594
C16   C     C_1   0.912520 0.310530 0.637144 0.221907
C17   C     C_1   0.912522 0.319370 0.348872 0.221269
C18   C     C_1   0.087479 0.310528 0.637141 0.221908
C19   C     C_1   0.087479 0.319372 0.348870 0.221269
C20   C     C_1   0.250473 0.497390 0.499977 -0.006700
C21   C     C_3   0.083046 0.488553 0.499688 0.019836
C22   C     C_3   0.916954 0.488553 0.499688 0.019836
C23   C     C_3   0.951444 0.612283 0.504448 -0.253983
C24   C     C_3   0.048555 0.612283 0.504448 -0.253983
C25   C     C_1   0.824759 0.493999 0.499886 -0.052781
C26   C     C_1   0.175241 0.493999 0.499886 -0.052781
Cu1   Cu    Cu3+1 0.500000 0.500000 0.625300 1.019331
Cu2   Cu    Cu3+1 0.500000 0.500000 0.374700 1.019957
H1    H     H_    0.071704 0.656575 0.591623 0.135741
H2    H     H_    0.071705 0.661814 0.420884 0.136210
H3    H     H_    0.928295 0.656576 0.591622 0.135741
H4    H     H_    0.928296 0.661813 0.420882 0.136209
H5    H     H_    0.070012 0.486863 0.292753 0.097810
H6    H     H_    0.070015 0.474185 0.706005 0.098045
H7    H     H_    0.929986 0.486860 0.292753 0.097810
H8    H     H_    0.929986 0.474187 0.706005 0.098045
N1    N     N_1   0.500000 0.499990 0.186410 -0.185064
N2    N     N_1   0.500000 0.499990 0.813590 -0.185171
N3    N     N_1   0.882638 0.221376 0.650312 -0.248129
N4    N     N_1   0.882639 0.231234 0.328882 -0.247755
N5    N     N_1   0.117361 0.221374 0.650307 -0.248129
N6    N     N_1   0.117362 0.231237 0.328877 -0.247755
O1    O     O_R   0.500000 0.337200 0.605810 -0.485822
O2    O     O_R   0.500000 0.337200 0.394190 -0.485581
O3    O     O_R   0.379430 0.500010 0.605860 -0.489218
O4    O     O_R   0.379430 0.500010 0.394140 -0.488881
O5    O     O_R   0.620570 0.500010 0.605860 -0.489218
O6    O     O_R   0.620570 0.500010 0.394140 -0.488881
O7    O     O_R   0.500000 0.662810 0.605810 -0.489772
O8    O     O_R   0.500000 0.662810 0.394190 -0.489812

loop_
_geom_bond_atom_site_label_1
_geom_bond_atom_site_label_2
_ccdc_geom_bond_type
C21   C26   S    
C10   C13   S    
C6    C7    S    
Cu1   O1    S    
C10   H5    S    
C3    O6    A    
C11   C16   S    
C12   C25   T    
C1    O2    A    
C19   N6    T    
C13   C17   S    
C10   C19   S    
C23   C24   S    
C9    C21   S    
C23   H4    S    
Cu1   O3    S    
C6    N1    T    
C10   C21   S    
C2    O4    A    
C9    C11   S    
Cu2   O4    S    
C16   N3    T    
C20   C26   T    
Cu2   N1    S    
C1    C5    S    
C3    O5    A    
C11   H8    S    
C7    N2    T    
C1    O1    A    
C13   C22   S    
C13   H7    S    
C8    C15   S    
C22   C23   S    
C2    O3    A    
C4    C14   S    
C9    H6    S    
C24   H2    S    
C18   N5    T    
Cu1   N2    S    
C2    C20   S    
C8    O8    A    
C9    C18   S    
C22   C25   S    
C21   C24   S    
Cu1   O5    S    
Cu1   Cu2   S    
C24   H1    S    
Cu2   O6    S    
C3    C12   S    
C11   C22   S    
C14   C15   T    
Cu2   O8    S    
C8    O7    A    
Cu2   O2    S    
Cu1   O7    S    
C4    C5    T    
C17   N4    T    
C23   H3    S    
