data_mof_unit_8476.cif
_audit_creation_date              2012-12-10T18:58:14-0500
_audit_creation_method            fapswitch 2.2
_symmetry_space_group_name_H-M    P1
_symmetry_Int_Tables_number       1
_space_group_crystal_system       triclinic
_cell_length_a                    11.016289
_cell_length_b                    10.884191
_cell_length_c                    9.584075
_cell_angle_alpha                 91.29115
_cell_angle_beta                  102.316931
_cell_angle_gamma                 90.925466
_cell_volume                      1122.16886338

loop_
_atom_site_label
_atom_site_type_symbol
_atom_type_description
_atom_site_fract_x
_atom_site_fract_y
_atom_site_fract_z
_atom_type_partial_charge
C1    C     C_R   0.497248 0.262588 0.497927 0.819103
C2    C     C_R   0.483097 0.129814 0.491928 -0.105245
C3    C     C_R   0.477146 0.061472 0.364551 -0.199603
C4    C     C_R   0.474801 0.932943 0.366010 -0.214207
C5    C     C_R   0.479228 0.870977 0.494874 -0.071341
C6    C     C_R   0.463520 0.940589 0.613827 0.036110
C7    C     C_3   0.528540 0.938381 0.767310 -0.590748
C8    C     C_3   0.536182 0.078164 0.765285 0.344935
C9    C     C_R   0.595476 0.553996 0.098368 0.234554
C10   C     C_R   0.420881 0.424285 0.053521 -0.080402
C11   C     C_R   0.420949 0.423095 0.902858 0.463283
C12   C     C_R   0.262922 0.503921 0.442150 0.846131
C13   C     C_R   0.595480 0.553839 0.951842 0.204388
C14   C     C_3   0.637944 0.683861 0.960820 -0.525261
C15   C     C_3   0.640495 0.683739 0.119620 -0.480691
C16   C     C_R   0.495459 0.737808 0.499783 0.786437
C17   C     C_R   0.737220 0.505276 0.557692 0.861044
C18   C     C_2   0.127765 0.510371 0.408855 -0.341300
C19   C     C_2   0.066898 0.542450 0.510122 -0.167251
C20   C     C_2   0.872194 0.521564 0.588777 -0.382067
C21   C     C_2   0.931840 0.532586 0.481546 -0.156720
C22   C     C_R   0.468459 0.067386 0.612501 0.017215
Cu1   Cu    Cu3+1 0.499990 0.499980 0.640670 0.985014
Cu2   Cu    Cu3+1 0.500010 0.500020 0.359330 0.950946
H1    H     H_    0.881526 0.526929 0.370776 0.183834
H2    H     H_    0.730779 0.696526 0.934493 0.203206
H3    H     H_    0.562364 0.738916 0.902562 0.217806
H4    H     H_    0.735849 0.692176 0.187218 0.193842
H5    H     H_    0.571492 0.745884 0.150212 0.208548
H6    H     H_    0.116773 0.570389 0.616651 0.168364
H7    H     H_    0.923155 0.524342 0.699282 0.150621
H8    H     H_    0.077406 0.485828 0.301205 0.154636
H9    H     H_    0.480933 0.106386 0.265868 0.176879
H10   H     H_    0.475639 0.883190 0.267580 0.155546
H11   H     H_    0.464118 0.906904 0.834640 0.168623
H12   H     H_    0.617871 0.890397 0.781906 0.210479
H13   H     H_    0.478053 0.121018 0.833628 0.151135
N1    N     N_R   0.500780 0.500930 0.148120 -0.227899
N2    N     N_R   0.500790 0.500890 0.852210 -0.217882
O1    O     O_R   0.500000 0.319640 0.618810 -0.507433
O2    O     O_R   0.500010 0.319680 0.381230 -0.587635
O3    O     O_R   0.320680 0.500000 0.575130 -0.575580
O4    O     O_R   0.320690 0.500040 0.337550 -0.575048
O5    O     O_R   0.499990 0.680320 0.618770 -0.584617
O6    O     O_R   0.500000 0.680360 0.381190 -0.592309
O7    O     O_R   0.679310 0.499960 0.662450 -0.571488
O8    O     O_R   0.679320 0.500000 0.424870 -0.579334
O9    O     O_3   0.656676 0.136021 0.790331 -0.580733
C23   C     C_3   0.744619 0.078692 0.722735 0.092675
H14   H     H_    0.790251 0.151384 0.671319 0.147523
H15   H     H_    0.703573 0.012513 0.634845 0.148936
C24   C     C_3   0.844169 0.017633 0.835134 -0.355721
H16   H     H_    0.909689 0.089250 0.893935 0.215473
H17   H     H_    0.800777 0.971073 0.914815 0.231395
C25   C     C_3   0.916038 0.922811 0.767184 -0.936531
H18   H     H_    0.852863 0.845917 0.717206 0.254202
H19   H     H_    0.990916 0.885011 0.850557 0.260573
H20   H     H_    0.958639 0.965396 0.684508 0.265075
C26   C     C_1   0.343492 0.338259 0.108728 0.314466
N3    N     N_1   0.280928 0.269002 0.152605 -0.330430
O10   O     O_3   0.366683 0.325569 0.814657 -0.602355
C27   C     C_3   0.235682 0.326686 0.784868 0.036773
H21   H     H_    0.199935 0.419878 0.759200 0.138308
H22   H     H_    0.198928 0.293318 0.876079 0.143209
C28   C     C_3   0.187872 0.237115 0.658925 -0.271964
H23   H     H_    0.215034 0.270828 0.561252 0.222173
H24   H     H_    0.231053 0.146299 0.683337 0.209758
C29   C     C_3   0.047321 0.219221 0.630394 -0.956128
H25   H     H_    0.019232 0.186222 0.727626 0.257692
H26   H     H_    0.016816 0.150375 0.542095 0.256376
H27   H     H_    0.000775 0.306593 0.599441 0.280634

loop_
_geom_bond_atom_site_label_1
_geom_bond_atom_site_label_2
_ccdc_geom_bond_type
C16   O6    A    
C2    C22   A    
C8    C22   S    
C25   H18   S    
C8    O9    S    
C11   O10   S    
C6    C7    S    
C14   H3    S    
C7    H12   S    
C16   O5    A    
Cu2   N1    S    
O10   C27   S    
C1    O1    A    
C24   C25   S    
C10   N1    A    
Cu1   Cu2   S    
C23   C24   S    
C28   C29   S    
C2    C3    A    
C9    C15   S    
C26   N3    T    
C28   H23   S    
Cu1   O7    S    
C13   C14   S    
C14   H2    S    
C11   N2    A    
Cu2   O2    S    
Cu2   O8    S    
C15   H4    S    
C27   H21   S    
Cu1   O3    S    
C7    H11   S    
C29   H27   S    
Cu1   N2    S    
Cu2   O6    S    
C1    O2    A    
O9    C23   S    
C19   C21   S    
C24   H17   S    
C15   H5    S    
C12   O4    A    
C25   H19   S    
C5    C6    A    
C9    C13   A    
C4    H10   S    
C13   N2    A    
C18   H8    S    
C10   C11   A    
C3    H9    S    
C12   O3    A    
Cu1   O1    S    
C6    C22   A    
C7    C8    S    
C17   C20   S    
C18   C19   D    
C17   O7    A    
C3    C4    A    
C29   H26   S    
C1    C2    S    
C8    H13   S    
C25   H20   S    
C12   C18   S    
C23   H14   S    
Cu2   O4    S    
C21   H1    S    
C14   C15   S    
C9    N1    A    
C5    C16   S    
C27   H22   S    
C27   C28   S    
C23   H15   S    
C20   C21   D    
C29   H25   S    
C19   H6    S    
C10   C26   S    
Cu1   O5    S    
C17   O8    A    
C24   H16   S    
C4    C5    A    
C28   H24   S    
C20   H7    S    
