data_mof_unit_25893.cif
_audit_creation_date              2012-12-10T20:42:44-0500
_audit_creation_method            fapswitch 2.2
_symmetry_space_group_name_H-M    P1
_symmetry_Int_Tables_number       1
_space_group_crystal_system       triclinic
_cell_length_a                    8.911915
_cell_length_b                    10.680393
_cell_length_c                    9.875221
_cell_angle_alpha                 89.950214
_cell_angle_beta                  90.019016
_cell_angle_gamma                 90.081284
_cell_volume                      939.949384769

loop_
_atom_site_label
_atom_site_type_symbol
_atom_type_description
_atom_site_fract_x
_atom_site_fract_y
_atom_site_fract_z
_atom_type_partial_charge
C1    C     C_R   0.505719 0.260039 0.500065 0.949730
C2    C     C_R   0.425235 0.408911 0.928787 0.216725
C3    C     C_3   0.261018 0.382496 0.923269 -0.513454
C4    C     C_R   0.218731 0.499891 0.499972 0.918683
C5    C     C_3   0.261265 0.382085 0.077035 -0.493817
C6    C     C_R   0.505795 0.739977 0.499928 0.950721
C7    C     C_R   0.781290 0.500030 0.500032 0.930713
C8    C     C_1   0.065412 0.499873 0.499983 -0.193729
C9    C     C_1   0.934623 0.499929 0.500033 -0.175892
C10   C     C_R   0.512549 0.063649 0.622493 0.080660
C11   C     C_R   0.530861 0.128750 0.501537 -0.353581
C12   C     C_R   0.579729 0.935395 0.384905 0.524290
C13   C     C_R   0.579727 0.065124 0.384974 0.527994
C14   C     C_R   0.530802 0.871359 0.501352 -0.349552
C15   C     C_R   0.512435 0.936124 0.622365 0.061630
C16   C     C_3   0.389979 0.928607 0.725529 -0.403853
C17   C     C_3   0.390191 0.070591 0.725762 -0.426684
C18   C     C_R   0.425331 0.408843 0.071243 0.278417
C19   C     C_R   0.584785 0.582937 0.071871 -0.086443
C20   C     C_R   0.584659 0.583058 0.927958 -0.126026
F1    F     F_    0.617803 0.126862 0.269629 -0.617540
F2    F     F_    0.617909 0.874071 0.269556 -0.634816
H1    H     H_    0.236312 0.289187 0.878842 0.205550
H2    H     H_    0.195683 0.461226 0.879164 0.228437
H3    H     H_    0.195795 0.460406 0.121630 0.223793
H4    H     H_    0.237386 0.288396 0.121213 0.220416
H5    H     H_    0.284753 0.887302 0.684459 0.194414
H6    H     H_    0.429583 0.887344 0.822552 0.220365
H7    H     H_    0.285051 0.112083 0.684954 0.189687
H8    H     H_    0.430078 0.111307 0.822917 0.219515
H9    H     H_    0.651158 0.651364 0.126024 0.204302
H10   H     H_    0.650664 0.651774 0.873686 0.161032
N1    N     N_R   0.499010 0.499140 0.142800 -0.119252
N2    N     N_R   0.499010 0.499180 0.857150 -0.112558
O1    O     O_R   0.500020 0.316790 0.614690 -0.621854
O2    O     O_R   0.500000 0.316760 0.385350 -0.560958
O3    O     O_R   0.285350 0.500020 0.614650 -0.623855
O4    O     O_R   0.285340 0.499980 0.385310 -0.625274
O5    O     O_R   0.500000 0.683240 0.614650 -0.629034
O6    O     O_R   0.499980 0.683210 0.385310 -0.566179
O7    O     O_R   0.714660 0.500020 0.614690 -0.622962
O8    O     O_R   0.714650 0.499980 0.385350 -0.605041
Zn1   Zn    Zn3+2 0.500010 0.500020 0.653130 0.947632
Zn2   Zn    Zn3+2 0.499990 0.499980 0.346870 1.007647

loop_
_geom_bond_atom_site_label_1
_geom_bond_atom_site_label_2
_ccdc_geom_bond_type
O3    Zn1   S    
C16   H6    S    
C2    C18   A    
C11   C13   A    
C19   H9    S    
C3    H1    S    
C19   C20   A    
C1    C11   S    
C4    C8    S    
C20   N2    A    
O1    Zn1   S    
C2    N2    A    
C16   H5    S    
C2    C3    S    
C13   F1    S    
C4    O3    A    
O4    Zn2   S    
C17   H8    S    
O7    Zn1   S    
C3    H2    S    
O8    Zn2   S    
C5    H3    S    
C12   C14   A    
C10   C15   A    
C7    O7    A    
C20   H10   S    
C18   N1    A    
C6    O6    A    
O2    Zn2   S    
C6    C14   S    
C10   C11   A    
C10   C17   S    
C5    H4    S    
C12   F2    S    
O6    Zn2   S    
C17   H7    S    
C12   C13   A    
C1    O1    A    
C19   N1    A    
C7    O8    A    
C7    C9    S    
C6    O5    A    
C16   C17   S    
O5    Zn1   S    
C5    C18   S    
C14   C15   A    
N1    Zn2   S    
N2    Zn1   S    
C15   C16   S    
C1    O2    A    
C4    O4    A    
C8    C9    T    
C3    C5    S    
