data_mof_unit_20070.cif
_audit_creation_date              2013-03-05T16:15:39-0500
_audit_creation_method            fapswitch 2.2
_symmetry_space_group_name_H-M    P1
_symmetry_Int_Tables_number       1
_space_group_crystal_system       triclinic
_cell_length_a                    24.875876
_cell_length_b                    29.156909
_cell_length_c                    8.567477
_cell_angle_alpha                 90.727314
_cell_angle_beta                  96.36607
_cell_angle_gamma                 89.686518
_cell_volume                      6175.15598627

loop_
_atom_site_label
_atom_site_type_symbol
_atom_site_description
_atom_site_fract_x
_atom_site_fract_y
_atom_site_fract_z
_atom_type_partial_charge
P1    P     P_3+3 0.888690 0.449140 0.046940 0.442732
P2    P     P_3+3 0.888690 0.550860 0.546940 0.439787
P3    P     P_3+3 0.388690 0.949140 0.046940 0.449369
P4    P     P_3+3 0.388690 0.050860 0.546940 0.447501
O1    O     O_2   0.893910 0.433590 0.874460 -0.347239
O2    O     O_2   0.893910 0.566410 0.374460 -0.381864
O3    O     O_2   0.393910 0.933590 0.874460 -0.353445
O4    O     O_2   0.393910 0.066410 0.374460 -0.370251
O5    O     O_3   0.938210 0.476710 0.126870 -0.427732
O6    O     O_3   0.938210 0.523290 0.626870 -0.408151
O7    O     O_3   0.438210 0.976710 0.126870 -0.425082
O8    O     O_3   0.438210 0.023290 0.626870 -0.413188
O9    O     O_3   0.981570 0.392580 0.636990 -0.404065
O10   O     O_3   0.981570 0.607420 0.136990 -0.383122
O11   O     O_3   0.481570 0.892580 0.636990 -0.404116
O12   O     O_3   0.481570 0.107420 0.136990 -0.401009
O13   O     O_2   0.896341 0.355766 0.734473 -0.381382
O14   O     O_2   0.898066 0.646724 0.256239 -0.371765
O15   O     O_2   0.397020 0.855158 0.738589 -0.354820
O16   O     O_2   0.395381 0.143785 0.248889 -0.377002
O17   O     O_3   0.829204 0.482006 0.032237 -0.594058
O18   O     O_3   0.832461 0.514665 0.525509 -0.591871
O19   O     O_3   0.331263 0.984552 0.030286 -0.592509
O20   O     O_3   0.331776 0.015522 0.525586 -0.593276
O21   O     O_3   0.951527 0.296901 0.596197 -0.592397
O22   O     O_3   0.949062 0.701740 0.095683 -0.587887
O23   O     O_3   0.452225 0.797254 0.596443 -0.590336
O24   O     O_3   0.451254 0.202874 0.120424 -0.552877
H1    H     H_    0.023579 0.318725 0.725139 0.114924
H2    H     H_    0.010292 0.685690 0.271806 0.120155
H3    H     H_    0.524991 0.819396 0.720866 0.117343
H4    H     H_    0.523303 0.180562 0.240810 0.108231
C1    C     C_3   0.022855 0.245535 0.684003 -0.346586
C2    C     C_3   0.014859 0.756127 0.197050 -0.465608
C3    C     C_3   0.524638 0.746436 0.676498 -0.356053
C4    C     C_3   0.528126 0.251476 0.175797 -0.494219
H5    H     H_    0.002641 0.238349 0.789600 0.206916
H6    H     H_    0.988944 0.767561 0.287261 0.179238
H7    H     H_    0.505755 0.739127 0.783957 0.182815
H8    H     H_    0.510400 0.264682 0.280717 0.201648
P5    P     P_3+3 0.111080 0.448680 0.642780 0.429871
P6    P     P_3+3 0.111080 0.551320 0.142780 0.439103
P7    P     P_3+3 0.611080 0.948680 0.642780 0.428362
P8    P     P_3+3 0.611080 0.051320 0.142780 0.425832
P9    P     P_3+3 0.069782 0.349543 0.082605 0.400273
P10   P     P_3+3 0.071333 0.648147 0.584264 0.430219
P11   P     P_3+3 0.569548 0.849261 0.081575 0.429311
P12   P     P_3+3 0.572186 0.148256 0.580334 0.442529
O25   O     O_2   0.105800 0.433150 0.815270 -0.363362
O26   O     O_2   0.105800 0.566850 0.315270 -0.348982
O27   O     O_2   0.605800 0.933150 0.815270 -0.328420
O28   O     O_2   0.605800 0.066850 0.315270 -0.361698
O29   O     O_3   0.018000 0.392500 0.052760 -0.392815
O30   O     O_3   0.018000 0.607500 0.552760 -0.369421
O31   O     O_3   0.518000 0.892500 0.052760 -0.379427
O32   O     O_3   0.518000 0.107500 0.552760 -0.353571
O33   O     O_2   0.110202 0.358503 0.961797 -0.389924
O34   O     O_2   0.107072 0.643140 0.448454 -0.406152
O35   O     O_2   0.608951 0.857486 0.957323 -0.390230
O36   O     O_2   0.606941 0.142254 0.442931 -0.401282
O37   O     O_3   0.171018 0.481071 0.675113 -0.579123
O38   O     O_3   0.163379 0.511179 0.182910 -0.573997
O39   O     O_3   0.666885 0.984713 0.689716 -0.590416
O40   O     O_3   0.661858 0.009439 0.176334 -0.578497
O41   O     O_3   0.042951 0.295950 0.023625 -0.608272
O42   O     O_3   0.044489 0.703473 0.556969 -0.592639
O43   O     O_3   0.541430 0.795714 0.025592 -0.584642
O44   O     O_3   0.546481 0.203849 0.547953 -0.586897
C5    C     C_3   0.996912 0.285986 0.099402 0.933957
C6    C     C_3   0.996446 0.708937 0.628612 0.864042
C7    C     C_3   0.493062 0.788422 0.093806 0.902406
C8    C     C_3   0.497721 0.210430 0.614951 0.847456
H9    H     H_    0.989582 0.311159 0.193768 -0.103867
H10   H     H_    0.990868 0.681516 0.715271 -0.061349
H11   H     H_    0.485512 0.815267 0.182896 -0.108078
H12   H     H_    0.491298 0.184190 0.704440 -0.036692
C9    C     C_3   0.004585 0.238606 0.179366 -0.042724
C10   C     C_3   0.999574 0.754926 0.720858 -0.055099
C11   C     C_3   0.497702 0.742039 0.179791 -0.062105
C12   C     C_3   0.500657 0.257276 0.701399 -0.031079
C13   C     C_3   0.184372 0.497610 0.044265 0.393661
C14   C     C_3   0.164607 0.527007 0.629143 0.356867
C15   C     C_3   0.697479 0.010326 0.059778 0.410822
C16   C     C_3   0.669232 0.016926 0.571945 0.362332
H13   H     H_    0.192758 0.460199 0.050609 0.106417
H14   H     H_    0.166394 0.549084 0.735087 0.024910
H15   H     H_    0.706716 0.974307 0.028207 0.116256
H16   H     H_    0.633277 0.039543 0.567796 0.158535
H17   H     H_    0.155475 0.502886 0.939048 0.115538
H18   H     H_    0.126282 0.534283 0.557502 0.163999
H19   H     H_    0.680590 0.026816 0.949267 0.090040
H20   H     H_    0.672601 0.999231 0.458483 0.127616
C17   C     C_3   0.237396 0.522229 0.029778 -1.028441
C18   C     C_3   0.212109 0.540580 0.542353 -0.872655
C19   C     C_3   0.750183 0.033410 0.124280 -1.038804
C20   C     C_3   0.719016 0.046733 0.610314 -0.999182
H21   H     H_    0.266147 0.516460 0.136492 0.266848
H22   H     H_    0.249940 0.540580 0.624467 0.228002
H23   H     H_    0.769050 0.014655 0.228532 0.265708
H24   H     H_    0.716633 0.065622 0.722752 0.245982
H25   H     H_    0.255608 0.508735 0.925791 0.251651
H26   H     H_    0.205505 0.575505 0.493441 0.236506
H27   H     H_    0.778551 0.033262 0.032927 0.239951
H28   H     H_    0.721375 0.071979 0.515319 0.251022
H29   H     H_    0.230348 0.559568 0.015218 0.248853
H30   H     H_    0.217022 0.515755 0.445969 0.278925
H31   H     H_    0.742558 0.069387 0.159280 0.261081
H32   H     H_    0.756106 0.025116 0.620337 0.260782
Ba1   Ba    Ba6+2 0.999910 0.466800 0.844920 1.494386
Ba2   Ba    Ba6+2 0.999910 0.533200 0.344920 1.497252
Ba3   Ba    Ba6+2 0.499910 0.966800 0.844920 1.508804
Ba4   Ba    Ba6+2 0.499910 0.033200 0.344920 1.501991
C21   C     C_3   0.836067 0.523572 0.960669 0.278175
C22   C     C_3   0.842042 0.475110 0.439404 0.398516
C23   C     C_3   0.341602 0.024988 0.954727 0.302099
C24   C     C_3   0.341418 0.974982 0.444891 0.407720
H33   H     H_    0.852250 0.517513 0.846683 0.105144
H34   H     H_    0.866730 0.482537 0.343051 0.098180
H35   H     H_    0.357129 0.016962 0.841088 0.100738
H36   H     H_    0.366469 0.981181 0.348201 0.094245
H37   H     H_    0.863084 0.545413 0.042080 0.094005
H38   H     H_    0.863550 0.449571 0.518733 0.082104
H39   H     H_    0.371589 0.045646 0.031020 0.095984
H40   H     H_    0.362467 0.950073 0.527753 0.077558
C25   C     C_3   0.780778 0.547033 0.927762 -0.439358
C26   C     C_3   0.787115 0.456417 0.366980 -0.438154
C27   C     C_3   0.288459 0.051767 0.920363 -0.477946
C28   C     C_3   0.286604 0.955953 0.373434 -0.431441
H41   H     H_    0.754910 0.526156 0.840554 0.200696
H42   H     H_    0.760280 0.484972 0.320935 0.218404
H43   H     H_    0.255272 0.027763 0.878578 0.214055
H44   H     H_    0.260688 0.983967 0.318767 0.216352
H45   H     H_    0.785304 0.581268 0.876012 0.152548
H46   H     H_    0.793353 0.434417 0.265053 0.127615
H47   H     H_    0.292492 0.076368 0.825224 0.160896
H48   H     H_    0.293385 0.931731 0.277870 0.113294
O45   O     O_3   0.061740 0.523180 0.062830 -0.453743
O46   O     O_3   0.061740 0.476820 0.562830 -0.448972
O47   O     O_3   0.561740 0.023180 0.062830 -0.441306
O48   O     O_3   0.561740 0.976820 0.562830 -0.439564
P13   P     P_3+3 0.925556 0.645287 0.102828 0.459043
P14   P     P_3+3 0.928186 0.353987 0.590585 0.419461
P15   P     P_3+3 0.426846 0.146432 0.103525 0.477380
P16   P     P_3+3 0.428001 0.854023 0.592591 0.433583
C29   C     C_3   0.008252 0.294378 0.629688 0.856767
C30   C     C_3   0.003274 0.705206 0.160413 0.929604
C31   C     C_3   0.509127 0.795311 0.625210 0.877150
C32   C     C_3   0.508069 0.202500 0.139577 0.917415
H49   H     H_    0.006541 0.220273 0.592639 0.170453
H50   H     H_    0.002769 0.777000 0.090950 0.204471
H51   H     H_    0.507455 0.721400 0.585365 0.182958
H52   H     H_    0.514107 0.273797 0.074984 0.202662
H53   H     H_    0.037806 0.242820 0.276611 0.131259
H54   H     H_    0.030155 0.749268 0.823747 0.137662
H55   H     H_    0.532657 0.745777 0.271604 0.147429
H56   H     H_    0.534847 0.254173 0.796261 0.132289
N1    N     N_R   0.239929 0.716532 0.190893 -0.077661
N2    N     N_R   0.237332 0.282320 0.692335 -0.077355
N3    N     N_R   0.744068 0.214992 0.184034 -0.082539
N4    N     N_R   0.737498 0.782717 0.692026 -0.077687
N5    N     N_R   0.777593 0.249388 0.233338 -0.088593
N6    N     N_R   0.771157 0.748805 0.743739 -0.088591
N7    N     N_R   0.272987 0.751280 0.240319 -0.089999
N8    N     N_R   0.271693 0.248735 0.742621 -0.089278
C33   C     C_2   0.906618 0.384174 0.281485 -0.483805
C34   C     C_2   0.892182 0.605293 0.813994 -0.523734
C35   C     C_2   0.405425 0.885261 0.284807 -0.495746
C36   C     C_2   0.399294 0.109099 0.805415 -0.471658
C37   C     C_3   0.881044 0.364930 0.406837 0.214628
C38   C     C_3   0.872854 0.635316 0.928040 0.234175
C39   C     C_3   0.380308 0.864673 0.408820 0.204573
C40   C     C_3   0.377988 0.137776 0.919949 0.214050
C41   C     C_2   0.849418 0.325704 0.350368 -0.254256
C42   C     C_2   0.848671 0.676514 0.860112 -0.278473
C43   C     C_2   0.350154 0.824835 0.349707 -0.271834
C44   C     C_2   0.352955 0.178680 0.853297 -0.277404
C45   C     C_2   0.820176 0.326410 0.197945 -0.030497
C46   C     C_2   0.824351 0.676883 0.701939 -0.033377
C47   C     C_2   0.321546 0.825249 0.196172 -0.028548
C48   C     C_2   0.325465 0.177323 0.698860 -0.020707
C49   C     C_2   0.830770 0.364221 0.097883 0.050843
C50   C     C_2   0.832818 0.637556 0.604690 0.083411
C51   C     C_2   0.330637 0.864072 0.098775 0.031670
C52   C     C_2   0.332995 0.137189 0.604084 0.067886
C53   C     C_1   0.874377 0.394544 0.144863 0.249388
C54   C     C_1   0.869934 0.603192 0.658909 0.238817
C55   C     C_1   0.373605 0.894911 0.146599 0.260987
C56   C     C_1   0.372474 0.104164 0.655882 0.222707
N9    N     N_R   0.745006 0.291771 0.014774 -0.064828
N10   N     N_R   0.770506 0.720800 0.487711 -0.048167
N11   N     N_R   0.256559 0.784955 0.995149 -0.064899
N12   N     N_R   0.268057 0.219426 0.487456 -0.048826
N13   N     N_R   0.223656 0.750468 0.945638 -0.083525
N14   N     N_R   0.233585 0.252782 0.437330 -0.077756
N15   N     N_R   0.711760 0.257569 0.965054 -0.080424
N16   N     N_R   0.736690 0.754450 0.436123 -0.076778
C57   C     C_R   0.214495 0.715165 0.041506 0.141943
C58   C     C_R   0.217145 0.285053 0.538303 0.131947
C59   C     C_R   0.710683 0.218058 0.047225 0.162671
C60   C     C_R   0.719038 0.786179 0.536852 0.126411
C61   C     C_R   0.779445 0.288620 0.148675 0.151227
C62   C     C_R   0.788189 0.716635 0.643033 0.161231
C63   C     C_R   0.282308 0.786538 0.143351 0.162749
C64   C     C_R   0.287706 0.216172 0.641603 0.154416
C65   C     C_R   0.165435 0.636350 0.082734 -0.328359
C66   C     C_R   0.163773 0.361457 0.584822 -0.260969
C67   C     C_R   0.664000 0.138288 0.083584 -0.322466
C68   C     C_R   0.665963 0.862587 0.581889 -0.263377
C69   C     C_R   0.127676 0.602163 0.024794 0.271518
C70   C     C_R   0.122222 0.393041 0.534364 0.316706
C71   C     C_R   0.630408 0.101947 0.020275 0.203286
C72   C     C_R   0.624087 0.893814 0.532061 0.264603
C73   C     C_R   0.113650 0.644116 0.776907 0.240388
C74   C     C_R   0.107784 0.349332 0.284931 0.242400
C75   C     C_R   0.617416 0.144186 0.770423 0.262949
C76   C     C_R   0.608964 0.849696 0.282933 0.243928
C77   C     C_R   0.150113 0.678482 0.834657 -0.296572
C78   C     C_R   0.148521 0.317653 0.335429 -0.275624
C79   C     C_R   0.650089 0.180354 0.834055 -0.309184
C80   C     C_R   0.650206 0.818355 0.333135 -0.277555
C81   C     C_R   0.176607 0.676669 0.982163 0.059746
C82   C     C_R   0.175937 0.321051 0.481821 0.068288
C83   C     C_R   0.674929 0.178878 0.983805 0.064843
C84   C     C_R   0.677991 0.822123 0.479157 0.072102
C85   C     C_R   0.103926 0.605178 0.876467 -0.199535
C86   C     C_R   0.093669 0.385360 0.394685 -0.205557
C87   C     C_R   0.612017 0.103235 0.865113 -0.213828
C88   C     C_R   0.595029 0.885727 0.393104 -0.187556
H57   H     H_    0.844153 0.297663 0.429415 0.174835
H58   H     H_    0.842379 0.705346 0.937527 0.172075
H59   H     H_    0.345885 0.796189 0.427075 0.174842
H60   H     H_    0.348934 0.208430 0.928662 0.171922
H61   H     H_    0.185557 0.633835 0.200952 0.174393
H62   H     H_    0.187917 0.367098 0.696374 0.160532
H63   H     H_    0.680345 0.137656 0.205938 0.174780
H64   H     H_    0.690137 0.868311 0.693345 0.158421
H65   H     H_    0.155716 0.707183 0.759262 0.160434
H66   H     H_    0.156997 0.290022 0.256062 0.144911
H67   H     H_    0.654339 0.209931 0.761360 0.161434
H68   H     H_    0.658573 0.790534 0.254385 0.150543
H69   H     H_    0.949994 0.382993 0.281788 0.148664
H70   H     H_    0.910272 0.574466 0.862423 0.121037
H71   H     H_    0.448854 0.886173 0.287792 0.149544
H72   H     H_    0.420162 0.079447 0.854472 0.126094
N17   N     N_2   0.754885 0.551749 0.070480 -0.059078
H73   H     H_    0.777978 0.568939 0.159681 0.201668
C89   C     C_3   0.699496 0.567762 0.047812 -0.866053
H74   H     H_    0.681326 0.565490 0.159985 0.235643
H75   H     H_    0.675146 0.546024 0.959220 0.253501
H76   H     H_    0.698021 0.603996 0.008759 0.247111
N18   N     N_2   0.760619 0.429305 0.476753 -0.098867
H77   H     H_    0.731846 0.407524 0.421103 0.191502
C90   C     C_3   0.741141 0.454262 0.606308 -0.830366
H78   H     H_    0.714939 0.431746 0.668743 0.224688
H79   H     H_    0.717163 0.484797 0.563804 0.243189
H80   H     H_    0.775917 0.464718 0.691072 0.270643
N19   N     N_2   0.274619 0.076540 0.058107 -0.065160
H81   H     H_    0.305870 0.096186 0.111503 0.206216
C91   C     C_3   0.224721 0.102433 0.032153 -0.857053
H82   H     H_    0.216939 0.120567 0.141919 0.242722
H83   H     H_    0.190279 0.079093 0.996341 0.251641
H84   H     H_    0.227576 0.128479 0.939742 0.244561
N20   N     N_2   0.258694 0.931748 0.487436 -0.096985
H85   H     H_    0.230815 0.908576 0.435501 0.191660
C92   C     C_3   0.237029 0.959802 0.606324 -0.829348
H86   H     H_    0.210967 0.938644 0.673900 0.223104
H87   H     H_    0.212335 0.988491 0.551966 0.244539
H88   H     H_    0.270543 0.973256 0.689809 0.269708
O49   O     O_3   0.033238 0.302526 0.494495 -0.838262
H89   H     H_    0.017044 0.330824 0.447693 0.293952
O50   O     O_3   0.036877 0.689193 0.050724 -0.823273
H90   H     H_    0.071244 0.679901 0.111783 0.303659
O51   O     O_3   0.532739 0.804212 0.488112 -0.843298
H91   H     H_    0.515221 0.832008 0.441283 0.289911
O52   O     O_3   0.527044 0.186868 0.000493 -0.841796
H92   H     H_    0.564963 0.177482 0.029417 0.291417
N21   N     N_2   0.080830 0.239579 0.722604 -0.084317
H93   H     H_    0.101193 0.267024 0.778100 0.227228
C93   C     C_3   0.109414 0.215776 0.607518 -0.827204
H94   H     H_    0.109382 0.236656 0.500246 0.268334
H95   H     H_    0.090311 0.182060 0.576334 0.238627
H96   H     H_    0.151861 0.209426 0.657495 0.236577
N22   N     N_2   0.071080 0.764195 0.256419 -0.087986
H97   H     H_    0.089187 0.739480 0.329787 0.232531
C94   C     C_3   0.105210 0.782532 0.146307 -0.847328
H98   H     H_    0.107829 0.758180 0.046895 0.258565
H99   H     H_    0.146482 0.788506 0.206548 0.244309
H100  H     H_    0.088747 0.815834 0.100629 0.248989
N23   N     N_2   0.582783 0.740565 0.710367 -0.082796
H101  H     H_    0.603512 0.767935 0.765176 0.224550
C95   C     C_3   0.610116 0.717095 0.591821 -0.814667
H102  H     H_    0.652871 0.710550 0.638231 0.236783
H103  H     H_    0.609049 0.738287 0.484975 0.264456
H104  H     H_    0.590722 0.683475 0.560893 0.238369
N24   N     N_2   0.586678 0.252475 0.205039 -0.097642
H105  H     H_    0.602383 0.230894 0.293296 0.227866
C96   C     C_3   0.609836 0.297882 0.220142 -0.838944
H106  H     H_    0.654633 0.295178 0.237415 0.242804
H107  H     H_    0.595956 0.316217 0.323026 0.250752
H108  H     H_    0.598103 0.317737 0.111740 0.250278
N25   N     N_2   0.788821 0.378116 0.980106 -0.120881
H109  H     H_    0.777043 0.411960 0.982206 0.196550
C97   C     C_3   0.788712 0.358691 0.824085 -0.756450
H110  H     H_    0.805607 0.383673 0.746729 0.275706
H111  H     H_    0.746386 0.351683 0.774591 0.217882
H112  H     H_    0.811738 0.325901 0.825540 0.269385
N26   N     N_2   0.796425 0.629615 0.466526 -0.091199
H113  H     H_    0.812749 0.612985 0.376470 0.217055
C98   C     C_3   0.744806 0.610814 0.495775 -0.930054
H114  H     H_    0.750151 0.575384 0.541270 0.263767
H115  H     H_    0.717287 0.609988 0.384807 0.251244
H116  H     H_    0.725616 0.632448 0.582001 0.256099
N27   N     N_2   0.286938 0.878767 0.987995 -0.120471
H117  H     H_    0.274668 0.912276 0.000476 0.186095
C99   C     C_3   0.287874 0.864614 0.826114 -0.754835
H118  H     H_    0.307017 0.891463 0.760936 0.275827
H119  H     H_    0.245712 0.860022 0.770981 0.218102
H120  H     H_    0.309531 0.831499 0.816541 0.266913
N28   N     N_2   0.294070 0.127162 0.473039 -0.091768
H121  H     H_    0.308506 0.108770 0.383481 0.223439
C100  C     C_3   0.243519 0.109060 0.514609 -0.916034
H122  H     H_    0.249687 0.073975 0.562206 0.263693
H123  H     H_    0.213577 0.107191 0.408900 0.248974
H124  H     H_    0.226537 0.131530 0.602849 0.250640
N29   N     N_2   0.064586 0.573255 0.814904 -0.108664
H125  H     H_    0.075203 0.539366 0.803418 0.189564
C101  C     C_3   0.010934 0.584307 0.850783 -0.536368
H126  H     H_    0.983034 0.580985 0.748163 0.230863
H127  H     H_    0.007450 0.620485 0.888433 0.217615
H128  H     H_    0.995124 0.559527 0.928715 0.251001
N30   N     N_2   0.051496 0.414400 0.339439 -0.150011
H129  H     H_    0.020999 0.420669 0.408320 0.198450
C102  C     C_3   0.069162 0.451180 0.249917 -0.477966
H130  H     H_    0.032232 0.465008 0.187620 0.293288
H131  H     H_    0.096171 0.439422 0.162498 0.208982
H132  H     H_    0.092153 0.476779 0.324303 0.237707
N31   N     N_2   0.575584 0.070225 0.797082 -0.105437
H133  H     H_    0.588192 0.036742 0.811004 0.211168
C103  C     C_3   0.522649 0.080202 0.840214 -0.537782
H134  H     H_    0.496434 0.051478 0.814981 0.246650
H135  H     H_    0.505521 0.113435 0.800951 0.196156
H136  H     H_    0.526443 0.086215 0.960924 0.242042
N32   N     N_2   0.552036 0.914141 0.339309 -0.153778
H137  H     H_    0.521988 0.920094 0.409910 0.197021
C104  C     C_3   0.568537 0.951158 0.248813 -0.486457
H138  H     H_    0.531364 0.964535 0.186494 0.295415
H139  H     H_    0.595848 0.939808 0.161530 0.222948
H140  H     H_    0.590481 0.977276 0.322620 0.223811
O53   O     O_3   0.951820 0.285437 0.986080 -0.767619
H141  H     H_    0.939271 0.317684 0.975050 0.339410
O54   O     O_3   0.952751 0.709235 0.510146 -0.760518
H142  H     H_    0.921804 0.694560 0.553275 0.300017
O55   O     O_3   0.449958 0.787432 0.973314 -0.749215
H143  H     H_    0.419458 0.804854 0.011112 0.307715
O56   O     O_3   0.454904 0.210052 0.493602 -0.745830
H144  H     H_    0.426374 0.189806 0.526389 0.308156
N33   N     N_2   0.956822 0.224880 0.252209 -0.130594
H145  H     H_    0.950882 0.243450 0.351890 0.203429
C105  C     C_3   0.906611 0.214912 0.155033 -0.805790
H146  H     H_    0.883507 0.247002 0.128925 0.268566
H147  H     H_    0.881598 0.192075 0.220049 0.234685
H148  H     H_    0.913567 0.197600 0.043030 0.255906
N34   N     N_2   0.948475 0.766575 0.781470 -0.111355
H149  H     H_    0.932432 0.740050 0.839025 0.201523
C106  C     C_3   0.907752 0.793213 0.687439 -0.873941
H150  H     H_    0.871714 0.797499 0.752016 0.246893
H151  H     H_    0.894935 0.775829 0.573724 0.270622
H152  H     H_    0.923020 0.828032 0.666840 0.254576
N35   N     N_2   0.450113 0.732655 0.259974 -0.110472
H153  H     H_    0.439898 0.759150 0.331603 0.203881
C107  C     C_3   0.403395 0.710223 0.176418 -0.868373
H154  H     H_    0.371844 0.706215 0.257147 0.247969
H155  H     H_    0.414004 0.675297 0.136908 0.255314
H156  H     H_    0.386152 0.730747 0.074825 0.263702
N36   N     N_2   0.451923 0.267075 0.776951 -0.115289
H157  H     H_    0.441886 0.241452 0.849880 0.203099
C108  C     C_3   0.405303 0.288128 0.688707 -0.863618
H158  H     H_    0.372801 0.292849 0.766422 0.245158
H159  H     H_    0.389482 0.266265 0.587460 0.270025
H160  H     H_    0.415440 0.322620 0.647797 0.254938
N37   N     N_2   0.020521 0.203028 0.071686 -0.083984
H161  H     H_    0.999233 0.172791 0.071710 0.199723
C109  C     C_3   0.078094 0.194085 0.077002 -0.899235
H162  H     H_    0.085732 0.170468 0.979097 0.258771
H163  H     H_    0.093268 0.177752 0.190011 0.237390
H164  H     H_    0.100852 0.226192 0.064606 0.278095
N38   N     N_2   0.018730 0.791728 0.627996 -0.067781
H165  H     H_    0.993420 0.800945 0.530019 0.211307
C110  C     C_3   0.044578 0.829871 0.715590 -0.884534
H166  H     H_    0.058628 0.855017 0.632874 0.244848
H167  H     H_    0.080369 0.817673 0.793304 0.250115
H168  H     H_    0.015757 0.847164 0.787450 0.253300
N39   N     N_2   0.509730 0.704621 0.074735 -0.076087
H169  H     H_    0.479932 0.697176 0.984737 0.210681
C111  C     C_3   0.535389 0.664610 0.149060 -0.880151
H170  H     H_    0.545017 0.639496 0.057585 0.244951
H171  H     H_    0.508037 0.648189 0.225657 0.254499
H172  H     H_    0.573809 0.674344 0.220171 0.250197
N40   N     N_2   0.513165 0.293950 0.597552 -0.074234
H173  H     H_    0.484519 0.300080 0.503669 0.213013
C112  C     C_3   0.536551 0.334932 0.673496 -0.901655
H174  H     H_    0.547162 0.359209 0.583029 0.240623
H175  H     H_    0.574127 0.326286 0.750204 0.252829
H176  H     H_    0.507290 0.351849 0.744794 0.258968

loop_
_geom_bond_atom_site_label_1
_geom_bond_atom_site_label_2
_geom_bond_distance
_ccdc_geom_bond_type
C88   N32   1.390423 S    
N33   H145  1.029425 S    
C14   C18   1.520927 S    
C70   C86   1.339100 D    
C95   H102  1.109775 S    
P5    O37   1.763216 S    
N31   H133  1.028081 S    
P7    O39   1.753292 S    
C97   H111  1.109636 S    
C102  H130  1.088142 S    
P8    O40   1.755239 S    
N7    C63   1.366657 A    
O37   C14   1.404126 S    
C11   N35   1.461804 S    
C19   H23   1.110708 S    
C102  H132  1.096403 S    
O50   H90   0.989850 S    
C44   H60   1.085580 S    
O26   Ba2   2.854585 S    
N40   C112  1.446894 S    
C79   H67   1.082569 S    
C108  H160  1.108675 S    
N8    C64   1.364030 A    
N29   C101  1.436450 S    
C4    C32   1.531854 S    
C6    H10   1.117530 S    
N3    N5    1.341632 A    
C78   C82   1.362301 D    
P4    O8    1.564821 S    
C68   H64   1.082130 S    
H3    C31   1.112304 S    
C20   H32   1.110558 S    
N17   H73   1.030199 S    
P6    O45   1.568161 S    
N11   C63   1.357600 A    
P5    O25   1.570628 D    
C33   C37   1.429554 A    
C23   H39   1.110520 S    
Ba3   O47   2.804712 S    
Ba2   O46   2.822571 S    
C17   H25   1.110140 S    
C35   C39   1.430770 A    
N25   H109  1.028331 S    
O13   P14   1.537668 D    
C8    O56   1.403464 S    
C97   H110  1.106257 S    
O44   C8    1.409488 S    
P9    O33   1.546306 D    
P11   C76   1.887354 S    
N12   C64   1.360723 A    
O9    P14   1.753753 S    
C104  H140  1.092480 S    
P5    O46   1.570231 S    
C46   C50   1.437132 A    
P6    C69   1.878047 S    
P8    Ba4   3.468053 S    
O38   C13   1.401274 S    
P8    O47   1.568161 S    
C20   H28   1.110812 S    
N37   H161  1.030947 S    
C33   H69   1.079082 S    
C78   H66   1.082542 S    
C109  H162  1.110428 S    
C38   C42   1.440731 A    
C89   H76   1.111423 S    
O29   Ba1   2.824169 S    
O5    Ba2   2.805747 S    
N20   C92   1.446628 S    
C49   C53   1.423018 A    
O31   Ba3   2.824171 S    
O7    Ba4   2.805747 S    
C34   C54   1.382276 A    
C4    H52   1.111825 S    
C16   H16   1.105962 S    
C91   H83   1.110894 S    
P3    C55   1.865936 S    
N36   H157  1.029247 S    
P1    C53   1.863057 S    
C15   H19   1.106894 S    
N39   H169  1.030481 S    
O39   C16   1.393331 S    
H2    C30   1.113913 S    
P4    C56   1.867921 S    
O4    Ba4   2.840494 S    
C94   H99   1.110367 S    
C1    H49   1.112712 S    
C106  H150  1.110130 S    
C2    C30   1.535801 S    
O42   C6    1.410164 S    
N2    C58   1.362102 A    
C93   H95   1.110787 S    
C27   H43   1.110823 S    
P3    O7    1.562815 S    
C11   H55   1.110813 S    
C25   H41   1.108584 S    
C86   N30   1.389929 S    
C18   H26   1.110546 S    
C107  H155  1.108746 S    
C100  H122  1.109616 S    
C105  H146  1.107560 S    
C26   H42   1.112788 S    
C80   H68   1.082559 S    
N19   C91   1.446682 S    
C48   C52   1.439093 A    
N4    N6    1.339711 A    
C89   H75   1.111188 S    
C10   N38   1.456952 S    
N28   C100  1.448464 S    
C67   C83   1.511980 S    
O53   H141  0.991411 S    
Ba4   O48   2.822571 S    
C5    C9    1.551246 S    
O54   H142  0.991447 S    
C7    C11   1.545866 S    
C112  H174  1.110317 S    
C67   H63   1.081847 S    
N24   C96   1.445265 S    
C36   H72   1.072167 S    
P16   C39   1.891302 S    
C76   C88   1.469064 S    
N6    C62   1.363782 A    
C95   H103  1.108718 S    
P15   C40   1.893125 S    
C57   C81   1.515725 S    
C90   H78   1.110340 S    
C22   C26   1.536411 S    
N27   C99   1.444599 S    
O28   Ba4   2.854585 S    
N40   H173  1.030467 S    
O30   Ba2   2.793101 S    
O6    Ba1   2.823675 S    
N19   H81   1.030080 S    
C87   N31   1.402028 S    
C28   N20   1.451648 S    
O22   C30   1.403790 S    
O9    Ba1   2.792376 S    
C9    H53   1.112657 S    
C110  H168  1.110549 S    
C41   C45   1.422945 A    
P6    O38   1.753545 S    
N1    C57   1.363595 A    
P8    O28   1.559359 D    
C6    O54   1.402540 S    
P12   C75   1.878667 S    
P9    O29   1.791872 S    
P5    Ba1   3.456722 S    
N21   H93   1.031672 S    
P10   O34   1.545699 D    
C100  H124  1.111064 S    
C67   C71   1.417679 A    
C96   H107  1.111527 S    
P7    Ba3   3.456722 S    
C68   C72   1.413217 A    
C19   H27   1.110385 S    
N15   C59   1.359620 A    
C98   H115  1.108299 S    
C85   N29   1.408980 S    
O17   C21   1.385006 S    
C74   C78   1.403543 A    
C106  H152  1.108930 S    
C101  H127  1.104885 S    
N10   C62   1.361157 A    
P11   O35   1.546583 D    
C24   H36   1.107578 S    
Ba1   O46   3.023097 S    
N12   N14   1.336181 A    
O2    Ba2   2.840494 S    
P2    O18   1.748770 S    
C92   H87   1.111220 S    
C66   C70   1.415581 A    
C9    N33   1.461957 S    
N34   H149  1.028241 S    
C107  H156  1.107844 S    
N23   H101  1.031773 S    
P7    O48   1.570231 S    
C42   H58   1.085614 S    
C26   H46   1.101288 S    
C31   O51   1.398006 S    
C1    C29   1.533069 S    
P6    O26   1.559359 D    
C21   H33   1.108609 S    
P5    C70   1.893464 S    
C47   C63   1.527264 S    
O20   C24   1.394865 S    
C23   H35   1.108355 S    
N32   C104  1.425181 S    
P9    O41   1.749025 S    
C45   C61   1.524581 S    
C77   H65   1.082570 S    
C112  H176  1.110513 S    
N37   C109  1.450161 S    
O10   Ba2   2.823384 S    
C99   H120  1.109618 S    
O14   P13   1.547410 D    
C76   C80   1.405141 A    
N38   C110  1.446770 S    
C90   H80   1.107551 S    
C34   C38   1.424784 A    
C68   C84   1.511412 S    
C35   H71   1.078267 S    
C66   H62   1.082119 S    
P8    C71   1.915902 S    
N21   C93   1.446438 S    
P6    Ba2   3.468053 S    
C109  H164  1.108977 S    
C8    C12   1.543662 S    
N14   C58   1.361823 A    
C66   C82   1.512350 S    
C45   C49   1.448144 A    
C20   H24   1.110686 S    
N3    C59   1.362913 A    
C105  H148  1.108645 S    
C75   C87   1.467072 S    
C108  H159  1.107552 S    
C73   C85   1.465738 S    
O18   C22   1.394829 S    
C103  H136  1.040727 S    
C21   H37   1.110464 S    
N22   H97   1.030740 S    
C37   C41   1.439620 A    
C16   H20   1.105916 S    
C2    N22   1.453552 S    
C13   H13   1.110335 S    
C40   C44   1.437522 A    
N35   C107  1.450091 S    
C15   H15   1.110328 S    
O15   P16   1.540146 D    
C36   C56   1.383440 A    
C17   H21   1.110538 S    
C25   N17   1.448534 S    
O52   H92   0.986467 S    
C12   N40   1.456361 S    
O55   H143  0.992287 S    
C2    H50   1.112905 S    
N20   H85   1.031748 S    
C69   C85   1.344408 D    
P1    O1    1.559160 D    
O25   Ba1   2.842436 S    
C30   O50   1.399527 S    
C27   H47   1.105767 S    
P10   O42   1.750989 S    
P3    O3    1.559160 D    
C28   H48   1.101001 S    
H1    C29   1.112268 S    
P4    O20   1.747360 S    
C111  H172  1.111121 S    
N22   C94   1.446397 S    
C18   H22   1.110746 S    
C107  H154  1.109730 S    
C9    N37   1.461728 S    
C50   N26   1.425511 S    
C50   C54   1.406686 A    
P1    Ba1   3.466347 S    
Ba3   Ba4   4.723255 S    
P3    Ba3   3.466347 S    
C93   H94   1.108757 S    
C27   N19   1.448686 S    
C5    H9    1.114322 S    
C104  H139  1.110940 S    
O22   P13   1.753850 S    
C42   C46   1.421628 A    
N16   C60   1.361145 A    
C13   H17   1.100730 S    
C102  H131  1.110135 S    
C3    N23   1.452960 S    
C99   H118  1.107065 S    
N33   C105  1.450840 S    
O49   H89   0.986301 S    
P10   C73   1.861244 S    
C77   C81   1.360456 D    
O16   P15   1.545615 D    
P2    C54   1.876277 S    
C3    H51   1.113605 S    
N31   C103  1.433924 S    
Ba3   O48   3.023097 S    
C97   H112  1.111323 S    
N25   C97   1.444841 S    
O24   C32   1.404618 S    
N26   H113  1.026214 S    
O12   P15   1.770290 S    
P1    O5    1.562815 S    
N18   H77   1.031768 S    
N24   H105  1.031603 S    
C10   H54   1.112007 S    
N2    N8    1.339763 A    
N30   C102  1.425557 S    
C14   H14   1.103041 S    
C1    H5    1.105486 S    
C3    H7    1.102566 S    
N30   H129  1.025788 S    
N11   N13   1.334990 A    
O40   C15   1.407177 S    
C94   H98   1.109159 S    
C75   C79   1.402287 A    
N9    N15   1.334156 A    
C103  H134  1.069360 S    
P10   O30   1.779675 S    
P9    C74   1.880238 S    
O24   P15   1.755923 S    
P12   O44   1.753284 S    
P7    C72   1.894075 S    
C19   H31   1.108476 S    
P14   C37   1.885352 S    
N17   C89   1.445734 S    
C34   H70   1.070580 S    
C59   C83   1.509786 S    
O12   Ba4   2.823384 S    
P2    Ba2   3.455302 S    
C24   H40   1.110005 S    
C58   C82   1.509202 S    
Ba2   O45   3.015535 S    
C48   C64   1.518646 S    
C111  H170  1.110336 S    
H4    C32   1.115145 S    
C14   H18   1.096341 S    
C101  H126  1.061749 S    
Ba1   Ba2   4.723255 S    
O21   P14   1.759297 S    
P7    O27   1.570628 D    
N27   H117  1.029793 S    
O1    Ba1   2.852498 S    
O41   C5    1.410953 S    
P13   C38   1.898277 S    
O3    Ba3   2.852498 S    
O43   C7    1.412921 S    
N29   H125  1.027730 S    
C12   N36   1.461439 S    
C79   C83   1.361996 D    
N28   H121  1.026553 S    
C72   C88   1.341375 D    
C36   C40   1.425692 A    
C110  H167  1.110671 S    
C26   N18   1.451164 S    
N32   H137  1.025116 S    
P1    O17   1.752161 S    
C6    C10   1.545723 S    
C96   H106  1.110264 S    
P3    O19   1.752020 S    
P4    O4    1.570440 D    
C91   H84   1.112165 S    
N4    C60   1.362352 A    
C1    N21   1.453393 S    
C98   H114  1.110839 S    
N39   C111  1.447206 S    
N5    C61   1.365933 A    
C11   N39   1.456421 S    
C94   H100  1.110590 S    
C51   C55   1.422284 A    
C106  H151  1.108183 S    
N18   C90   1.446091 S    
C21   C25   1.532183 S    
C23   C27   1.533684 S    
C29   O49   1.397354 S    
C16   C20   1.520290 S    
C93   H96   1.110026 S    
C17   H29   1.108173 S    
C4    N24   1.450694 S    
O56   H144  0.992014 S    
C5    O53   1.399780 S    
C100  H123  1.107949 S    
C92   H86   1.110306 S    
N1    N7    1.342768 A    
N10   N16   1.336080 A    
P4    Ba4   3.455302 S    
O10   P13   1.774024 S    
C71   C87   1.357963 D    
N34   C106  1.450786 S    
Ba4   O47   3.015535 S    
P2    O2    1.570440 D    
C28   H44   1.113173 S    
P11   O43   1.753679 S    
C112  H175  1.111125 S    
P12   O36   1.543587 D    
C47   C51   1.448244 A    
N36   C108  1.450131 S    
C99   H119  1.109552 S    
C43   H59   1.085764 S    
C60   C84   1.508235 S    
O11   Ba3   2.792376 S    
C4    H8    1.108133 S    
C95   H104  1.110900 S    
C90   H79   1.111444 S    
C73   C77   1.403344 A    
C43   C47   1.424648 A    
N9    C61   1.357320 A    
C39   C43   1.441766 A    
C33   C53   1.379452 A    
C52   C56   1.411539 A    
N26   C98   1.447303 S    
C109  H163  1.111473 S    
C13   C17   1.522938 S    
C44   C48   1.420638 A    
C65   C69   1.420060 A    
C35   C55   1.380569 A    
O51   H91   0.986566 S    
C32   O52   1.399667 S    
C49   N25   1.429516 S    
C8    H12   1.114495 S    
C105  H147  1.109771 S    
C3    C31   1.531320 S    
C15   C19   1.522091 S    
C7    O55   1.403680 S    
C108  H158  1.109864 S    
C22   H34   1.106316 S    
C41   H57   1.085876 S    
C103  H135  1.097990 S    
C46   C62   1.519898 S    
C96   H108  1.111112 S    
C91   H82   1.108177 S    
P2    O6    1.564821 S    
C80   C84   1.364001 D    
C12   H56   1.113477 S    
P11   O31   1.792934 S    
N35   H153  1.028765 S    
C98   H116  1.111102 S    
C25   H45   1.108698 S    
P12   O32   1.795710 S    
C18   H30   1.107690 S    
O27   Ba3   2.842436 S    
C2    H6    1.107101 S    
C101  H128  1.093650 S    
C89   H74   1.109309 S    
O23   P16   1.757835 S    
Ba1   O45   2.804712 S    
C65   H61   1.082047 S    
C52   N28   1.427340 S    
C7    H11   1.116029 S    
C111  H171  1.110586 S    
C110  H166  1.110330 S    
N13   C57   1.360728 A    
C65   C81   1.511308 S    
N23   C95   1.446567 S    
C51   N27   1.429151 S    
C74   C86   1.468002 S    
C92   H88   1.106661 S    
O19   C23   1.390987 S    
O11   P16   1.754259 S    
C22   H38   1.109290 S    
O23   C31   1.410564 S    
C24   C28   1.535080 S    
O21   C29   1.410129 S    
C104  H138  1.088172 S    
O32   Ba4   2.793101 S    
O8    Ba3   2.823675 S    
N38   H165  1.029525 S    
C10   N34   1.462185 S    
