data_mof_unit_19074.cif
_audit_creation_date              2012-10-26T18:51:18-0400
_audit_creation_method            fapswitch 2.2
_symmetry_space_group_name_H-M    P1
_symmetry_Int_Tables_number       1
_space_group_crystal_system       triclinic
_cell_length_a                    15.019654
_cell_length_b                    13.683721
_cell_length_c                    23.556712
_cell_angle_alpha                 89.806697
_cell_angle_beta                  89.324294
_cell_angle_gamma                 91.068491
_cell_volume                      4840.27772342

loop_
_atom_site_label
_atom_site_type_symbol
_atom_type_description
_atom_site_fract_x
_atom_site_fract_y
_atom_site_fract_z
_atom_type_partial_charge
C1    C     C_R   0.328799 0.498930 0.502942 0.546485
C2    C     C_R   0.544105 0.422280 0.703920 -0.033325
C3    C     C_R   0.451966 0.435345 0.236965 -0.047057
C4    C     C_R   0.543068 0.428583 0.763381 -0.053177
C5    C     C_R   0.502940 0.508292 0.209425 0.229458
C6    C     C_R   0.509469 0.510637 0.791011 0.230751
C7    C     C_R   0.815469 0.483228 0.443987 -0.008860
C8    C     C_R   0.183850 0.501567 0.558183 -0.004147
C9    C     C_R   0.767300 0.504177 0.494438 0.004678
C10   C     C_R   0.231862 0.495358 0.506026 0.013220
C11   C     C_R   0.810578 0.527622 0.544361 -0.147768
C12   C     C_R   0.670969 0.500988 0.497392 0.534524
C13   C     C_R   0.188616 0.486608 0.454727 -0.149479
C14   C     C_R   0.902044 0.519879 0.547510 -0.008591
C15   C     C_R   0.096824 0.489990 0.452389 -0.009782
C16   C     C_R   0.496406 0.499980 0.391039 0.536023
C17   C     C_R   0.503506 0.499789 0.609108 0.531759
C18   C     C_R   0.952798 0.504414 0.498137 0.027003
C19   C     C_R   0.046099 0.497605 0.502696 0.025305
C20   C     C_R   0.910158 0.497748 0.444362 0.037517
C21   C     C_R   0.088093 0.497281 0.557177 0.032680
C22   C     C_R   0.941661 0.521024 0.600394 -0.112673
C23   C     C_R   0.549799 0.577426 0.241454 -0.066751
C24   C     C_R   0.056376 0.492167 0.399416 -0.116078
C25   C     C_R   0.030846 0.496384 0.606645 0.015624
C26   C     C_R   0.964423 0.503957 0.394333 0.015088
C27   C     C_R   0.444400 0.791955 0.536296 0.041849
C28   C     C_R   0.555992 0.208121 0.463934 0.028780
C29   C     C_R   0.555907 0.794624 0.463888 0.041012
C30   C     C_R   0.444420 0.205434 0.536309 0.026477
C31   C     C_R   0.557428 0.897781 0.463124 -0.014768
C32   C     C_R   0.443280 0.102324 0.537293 -0.016734
C33   C     C_R   0.443231 0.895028 0.537257 -0.014952
C34   C     C_R   0.475549 0.587469 0.759204 -0.067749
C35   C     C_R   0.557516 0.105088 0.463178 -0.018546
C36   C     C_R   0.500368 0.948218 0.500214 0.053576
C37   C     C_R   0.500408 0.051896 0.500240 0.053689
C38   C     C_R   0.614378 0.951469 0.426333 -0.142155
C39   C     C_R   0.386563 0.048672 0.574222 -0.144789
C40   C     C_R   0.386534 0.945947 0.574203 -0.143318
C41   C     C_R   0.614449 0.054204 0.426376 -0.145128
C42   C     C_R   0.589322 0.513960 0.879786 0.389057
C43   C     C_R   0.425735 0.526449 0.120484 0.388058
C44   C     C_R   0.430740 0.519819 0.880690 0.391988
C45   C     C_R   0.546619 0.573001 0.300434 -0.166031
C46   C     C_R   0.582953 0.505317 0.119776 0.392666
C47   C     C_R   0.428804 0.522715 0.940075 0.009965
C48   C     C_R   0.585570 0.509162 0.060353 0.009990
C49   C     C_R   0.508934 0.517712 0.970164 -0.044227
C50   C     C_R   0.505766 0.517506 0.030213 -0.044066
C51   C     C_R   0.591730 0.512465 0.940181 0.026888
C52   C     C_R   0.423154 0.525024 0.060156 0.027660
C53   C     C_R   0.347472 0.529013 0.969244 -0.103580
C54   C     C_R   0.666958 0.503489 0.031183 -0.103557
C55   C     C_R   0.342171 0.530175 0.028808 0.000575
C56   C     C_R   0.474170 0.582054 0.700315 -0.167373
C57   C     C_R   0.672547 0.505469 0.971590 0.000062
C58   C     C_3   0.054127 0.459203 0.665611 -0.284398
C59   C     C_3   0.993565 0.373616 0.685015 -0.440675
C60   C     C_3   0.928201 0.537202 0.337400 -0.276942
C61   C     C_3   0.992271 0.601767 0.301860 -0.442325
C62   C     C_3   0.250842 0.534720 0.058301 -0.245357
C63   C     C_3   0.168656 0.532778 0.020374 -0.475457
C64   C     C_3   0.763741 0.498771 0.942135 -0.244793
C65   C     C_3   0.845164 0.488789 0.980154 -0.475405
C66   C     C_3   0.377523 0.359315 0.322210 -0.261407
C67   C     C_R   0.494801 0.500867 0.328627 0.010158
C68   C     C_3   0.281911 0.379441 0.303367 -0.307730
C69   C     C_3   0.215496 0.306800 0.330381 -0.460547
C70   C     C_3   0.587410 0.333730 0.677348 -0.242085
C71   C     C_3   0.676084 0.361648 0.647890 -0.273982
C72   C     C_3   0.714690 0.275296 0.615749 -0.435546
C73   C     C_3   0.767172 0.431370 0.395214 -0.272372
C74   C     C_3   0.800518 0.327467 0.387209 -0.436774
C75   C     C_3   0.236914 0.525380 0.611241 -0.282272
C76   C     C_3   0.283033 0.434838 0.634736 -0.440937
C77   C     C_R   0.507510 0.500089 0.671766 0.003486
C78   C     C_R   0.443747 0.432734 0.296360 -0.026832
Cu1   Cu    Cu3+1 0.500000 0.597420 0.500000 0.929234
Cu2   Cu    Cu3+1 0.500000 0.402580 0.500000 0.893033
H1    H     H_    0.287625 0.533058 0.944553 0.170546
H2    H     H_    0.658959 0.093841 0.397599 0.103454
H3    H     H_    0.588854 0.634665 0.220591 0.136853
H4    H     H_    0.449844 0.651474 0.780239 0.135906
H5    H     H_    0.585253 0.626148 0.324234 0.115391
H6    H     H_    0.446086 0.642252 0.676983 0.122471
H7    H     H_    0.416349 0.382022 0.211522 0.123896
H8    H     H_    0.569570 0.369967 0.788787 0.124513
H9    H     H_    0.771827 0.543127 0.582359 0.099830
H10   H     H_    0.227739 0.482543 0.415831 0.102900
H11   H     H_    0.900033 0.530326 0.637871 0.114987
H12   H     H_    0.726619 0.497675 0.055913 0.170116
H13   H     H_    0.098111 0.489925 0.361705 0.115891
H14   H     H_    0.924605 0.397609 0.693732 0.146672
H15   H     H_    0.992309 0.315526 0.652169 0.157920
H16   H     H_    0.019429 0.342055 0.724940 0.143094
H17   H     H_    0.120688 0.429801 0.667770 0.164886
H18   H     H_    0.049246 0.519813 0.696711 0.144361
H19   H     H_    0.022179 0.660512 0.328372 0.161942
H20   H     H_    0.045568 0.557598 0.282184 0.145980
H21   H     H_    0.955174 0.636441 0.266846 0.146101
H22   H     H_    0.908610 0.472530 0.311750 0.151333
H23   H     H_    0.400932 0.749938 0.564531 0.113831
H24   H     H_    0.869806 0.583981 0.345384 0.148403
H25   H     H_    0.168263 0.598245 0.992374 0.154445
H26   H     H_    0.166321 0.464896 0.994656 0.156142
H27   H     H_    0.107614 0.533895 0.047428 0.145365
H28   H     H_    0.243311 0.470825 0.087324 0.187974
H29   H     H_    0.247874 0.603313 0.083297 0.198118
H30   H     H_    0.852900 0.553736 0.007955 0.153717
H31   H     H_    0.839735 0.420929 0.006078 0.156240
H32   H     H_    0.906057 0.484127 0.953156 0.146240
H33   H     H_    0.763002 0.433841 0.913926 0.190871
H34   H     H_    0.599481 0.250167 0.435730 0.124426
H35   H     H_    0.775435 0.565965 0.916295 0.197423
H36   H     H_    0.231017 0.231159 0.317051 0.159604
H37   H     H_    0.217683 0.311261 0.377404 0.160716
H38   H     H_    0.147092 0.323780 0.316487 0.144104
H39   H     H_    0.263660 0.454831 0.315757 0.166282
H40   H     H_    0.276567 0.373531 0.256518 0.179107
H41   H     H_    0.396493 0.284615 0.308837 0.141495
H42   H     H_    0.377070 0.360222 0.369055 0.187917
H43   H     H_    0.727043 0.213833 0.645368 0.145436
H44   H     H_    0.668065 0.250359 0.582270 0.179068
H45   H     H_    0.599361 0.754657 0.435675 0.117797
H46   H     H_    0.778788 0.297963 0.595212 0.146322
H47   H     H_    0.666909 0.422272 0.617405 0.181856
H48   H     H_    0.724658 0.386918 0.680194 0.155944
H49   H     H_    0.601610 0.278106 0.710415 0.123756
H50   H     H_    0.540880 0.296483 0.647924 0.170601
H51   H     H_    0.872033 0.327870 0.374897 0.157579
H52   H     H_    0.791108 0.285001 0.427190 0.153326
H53   H     H_    0.762026 0.290581 0.353205 0.134552
H54   H     H_    0.694570 0.424533 0.402897 0.163795
H55   H     H_    0.770457 0.471951 0.354835 0.128014
H56   H     H_    0.400952 0.245409 0.564503 0.114882
H57   H     H_    0.239361 0.368627 0.634378 0.138433
H58   H     H_    0.341160 0.416867 0.608297 0.181276
H59   H     H_    0.305690 0.449018 0.678685 0.153715
H60   H     H_    0.288588 0.582269 0.601379 0.147832
H61   H     H_    0.195877 0.561086 0.644192 0.137728
H62   H     H_    0.658826 0.914029 0.397510 0.104692
H63   H     H_    0.342174 0.086130 0.603077 0.104115
H64   H     H_    0.342127 0.906348 0.603051 0.103855
N1    N     N_R   0.509877 0.515525 0.851985 -0.388558
N2    N     N_R   0.504110 0.513856 0.148416 -0.388477
N3    N     N_R   0.500000 0.743810 0.500000 -0.234944
N4    N     N_R   0.500000 0.256190 0.500000 -0.240548
O1    O     O_R   0.370260 0.582280 0.500010 -0.499540
O2    O     O_2   0.351505 0.541554 0.151640 -0.544150
O3    O     O_2   0.353765 0.520021 0.851622 -0.524215
O4    O     O_2   0.658715 0.492051 0.148898 -0.523374
O5    O     O_R   0.629740 0.417720 0.499990 -0.508589
O6    O     O_R   0.629740 0.582280 0.499990 -0.497313
O7    O     O_R   0.370260 0.417720 0.500010 -0.506857
O8    O     O_R   0.499980 0.582290 0.417880 -0.497505
O9    O     O_R   0.500020 0.417710 0.582120 -0.518284
O10   O     O_R   0.500020 0.582290 0.582120 -0.503782
O11   O     O_R   0.499980 0.417710 0.417880 -0.517144
O12   O     O_2   0.664913 0.514726 0.848440 -0.540575

loop_
_geom_bond_atom_site_label_1
_geom_bond_atom_site_label_2
_ccdc_geom_bond_type
C66   C68   S    
C55   C62   S    
C69   H36   S    
C34   C56   A    
C23   C45   A    
C29   H45   S    
C13   H10   S    
C73   C74   S    
C14   C18   A    
C46   O4    S    
C58   H18   S    
C12   O5    A    
Cu1   O10   S    
C54   H12   S    
Cu2   O5    S    
C7    C73   S    
C76   H57   S    
C27   C33   A    
C48   C54   A    
C58   H17   S    
C59   H15   S    
C57   C64   S    
C36   C37   A    
C35   C37   A    
C24   C26   A    
C74   H52   S    
C75   H60   S    
C68   H39   S    
C11   C14   A    
C43   C52   A    
C62   H28   S    
C41   H2    S    
C74   H53   S    
C69   H38   S    
C70   H50   S    
C33   C36   A    
C53   H1    S    
C18   C19   A    
C32   C39   A    
C27   H23   S    
C1    O7    A    
C65   H31   S    
C75   H61   S    
Cu1   O8    S    
C73   H55   S    
C28   C35   A    
C68   C69   S    
C49   C51   A    
C22   C25   A    
C16   O8    A    
C50   C52   A    
C22   H11   S    
C66   H42   S    
C1    O1    A    
C70   C71   S    
C51   C57   A    
C59   H14   S    
C63   H25   S    
C17   O9    A    
C52   C55   A    
C42   C51   A    
C47   C53   A    
C48   C50   A    
C64   H35   S    
C74   H51   S    
C72   H44   S    
C16   O11   A    
C38   H62   S    
C71   H47   S    
C61   H19   S    
C67   C78   A    
C34   H4    S    
C60   H22   S    
C8    C21   A    
C53   C55   A    
C66   C78   S    
C46   C48   A    
C28   N4    A    
C33   C40   A    
C3    H7    S    
C44   O3    S    
C38   C41   A    
C47   C49   A    
C39   C40   A    
C6    N1    S    
Cu2   O11   S    
Cu1   N3    S    
C58   C59   S    
C70   H49   S    
C61   H21   S    
C6    C34   A    
C72   H46   S    
C60   C61   S    
C15   C19   A    
C75   C76   S    
C65   H32   S    
C45   C67   A    
C62   C63   S    
C11   H9    S    
C56   H6    S    
C5    C23   A    
C17   C77   S    
C44   N1    A    
C66   H41   S    
C16   C67   S    
C32   C37   A    
C63   H26   S    
C17   O10   A    
C9    C11   A    
C43   O2    S    
C23   H3    S    
C4    C6    A    
C15   C24   A    
C39   H63   S    
C49   C50   A    
C30   H56   S    
C40   H64   S    
C72   H43   S    
C71   H48   S    
C61   H20   S    
C25   C58   S    
C63   H27   S    
Cu2   O7    S    
C76   H59   S    
C7    C9    A    
C21   C25   A    
C5    N2    S    
C19   C21   A    
C8    C10   A    
C42   O12   S    
C1    C10   S    
C12   O6    A    
C3    C5    A    
C10   C13   A    
C29   N3    A    
C44   C47   A    
C30   N4    A    
C4    H8    S    
C76   H58   S    
C31   C38   A    
Cu1   O1    S    
C45   H5    S    
C64   C65   S    
C14   C22   A    
C13   C15   A    
C71   C72   S    
C29   C31   A    
C2    C77   A    
C60   H24   S    
C24   H13   S    
C68   H40   S    
Cu1   O6    S    
C30   C32   A    
C3    C78   A    
Cu2   O9    S    
C46   N2    A    
C62   H29   S    
C20   C26   A    
C2    C4    A    
C28   H34   S    
C69   H37   S    
C18   C20   A    
C8    C75   S    
C35   C41   A    
C9    C12   S    
C65   H30   S    
C56   C77   A    
Cu1   Cu2   S    
Cu2   N4    S    
C73   H54   S    
C27   N3    A    
C7    C20   A    
C59   H16   S    
C43   N2    A    
C31   C36   A    
C2    C70   S    
C42   N1    A    
C26   C60   S    
C64   H33   S    
C54   C57   A    
