data_mof_unit_28329.cif
_audit_creation_date              2013-03-05T15:53:43-0500
_audit_creation_method            fapswitch 2.2
_symmetry_space_group_name_H-M    P1
_symmetry_Int_Tables_number       1
_space_group_crystal_system       triclinic
_cell_length_a                    13.218401
_cell_length_b                    13.386099
_cell_length_c                    28.069055
_cell_angle_alpha                 94.979897
_cell_angle_beta                  89.789587
_cell_angle_gamma                 119.223109
_cell_volume                      4313.84946108

loop_
_atom_site_label
_atom_site_type_symbol
_atom_site_description
_atom_site_fract_x
_atom_site_fract_y
_atom_site_fract_z
_atom_type_partial_charge
O1    O     O_R   0.296680 0.802170 0.437540 -0.438306
O2    O     O_R   0.525380 0.838530 0.443500 -0.462741
C1    C     C_R   0.626896 0.898200 0.426367 0.572643
O3    O     O_R   0.702130 0.995190 0.446810 -0.450393
O4    O     O_R   0.661770 0.181390 0.458760 -0.460179
C2    C     C_R   0.597855 0.216787 0.439326 0.546120
O5    O     O_R   0.499820 0.198480 0.455280 -0.462713
O6    O     O_R   0.311660 0.976250 0.449080 -0.429856
C3    C     C_R   0.320550 0.898979 0.420911 0.549242
O7    O     O_R   0.297580 0.804960 0.544440 -0.469664
O8    O     O_R   0.526220 0.841130 0.542590 -0.488975
C4    C     C_R   0.624937 0.901252 0.565861 0.555924
O9    O     O_R   0.703030 0.997990 0.553710 -0.440906
O10   O     O_R   0.662610 0.183990 0.557860 -0.449907
C5    C     C_R   0.602876 0.226174 0.577841 0.544708
O11   O     O_R   0.500730 0.201280 0.562180 -0.502809
O12   O     O_R   0.312500 0.978850 0.548170 -0.475704
C6    C     C_R   0.276582 0.881259 0.564278 0.562330
Cr1   Cr    Cr6+3 0.416430 0.829200 0.492370 1.174320
Cr2   Cr    Cr6+3 0.674630 0.087020 0.504170 1.197899
Cr3   Cr    Cr6+3 0.408920 0.083740 0.503490 1.170360
O13   O     O_3   0.499990 0.999990 0.500010 -0.364534
C7    C     C_1   0.625683 0.257430 0.392376 0.103451
C8    C     C_R   0.780645 0.371786 0.286149 0.180035
C9    C     C_R   0.801175 0.395578 0.236985 0.005131
C10   C     C_R   0.589403 0.278910 0.219209 -0.020272
C11   C     C_R   0.572031 0.268691 0.268559 -0.030646
C12   C     C_R   0.666198 0.307323 0.301343 -0.029305
C13   C     C_R   0.702652 0.349339 0.203969 -0.052747
C14   C     C_1   0.712046 0.381883 0.155291 -0.019012
C15   C     C_1   0.644752 0.282190 0.351428 0.053993
C16   C     C_1   0.713257 0.408320 0.115064 0.003361
C17   C     C_R   0.308660 0.819725 0.337214 0.123128
C18   C     C_R   0.273874 0.805729 0.288801 -0.014589
C19   C     C_R   0.221056 0.787349 0.190364 -0.037357
C20   C     C_R   0.246731 0.706627 0.208474 -0.024584
C21   C     C_R   0.271921 0.716194 0.257431 0.195249
C22   C     C_R   0.196625 0.781775 0.141046 0.129321
C23   C     C_R   0.121147 0.819621 0.127193 0.009012
C24   C     C_R   0.248921 0.964638 0.353547 0.146233
C25   C     C_R   0.223355 0.960472 0.304388 -0.062515
C26   C     C_R   0.234546 0.878139 0.272020 -0.063927
C27   C     C_R   0.184660 0.033222 0.286162 0.207793
C28   C     C_R   0.144816 0.011832 0.238330 0.183597
C29   C     C_R   0.148934 0.924913 0.206699 -0.013634
C30   C     C_R   0.203960 0.865547 0.222864 -0.006623
C31   C     C_R   0.096243 0.892287 0.159870 -0.016759
C32   C     C_R   0.289862 0.893193 0.369870 -0.022413
C33   C     C_R   0.731872 0.962117 0.351402 0.156289
C34   C     C_R   0.735625 0.945476 0.301384 -0.030792
C35   C     C_R   0.732392 0.920439 0.201201 -0.058100
C36   C     C_R   0.807535 0.028759 0.226014 -0.035880
C37   C     C_R   0.815709 0.035265 0.275798 0.221817
C38   C     C_R   0.735403 0.904895 0.151837 -0.147498
H1    H     H_    0.793783 0.975629 0.132233 0.153140
C39   C     C_R   0.676846 0.796083 0.127367 -0.000042
C40   C     C_R   0.598241 0.754344 0.353981 0.180125
C41   C     C_R   0.611998 0.740060 0.303792 0.014136
C42   C     C_R   0.667759 0.836352 0.277240 -0.043658
C43   C     C_R   0.576248 0.631813 0.279388 -0.028258
C44   C     C_R   0.560228 0.613658 0.229730 0.022839
C45   C     C_R   0.604688 0.709744 0.202017 -0.003558
C46   C     C_R   0.667347 0.822198 0.226689 0.026018
C47   C     C_R   0.599830 0.699115 0.151228 -0.019377
C48   C     C_R   0.653765 0.868715 0.377254 -0.027739
H2    H     H_    0.554193 0.557887 0.298502 0.191266
C49   C     C_R   0.743188 0.298388 0.648917 0.165848
C50   C     C_R   0.754682 0.317122 0.699541 -0.048260
C51   C     C_R   0.777128 0.359615 0.801265 -0.015539
C52   C     C_R   0.855550 0.333319 0.775169 0.213236
C53   C     C_R   0.841457 0.308708 0.725334 -0.005190
C54   C     C_R   0.785672 0.381334 0.852212 -0.028514
C55   C     C_R   0.700612 0.401370 0.875969 -0.028702
C56   C     C_R   0.566924 0.312257 0.650845 -0.090778
C57   C     C_R   0.581192 0.340805 0.699826 -0.019426
C58   C     C_R   0.674237 0.340384 0.724958 -0.020330
C59   C     C_R   0.493986 0.353066 0.724200 0.207843
C60   C     C_R   0.495295 0.354340 0.773938 0.195935
C61   C     C_R   0.595940 0.371358 0.799616 -0.032304
C62   C     C_R   0.684404 0.360144 0.775342 -0.042723
C63   C     C_R   0.605651 0.394648 0.849484 0.143924
C64   C     C_R   0.642686 0.285886 0.625709 -0.013721
H3    H     H_    0.490236 0.300826 0.632121 0.224574
C65   C     C_1   0.236064 0.866669 0.611986 0.101244
C66   C     C_R   0.183365 0.748748 0.725881 0.131606
C67   C     C_R   0.159217 0.740883 0.775258 -0.060147
C68   C     C_R   0.163889 0.928784 0.781027 0.187299
C69   C     C_R   0.192494 0.937859 0.732131 0.173713
C70   C     C_R   0.196024 0.846422 0.704544 -0.031266
C71   C     C_R   0.146955 0.829332 0.802384 -0.041773
C72   C     C_1   0.121677 0.817611 0.853007 0.114027
C73   C     C_1   0.214090 0.855784 0.653662 0.106964
C74   C     C_1   0.096280 0.798157 0.894051 0.109870
C75   C     C_1   0.640487 0.871455 0.612434 0.071043
C76   C     C_R   0.773427 0.907424 0.730567 0.174253
C77   C     C_R   0.777054 0.890483 0.780159 0.007076
C78   C     C_R   0.571587 0.736355 0.772080 -0.019866
C79   C     C_R   0.570567 0.754683 0.723613 -0.095835
C80   C     C_R   0.667790 0.839233 0.703001 -0.015805
C81   C     C_R   0.674557 0.807691 0.801038 -0.027663
C82   C     C_1   0.678029 0.795154 0.852102 -0.016612
C83   C     C_1   0.653713 0.855291 0.653252 0.035540
C84   C     C_1   0.690696 0.786732 0.894091 0.039868
H4    H     H_    0.491544 0.702803 0.701420 0.218896
O14   O     O_R   0.820790 0.857990 0.068830 -0.487734
O15   O     O_R   0.016700 0.827330 0.062850 -0.473232
C85   C     C_R   0.059143 0.771528 0.080194 0.554079
O16   O     O_R   0.041970 0.673520 0.060040 -0.473083
O17   O     O_R   0.817980 0.483660 0.048840 -0.479440
C86   C     C_R   0.720079 0.447823 0.068542 0.531596
O18   O     O_R   0.637200 0.461990 0.052510 -0.520014
O19   O     O_R   0.664790 0.681920 0.057970 -0.492564
C87   C     C_R   0.720100 0.780973 0.080702 0.529464
O20   O     O_R   0.815840 0.852920 0.961840 -0.477759
O21   O     O_R   0.012100 0.822630 0.963670 -0.485144
C88   C     C_R   0.053647 0.765178 0.940737 0.554339
O22   O     O_R   0.037010 0.668460 0.953040 -0.439234
O23   O     O_R   0.813390 0.478970 0.949660 -0.472617
C89   C     C_R   0.714013 0.441941 0.927589 0.543898
O24   O     O_R   0.632250 0.456930 0.945520 -0.467936
O25   O     O_R   0.660200 0.677230 0.958780 -0.488902
C90   C     C_R   0.719214 0.774853 0.942182 0.553649
Cr4   Cr    Cr6+3 0.914010 0.832750 0.013970 1.128690
Cr5   Cr    Cr6+3 0.922310 0.578600 0.003000 1.128712
Cr6   Cr    Cr6+3 0.656280 0.574630 0.003870 1.104504
O26   O     O_3   0.830870 0.661990 0.006950 -0.311887
N1    N     N_R   0.874120 0.419756 0.321961 0.085825
O27   O     O_R   0.965627 0.408561 0.315153 -0.188830
O28   O     O_R   0.866163 0.470285 0.362626 -0.277299
N2    N     N_R   0.112414 0.090871 0.221779 -0.063321
O29   O     O_R   0.172500 0.159799 0.190241 -0.000200
O30   O     O_R   0.172620 0.159937 0.190188 -0.000200
N3    N     N_R   0.222686 0.150641 0.305901 -0.004963
O31   O     O_R   0.191982 0.180823 0.346424 -0.000734
O32   O     O_R   0.192609 0.181733 0.346305 -0.000735
N4    N     N_R   0.225665 0.035133 0.387868 0.109570
O33   O     O_R   0.126053 0.991536 0.408192 -0.226664
O34   O     O_R   0.311208 0.133701 0.405898 -0.275876
N5    N     N_R   0.802569 0.076719 0.375143 0.126317
O35   O     O_R   0.777226 0.157465 0.368986 -0.310750
O36   O     O_R   0.898367 0.103151 0.399045 -0.165017
C91   C     C_2   0.883633 0.133264 0.200521 0.278168
H5    H     H_    0.851633 0.148239 0.167885 0.110545
O37   O     O_2   0.981676 0.204625 0.215628 -0.351121
N6    N     N_R   0.926453 0.108594 0.298171 0.143645
O38   O     O_R   0.961625 0.216849 0.310026 -0.121783
O39   O     O_R   0.982917 0.060660 0.314174 -0.284435
C92   C     C_2   0.515907 0.589889 0.122547 0.349148
H6    H     H_    0.520416 0.511027 0.122988 0.115156
O40   O     O_2   0.443773 0.589132 0.095300 -0.422042
C93   C     C_2   0.503809 0.491514 0.210305 0.258323
H7    H     H_    0.552557 0.445701 0.210774 0.072007
O41   O     O_2   0.401094 0.439465 0.196803 -0.329384
C94   C     C_2   0.923854 0.470079 0.221219 0.273332
H8    H     H_    0.997246 0.519250 0.247001 0.177390
O42   O     O_2   0.946127 0.476731 0.178699 -0.524033
N7    N     N_R   0.529381 0.655155 0.380514 0.098796
O43   O     O_R   0.553235 0.657645 0.425685 -0.278474
O44   O     O_R   0.443490 0.560485 0.359992 -0.215269
C95   C     C_2   0.880180 0.378798 0.880829 0.321853
H9    H     H_    0.882564 0.299704 0.883672 0.153052
O45   O     O_2   0.961822 0.467490 0.899603 -0.383803
N8    N     N_R   0.838027 0.305268 0.621139 0.071071
O46   O     O_R   0.934999 0.402125 0.623340 -0.222038
O47   O     O_R   0.837971 0.212090 0.603385 -0.283473
N9    N     N_R   0.939332 0.312629 0.798789 0.080750
O48   O     O_R   0.050190 0.385964 0.797749 -0.170870
O49   O     O_R   0.907743 0.207837 0.808287 -0.384589
C96   C     C_2   0.905069 0.253509 0.702317 0.428926
H10   H     H_    0.856036 0.167573 0.684277 0.148224
O50   O     O_2   0.010950 0.303003 0.703137 -0.257340
N10   N     N_R   0.513552 0.404467 0.874019 -0.118534
O51   O     O_R   0.504176 0.497450 0.874150 -0.001312
O52   O     O_R   0.503610 0.497164 0.874309 -0.001315
N11   N     N_R   0.386075 0.307908 0.796653 0.138352
O53   O     O_R   0.327336 0.362941 0.800411 -0.171167
O54   O     O_R   0.356539 0.219794 0.821097 -0.247055
N12   N     N_R   0.397855 0.351194 0.698456 0.118587
O55   O     O_R   0.290953 0.287274 0.709999 -0.096072
O56   O     O_R   0.417270 0.418299 0.664421 -0.284667
N13   N     N_R   0.195414 0.658783 0.697686 0.092173
O57   O     O_R   0.137036 0.551514 0.707494 -0.209239
O58   O     O_R   0.264000 0.682767 0.661599 -0.301811
C97   C     C_2   0.488073 0.221539 0.183449 0.293548
H11   H     H_    0.495383 0.248366 0.147595 0.116990
O59   O     O_2   0.395516 0.141192 0.193199 -0.464348
C98   C     C_2   0.154699 0.643598 0.799851 0.306325
H12   H     H_    0.214746 0.611591 0.790762 0.204422
O60   O     O_2   0.082010 0.596478 0.829941 -0.431843
N14   N     N_R   0.155531 0.020860 0.808914 0.131361
O61   O     O_R   0.139044 0.095216 0.788195 -0.169808
O62   O     O_R   0.166941 0.033627 0.855421 -0.270944
N15   N     N_R   0.225336 0.042337 0.710391 0.124865
O63   O     O_R   0.326533 0.093611 0.691854 -0.359434
O64   O     O_R   0.145096 0.063159 0.695454 -0.145979
N16   N     N_R   0.876057 0.987570 0.707616 0.062284
O65   O     O_R   0.956165 0.080291 0.731369 -0.239830
O66   O     O_R   0.889895 0.969356 0.662332 -0.267089
C99   C     C_2   0.887650 0.953878 0.810108 0.324272
H13   H     H_    0.940599 0.046280 0.811942 0.245883
O67   O     O_2   0.918985 0.902355 0.834967 -0.479089
C100  C     C_2   0.463342 0.641610 0.790775 0.240028
H14   H     H_    0.451230 0.634087 0.828992 0.132245
O68   O     O_2   0.385086 0.569510 0.763129 -0.392063
C101  C     C_2   0.459326 0.243317 0.287417 0.297284
H15   H     H_    0.425835 0.190766 0.317050 0.113253
O69   O     O_2   0.408610 0.290352 0.272014 -0.395385
N17   N     N_R   0.233821 0.725387 0.104442 -0.212803
O70   O     O_R   0.339689 0.742303 0.104785 -0.000000
O71   O     O_R   0.339689 0.742303 0.104785 -0.000000
N18   N     N_R   0.374718 0.768675 0.352569 -0.163153
O72   O     O_R   0.324509 0.673646 0.373253 -0.000097
O73   O     O_R   0.324568 0.673736 0.373237 -0.000096
C102  C     C_2   0.224299 0.598519 0.178687 0.347217
H16   H     H_    0.156438 0.560562 0.150470 0.178574
O74   O     O_2   0.282743 0.551406 0.184325 -0.348085
N19   N     N_R   0.272843 0.621243 0.276299 0.132362
O75   O     O_R   0.364117 0.609338 0.273683 -0.235582
O76   O     O_R   0.178565 0.540993 0.293150 -0.200335
C103  C     C_2   0.006975 0.924522 0.147705 0.284000
H17   H     H_    0.926756 0.891165 0.166600 0.079945
O77   O     O_2   0.026465 0.994780 0.118960 -0.416886

loop_
_geom_bond_atom_site_label_1
_geom_bond_atom_site_label_2
_geom_bond_distance
_ccdc_geom_bond_type
C77   C99   1.495937 S    
C68   C69   1.421856 A    
O11   Cr3   2.088650 S    
C55   C89   1.482239 S    
C10   C13   1.414213 A    
C18   C21   1.413915 A    
C96   O50   1.220847 D    
C25   C26   1.430513 A    
C39   C87   1.464557 S    
C19   C20   1.412762 A    
C18   C26   1.415868 A    
C21   N19   1.424126 S    
C78   C100  1.506410 S    
C57   C58   1.422719 A    
C103  O77   1.222903 D    
N6    O38   1.298599 A    
C71   C72   1.462642 S    
N11   O54   1.305093 A    
O4    Cr2   1.933944 S    
C66   C67   1.422383 A    
C97   H11   1.085937 S    
C23   C85   1.473712 S    
C4    O9    1.275797 A    
C24   N4    1.426973 S    
O8    Cr1   1.966803 S    
C10   C11   1.410720 A    
N7    O43   1.301330 A    
C33   C48   1.430860 A    
C34   C42   1.396752 A    
C23   C31   1.432256 A    
C20   C21   1.395288 A    
N8    O47   1.302030 A    
O22   Cr5   2.051498 S    
O16   Cr5   2.093493 S    
C51   C52   1.428611 A    
C52   N9    1.442039 S    
O4    C2    1.294200 A    
C102  O74   1.230257 D    
O15   C85   1.258583 A    
C84   C90   1.445339 S    
C28   N2    1.431067 S    
O21   C88   1.277223 A    
C79   C80   1.398310 A    
N13   O57   1.310816 A    
C39   C47   1.423183 A    
C88   O22   1.281736 A    
O14   Cr4   2.075080 S    
C26   C30   1.411655 A    
C63   N10   1.451887 S    
C27   N3    1.452434 S    
O23   C89   1.293044 A    
C103  H17   1.086153 S    
C45   C47   1.418908 A    
C20   C102  1.501321 S    
C86   O18   1.288394 A    
C76   C77   1.434328 A    
C97   O59   1.221595 D    
O6    C3    1.298031 A    
N15   O64   1.300241 A    
O15   Cr4   1.964011 S    
O18   Cr6   2.045638 S    
C8    N1    1.439381 S    
C6    C65   1.433979 S    
C93   H7    1.085714 S    
C53   C96   1.479922 S    
C52   C53   1.400706 A    
C8    C12   1.414073 A    
C56   H3    1.079683 S    
C94   O42   1.228523 D    
C29   C31   1.419034 A    
Cr6   O26   2.012390 S    
C9    C94   1.520634 S    
C43   H2    1.077698 S    
C67   C98   1.501935 S    
N7    O44   1.303838 A    
Cr3   O13   2.003343 S    
C47   C92   1.494980 S    
N9    O49   1.305886 A    
C25   C27   1.430568 A    
C4    C75   1.443222 S    
C1    C48   1.490354 S    
C56   C64   1.386398 A    
C55   C63   1.421729 A    
O19   C87   1.268756 A    
N6    O39   1.300257 A    
N10   O52   1.309392 A    
C78   C79   1.404424 A    
C5    C64   1.459159 S    
N13   O58   1.310157 A    
C76   N16   1.448737 S    
C9    C13   1.435331 A    
C22   C23   1.390622 A    
C38   C39   1.386306 A    
O1    Cr1   2.089759 S    
C34   C37   1.408160 A    
O21   Cr4   1.953903 S    
C100  H14   1.090065 S    
C49   C50   1.416895 A    
C96   H10   1.083086 S    
O10   Cr2   1.959924 S    
Cr1   O13   1.985877 S    
C35   C46   1.426619 A    
C8    C9    1.438271 A    
N4    O34   1.306567 A    
C56   C57   1.382803 A    
N17   O70   1.303851 A    
C61   C63   1.399806 A    
C66   C70   1.420486 A    
C60   C61   1.422620 A    
N16   O65   1.297893 A    
Cr4   O26   1.985465 S    
C66   N13   1.456998 S    
C41   C42   1.412536 A    
C59   C60   1.394792 A    
O12   Cr3   1.927509 S    
C1    O3    1.272008 A    
C35   C36   1.413360 A    
C43   C44   1.392770 A    
C11   C101  1.465053 S    
C74   C88   1.442829 S    
C95   O45   1.223268 D    
C51   C54   1.428024 A    
N2    O30   1.301201 A    
C27   C28   1.397543 A    
N1    O28   1.306117 A    
N14   O61   1.299851 A    
O25   Cr6   1.929402 S    
C13   C14   1.456480 S    
C49   N8    1.442406 S    
C72   C74   1.213137 T    
C44   C93   1.477976 S    
N11   O53   1.304254 A    
O10   C5    1.278267 A    
O7    Cr1   2.068144 S    
C85   O16   1.293854 A    
C19   C22   1.409957 A    
C45   C46   1.427372 A    
C37   N6    1.413317 S    
O12   C6    1.277413 A    
C94   H8    1.094106 S    
C89   O24   1.285251 A    
O1    C3    1.304403 A    
O23   Cr5   1.971659 S    
C36   C37   1.393839 A    
C92   H6    1.087118 S    
C70   C73   1.453221 S    
C57   C59   1.408265 A    
C99   O67   1.224215 D    
O19   Cr6   1.961157 S    
C100  O68   1.226678 D    
C3    C32   1.475599 S    
C68   N14   1.452220 S    
O20   Cr4   2.079063 S    
C92   O40   1.220146 D    
N16   O66   1.302522 A    
C24   C25   1.411719 A    
N18   O73   1.301399 A    
Cr2   O13   2.013023 S    
C33   C34   1.406801 A    
C33   N5    1.448467 S    
C67   C71   1.427507 A    
N9    O48   1.308397 A    
C91   O37   1.223429 D    
C61   C62   1.414893 A    
N19   O76   1.306699 A    
N1    O27   1.300909 A    
C78   C81   1.424575 A    
N10   O51   1.309350 A    
Cr5   O26   2.003551 S    
C82   C84   1.213601 T    
O14   C87   1.289165 A    
C24   C32   1.414454 A    
C101  H15   1.085102 S    
C38   H1    1.081073 S    
N14   O62   1.301377 A    
O9    Cr2   2.055046 S    
O2    Cr1   1.952148 S    
C102  H16   1.086469 S    
C42   C46   1.414788 A    
C69   N15   1.438812 S    
C12   C15   1.468329 S    
C28   C29   1.423770 A    
C58   C62   1.410631 A    
C40   C48   1.429004 A    
C54   C55   1.427820 A    
O6    Cr3   1.970354 S    
N12   O56   1.306702 A    
N5    O35   1.302602 A    
O25   C90   1.280994 A    
O17   Cr5   1.931863 S    
C60   N11   1.436327 S    
C2    O5    1.282412 A    
O3    Cr2   2.079379 S    
C50   C58   1.419801 A    
C31   C103  1.490256 S    
C19   C30   1.429225 A    
C40   N7    1.460376 S    
C59   N12   1.452585 S    
C54   C95   1.503490 S    
C35   C38   1.386514 A    
C95   H9    1.084262 S    
N2    O29   1.298798 A    
N19   O75   1.292851 A    
C98   H12   1.090973 S    
O5    Cr3   2.044717 S    
O17   C86   1.282672 A    
C14   C16   1.210024 T    
N5    O36   1.306280 A    
C40   C41   1.428136 A    
N3    O31   1.303319 A    
O7    C6    1.267739 A    
C50   C53   1.413824 A    
C79   H4    1.087576 S    
C2    C7    1.446910 S    
C77   C81   1.431125 A    
C81   C82   1.460960 S    
O24   Cr6   2.081555 S    
C17   C18   1.403368 A    
O2    C1    1.298190 A    
C76   C80   1.422134 A    
C93   O41   1.227503 D    
C44   C45   1.427267 A    
C17   N18   1.432388 S    
C36   C91   1.508428 S    
C98   O60   1.236602 D    
N8    O46   1.300690 A    
N18   O72   1.302590 A    
O20   C90   1.276585 A    
C29   C30   1.412759 A    
C99   H13   1.079972 S    
C80   C83   1.457347 S    
C69   C70   1.410988 A    
C75   C83   1.213045 T    
C49   C64   1.409822 A    
N17   O71   1.303851 A    
N15   O63   1.300606 A    
C16   C86   1.437163 S    
C68   C71   1.424209 A    
C11   C12   1.400315 A    
N3    O32   1.301459 A    
C17   C32   1.396270 A    
C91   H5    1.084342 S    
N4    O33   1.304516 A    
C51   C62   1.430949 A    
C65   C73   1.208209 T    
C22   N17   1.446067 S    
C101  O69   1.222400 D    
C41   C43   1.397718 A    
C5    O11   1.291095 A    
O8    C4    1.290993 A    
C7    C15   1.215271 T    
N12   O55   1.303095 A    
C10   C97   1.504315 S    
