data_mof_unit_29935.cif
_audit_creation_date              2013-03-05T15:53:16-0500
_audit_creation_method            fapswitch 2.2
_symmetry_space_group_name_H-M    P1
_symmetry_Int_Tables_number       1
_space_group_crystal_system       triclinic
_cell_length_a                    17.434485
_cell_length_b                    24.452509
_cell_length_c                    14.973371
_cell_angle_alpha                 90.311034
_cell_angle_beta                  125.476554
_cell_angle_gamma                 89.512533
_cell_volume                      5198.15328386

loop_
_atom_site_label
_atom_site_type_symbol
_atom_site_description
_atom_site_fract_x
_atom_site_fract_y
_atom_site_fract_z
_atom_type_partial_charge
C1    C     C_R   0.352267 0.349027 0.907644 -0.149248
C2    C     C_R   0.647406 0.348259 0.091910 -0.123948
C3    C     C_R   0.852146 0.848952 0.907792 -0.134983
C4    C     C_R   0.146749 0.848125 0.091650 -0.153125
H1    H     H_    0.315483 0.335703 0.823413 0.185635
H2    H     H_    0.686445 0.335983 0.176777 0.167559
H3    H     H_    0.814865 0.835866 0.823351 0.180460
H4    H     H_    0.183101 0.834963 0.175818 0.185356
N1    N     N_R   0.395410 0.396350 0.944340 -0.075491
N2    N     N_R   0.604590 0.396350 0.055660 -0.076579
N3    N     N_R   0.895410 0.896350 0.944340 -0.074175
N4    N     N_R   0.104590 0.896350 0.055660 -0.076083
C5    C     C_R   0.405347 0.624403 0.094520 -0.093485
C6    C     C_R   0.587747 0.633500 0.907918 -0.126690
C7    C     C_R   0.903978 0.123314 0.093635 -0.100308
C8    C     C_R   0.084837 0.135377 0.907109 -0.105465
H5    H     H_    0.433345 0.627866 0.180127 0.114271
H6    H     H_    0.554240 0.645290 0.824240 0.113800
H7    H     H_    0.932989 0.128092 0.179193 0.111534
H8    H     H_    0.050236 0.147415 0.823226 0.116548
N5    N     N_R   0.449930 0.602500 0.055880 -0.043238
N6    N     N_R   0.550070 0.602500 0.944120 -0.049991
N7    N     N_R   0.949930 0.102500 0.055880 -0.048979
N8    N     N_R   0.050070 0.102500 0.944120 -0.045087
C9    C     C_R   0.550966 0.453997 0.303299 -0.112112
C10   C     C_R   0.517480 0.453337 0.749191 -0.017903
C11   C     C_R   0.050900 0.954073 0.303314 -0.106036
C12   C     C_R   0.017824 0.953390 0.749594 -0.025112
H9    H     H_    0.576664 0.413536 0.333209 0.184286
H10   H     H_    0.536277 0.411795 0.747521 0.131445
H11   H     H_    0.076297 0.913603 0.333310 0.185775
H12   H     H_    0.036441 0.911839 0.747694 0.131557
N9    N     N_R   0.525080 0.471030 0.205650 -0.054730
N10   N     N_R   0.474920 0.471030 0.794350 -0.044040
N11   N     N_R   0.025080 0.971030 0.205650 -0.054051
N12   N     N_R   0.974920 0.971030 0.794350 -0.047064
C13   C     C_R   0.232233 0.543532 0.714465 0.283963
C14   C     C_R   0.753036 0.543890 0.304816 0.292655
C15   C     C_R   0.747184 0.044006 0.694999 0.290156
C16   C     C_R   0.267739 0.043250 0.284697 0.284816
N13   N     N_R   0.320260 0.527820 0.794570 -0.095016
N14   N     N_R   0.679740 0.527820 0.205430 -0.096587
N15   N     N_R   0.820260 0.027820 0.794570 -0.099583
N16   N     N_R   0.179740 0.027820 0.205430 -0.093973
C17   C     C_R   0.548030 0.544534 0.303501 -0.091399
C18   C     C_R   0.505717 0.544135 0.735138 -0.075433
C19   C     C_R   0.048550 0.044633 0.303638 -0.089886
C20   C     C_R   0.006876 0.044246 0.736407 -0.074502
H13   H     H_    0.565384 0.586211 0.332344 0.136006
H14   H     H_    0.501111 0.584873 0.705873 0.108412
H15   H     H_    0.066731 0.086301 0.332502 0.127751
H16   H     H_    0.003598 0.085126 0.708528 0.111254
N17   N     N_R   0.524590 0.527840 0.205200 -0.050481
N18   N     N_R   0.475410 0.527840 0.794800 -0.049669
N19   N     N_R   0.024590 0.027840 0.205200 -0.052139
N20   N     N_R   0.975410 0.027840 0.794800 -0.048544
C21   C     C_R   0.233901 0.452217 0.726667 -0.117524
C22   C     C_R   0.752810 0.452860 0.301278 -0.152273
C23   C     C_R   0.747304 0.952995 0.698848 -0.123389
C24   C     C_R   0.266360 0.951815 0.272982 -0.151862
H17   H     H_    0.214985 0.409518 0.710321 0.128901
H18   H     H_    0.760786 0.410810 0.327366 0.144778
H19   H     H_    0.739186 0.910790 0.673216 0.149305
H20   H     H_    0.285613 0.909031 0.289467 0.133374
N21   N     N_R   0.320750 0.471000 0.795020 -0.061091
N22   N     N_R   0.679250 0.471000 0.204980 -0.069382
N23   N     N_R   0.820750 0.971000 0.795020 -0.068977
N24   N     N_R   0.179250 0.971000 0.204980 -0.065216
C25   C     C_R   0.312263 0.627338 0.911494 -0.099210
C26   C     C_R   0.685084 0.630023 0.091176 -0.056331
C27   C     C_R   0.809908 0.124085 0.909994 -0.070103
C28   C     C_R   0.181781 0.133165 0.090142 -0.092256
H21   H     H_    0.253702 0.636702 0.829285 0.169413
H22   H     H_    0.744523 0.636097 0.175042 0.165437
H23   H     H_    0.750502 0.130596 0.826136 0.157320
H24   H     H_    0.239275 0.142452 0.172883 0.176703
N25   N     N_R   0.393620 0.602490 0.942710 -0.049647
N26   N     N_R   0.606380 0.602490 0.057290 -0.045167
N27   N     N_R   0.893620 0.102490 0.942710 -0.041092
N28   N     N_R   0.106380 0.102490 0.057290 -0.053582
C29   C     C_R   0.438783 0.348241 0.089176 0.328967
C30   C     C_R   0.556881 0.346593 0.910487 0.284996
C31   C     C_R   0.939187 0.848159 0.089348 0.326193
C32   C     C_R   0.057971 0.846787 0.910433 0.293093
N29   N     N_R   0.451720 0.396350 0.057510 -0.103387
N30   N     N_R   0.548280 0.396350 0.942490 -0.104786
N31   N     N_R   0.951720 0.896350 0.057510 -0.102663
N32   N     N_R   0.048280 0.896350 0.942490 -0.104130
C33   C     C_R   0.378197 0.317281 0.996146 -0.015958
C34   C     C_R   0.616905 0.314807 0.002981 -0.009325
C35   C     C_R   0.878859 0.816948 0.996654 -0.022587
C36   C     C_R   0.118559 0.815157 0.002969 -0.012665
C37   C     C_R   0.318435 0.640475 0.006004 0.061138
C38   C     C_R   0.674419 0.649015 0.997345 0.061942
C39   C     C_R   0.815415 0.137184 0.004332 0.052587
C40   C     C_R   0.170052 0.152365 0.996199 0.064623
C41   C     C_R   0.565543 0.498729 0.366790 0.022961
C42   C     C_R   0.537574 0.498261 0.711180 0.018871
C43   C     C_R   0.065591 0.998834 0.366804 0.026436
C44   C     C_R   0.038447 0.998352 0.712192 0.016045
C45   C     C_R   0.175768 0.497095 0.676913 -0.015984
C46   C     C_R   0.799357 0.497648 0.367175 -0.020637
C47   C     C_R   0.700732 0.997858 0.632782 -0.033201
C48   C     C_R   0.324242 0.996475 0.322376 -0.006495
Ni1   Ni    Ni4+2 0.435420 0.434270 0.870230 0.293621
Ni2   Ni    Ni4+2 0.564580 0.434270 0.129770 0.251464
Ni3   Ni    Ni4+2 0.935420 0.934270 0.870230 0.281453
Ni4   Ni    Ni4+2 0.064580 0.934270 0.129770 0.259840
Ni5   Ni    Ni4+2 0.563430 0.564580 0.128740 0.283718
Ni6   Ni    Ni4+2 0.436570 0.564580 0.871260 0.293388
Ni7   Ni    Ni4+2 0.063430 0.064580 0.128740 0.276206
Ni8   Ni    Ni4+2 0.936570 0.064580 0.871260 0.299682
C49   C     C_2   0.925559 0.450406 0.529219 -0.094438
C50   C     C_2   0.026670 0.454991 0.611135 -0.162044
C51   C     C_2   0.474378 0.954442 0.388803 -0.158413
C52   C     C_2   0.575702 0.950382 0.470555 -0.101973
C53   C     C_2   0.874697 0.495981 0.483771 -0.118748
C54   C     C_2   0.074639 0.494127 0.600674 -0.092007
C55   C     C_2   0.425186 0.993201 0.399523 -0.101286
C56   C     C_2   0.624832 0.996195 0.516370 -0.075899
H25   H     H_    0.899448 0.410427 0.492671 0.149126
H26   H     H_    0.062465 0.423381 0.673357 0.145490
H27   H     H_    0.439567 0.922994 0.326100 0.148283
H28   H     H_    0.603557 0.910388 0.506286 0.146841
H29   H     H_    0.902184 0.534439 0.527081 0.200377
H30   H     H_    0.038908 0.524219 0.535533 0.196166
H31   H     H_    0.459815 0.023106 0.465160 0.190062
H32   H     H_    0.595662 0.034697 0.473649 0.197947
C57   C     C_R   0.288268 0.702101 0.111228 0.139587
C58   C     C_R   0.703387 0.710240 0.892670 0.112433
C59   C     C_R   0.791797 0.205940 0.102601 0.163966
C60   C     C_R   0.198508 0.213647 0.891975 0.108372
C61   C     C_R   0.253011 0.671414 0.016331 -0.016197
C62   C     C_R   0.738811 0.680257 0.988113 -0.009021
C63   C     C_R   0.751616 0.170853 0.012936 -0.005068
C64   C     C_R   0.234077 0.183503 0.987052 -0.011890
C65   C     C_R   0.156540 0.674819 0.931566 -0.300161
C66   C     C_R   0.835763 0.681097 0.071147 -0.295289
C67   C     C_R   0.656045 0.176130 0.926963 -0.297499
C68   C     C_R   0.331319 0.182708 0.068728 -0.297407
H33   H     H_    0.125599 0.646520 0.863326 0.194638
H34   H     H_    0.866357 0.652679 0.139028 0.191354
H35   H     H_    0.624076 0.147283 0.859554 0.190417
H36   H     H_    0.361510 0.153769 0.135742 0.193668
C69   C     C_R   0.601741 0.218063 0.929696 0.406625
C70   C     C_R   0.388385 0.221429 0.065198 0.400597
C71   C     C_R   0.101600 0.716974 0.933202 0.399440
C72   C     C_R   0.891957 0.720793 0.067940 0.389900
C73   C     C_R   0.648351 0.258192 0.013747 -0.020838
C74   C     C_R   0.343373 0.262379 0.983283 -0.037416
C75   C     C_R   0.148803 0.758061 0.015265 -0.045821
C76   C     C_R   0.846113 0.761347 0.984957 -0.034843
C77   C     C_R   0.741339 0.249229 0.102585 0.067015
C78   C     C_R   0.252318 0.252952 0.890329 0.189545
C79   C     C_R   0.237351 0.745156 0.110176 0.206356
C80   C     C_R   0.756150 0.750508 0.891390 0.186361
C81   C     C_3   0.776979 0.238914 0.219359 -0.365160
C82   C     C_3   0.169789 0.291200 0.824707 -0.510962
C83   C     C_3   0.323444 0.779609 0.180633 -0.513800
C84   C     C_3   0.672367 0.787557 0.823395 -0.488888
C85   C     C_3   0.379617 0.732007 0.181959 -0.454006
C86   C     C_3   0.614064 0.742899 0.824591 -0.448634
C87   C     C_3   0.832048 0.191435 0.218961 -0.508213
C88   C     C_3   0.110362 0.247393 0.826340 -0.436928
H37   H     H_    0.822809 0.272522 0.274872 0.182980
H38   H     H_    0.175216 0.328558 0.870753 0.205414
H39   H     H_    0.324674 0.815961 0.137139 0.201798
H40   H     H_    0.675312 0.824940 0.867943 0.207256
H41   H     H_    0.721169 0.226287 0.229079 0.266227
H42   H     H_    0.151696 0.298779 0.741344 0.204685
H43   H     H_    0.338613 0.788149 0.262440 0.212177
H44   H     H_    0.655419 0.794878 0.740484 0.205615
H45   H     H_    0.413261 0.740886 0.139307 0.214930
H46   H     H_    0.583442 0.754323 0.869850 0.216826
H47   H     H_    0.909464 0.197860 0.274447 0.201466
H48   H     H_    0.081603 0.259207 0.873425 0.216838
H49   H     H_    0.426890 0.713195 0.264516 0.204480
H50   H     H_    0.563718 0.724723 0.742081 0.202121
H51   H     H_    0.807690 0.151033 0.227040 0.219858
H52   H     H_    0.058331 0.229792 0.743753 0.202640
C89   C     C_R   0.589809 0.447507 0.611770 -0.079642
C90   C     C_R   0.604259 0.447067 0.530620 0.053521
C91   C     C_R   0.088968 0.947538 0.611325 -0.080117
C92   C     C_R   0.103137 0.947035 0.529962 0.053801
C93   C     C_R   0.581704 0.496728 0.653508 0.120732
C94   C     C_R   0.602271 0.496629 0.482449 0.073319
C95   C     C_R   0.082149 0.996747 0.654075 0.121162
C96   C     C_R   0.101887 0.996629 0.482319 0.075697
C97   C     C_R   0.608112 0.545156 0.627922 -0.153374
C98   C     C_R   0.617749 0.545216 0.541463 -0.128025
C99   C     C_R   0.108851 0.045087 0.628597 -0.157773
C100  C     C_R   0.117954 0.045152 0.541723 -0.123746
H53   H     H_    0.610334 0.583826 0.664827 0.122081
H54   H     H_    0.625097 0.584110 0.513219 0.139830
H55   H     H_    0.111717 0.083727 0.665971 0.122788
H56   H     H_    0.125542 0.084024 0.513617 0.140292
C101  C     C_3   0.550020 0.394605 0.482775 0.038138
C102  C     C_3   0.530938 0.396678 0.569312 0.048081
C103  C     C_3   0.047649 0.894981 0.481424 0.033000
C104  C     C_3   0.028660 0.897279 0.568007 0.053522
H57   H     H_    0.485440 0.397483 0.397352 0.145574
H58   H     H_    0.561809 0.362015 0.628269 0.166330
H59   H     H_    0.983169 0.898327 0.396014 0.144834
H60   H     H_    0.058541 0.862337 0.626321 0.165923
N33   N     N_R   0.500878 0.217099 0.852660 0.267598
O1    O     O_R   0.461501 0.189059 0.762207 -0.311482
O2    O     O_R   0.447669 0.238584 0.878404 -0.387759
N34   N     N_R   0.488899 0.218537 0.142411 0.268334
O3    O     O_R   0.527124 0.191237 0.233394 -0.299621
O4    O     O_R   0.542550 0.236947 0.115470 -0.401176
N35   N     N_R   0.000995 0.716750 0.854440 0.269954
O5    O     O_R   0.962206 0.687810 0.765139 -0.311232
O6    O     O_R   0.947192 0.739462 0.878120 -0.391000
N36   N     N_R   0.992442 0.719105 0.146669 0.271151
O7    O     O_R   0.030247 0.693043 0.238916 -0.285957
O8    O     O_R   0.046800 0.737077 0.120341 -0.378858
N37   N     N_R   0.610388 0.348046 0.499203 0.268152
O9    O     O_R   0.578098 0.298596 0.484345 -0.228249
O10   O     O_R   0.694191 0.355393 0.522869 -0.360023
N38   N     N_R   0.430877 0.406585 0.520509 0.256495
O11   O     O_R   0.382519 0.369571 0.529270 -0.264452
O12   O     O_R   0.387458 0.449382 0.459520 -0.374304
N39   N     N_R   0.106918 0.847902 0.497331 0.268886
O13   O     O_R   0.073565 0.798720 0.482228 -0.227593
O14   O     O_R   0.191150 0.854495 0.521834 -0.346966
N40   N     N_R   0.928895 0.908179 0.519492 0.255699
O15   O     O_R   0.879722 0.871940 0.528658 -0.275094
O16   O     O_R   0.886584 0.951267 0.458975 -0.382603
N41   N     N_R   0.209195 0.595076 0.658969 0.230451
O17   O     O_R   0.275969 0.625736 0.672833 -0.373765
O18   O     O_R   0.122400 0.612142 0.595819 -0.336961
N42   N     N_R   0.761080 0.597896 0.347223 0.219591
O19   O     O_R   0.687478 0.629750 0.301763 -0.423232
O20   O     O_R   0.843269 0.617873 0.422176 -0.339173
N43   N     N_R   0.740446 0.097559 0.652342 0.229353
O21   O     O_R   0.815005 0.128019 0.697599 -0.400448
O22   O     O_R   0.658863 0.118515 0.576886 -0.332183
N44   N     N_R   0.290875 0.094789 0.340399 0.223904
O23   O     O_R   0.224776 0.124946 0.331181 -0.399147
O24   O     O_R   0.377213 0.112207 0.399669 -0.343706
N45   N     N_R   0.492172 0.329699 0.199929 0.229072
O25   O     O_R   0.583662 0.328390 0.257821 -0.373297
O26   O     O_R   0.449322 0.309979 0.240348 -0.353277
N46   N     N_R   0.498183 0.327729 0.799701 0.241286
O27   O     O_R   0.411391 0.344723 0.735801 -0.352752
O28   O     O_R   0.535693 0.302242 0.757225 -0.378100
N47   N     N_R   0.991965 0.830014 0.200305 0.227279
O29   O     O_R   0.083479 0.828643 0.258884 -0.358488
O30   O     O_R   0.948510 0.810537 0.240162 -0.355587
N48   N     N_R   0.999167 0.827584 0.799905 0.242170
O31   O     O_R   0.912309 0.844448 0.735862 -0.363623
O32   O     O_R   0.036367 0.801197 0.757980 -0.373882

loop_
_geom_bond_atom_site_label_1
_geom_bond_atom_site_label_2
_geom_bond_distance
_ccdc_geom_bond_type
C22   H18   1.080754 S    
C13   C45   1.394375 A    
C61   C65   1.402716 A    
N8    N28   1.379953 A    
C81   H41   1.110526 S    
C26   N26   1.340693 A    
C6    H6    1.070368 S    
C25   N25   1.348490 A    
N39   O13   1.300724 A    
N8    Ni8   1.865503 S    
C64   C68   1.401183 A    
C87   H47   1.112314 S    
C27   N27   1.344873 A    
C40   C64   1.427435 S    
C24   C48   1.378990 A    
C58   C62   1.393006 A    
C89   C90   1.376639 A    
C7    H7    1.076069 S    
C11   C43   1.370466 A    
C83   H43   1.111818 S    
N27   Ni8   1.863305 S    
C1    H1    1.080896 S    
C45   C54   1.442942 S    
C100  H56   1.081292 S    
C8    H8    1.072217 S    
C26   C38   1.387984 A    
N14   Ni5   1.875082 S    
C78   C82   1.502167 S    
C42   C93   1.452389 S    
C25   C37   1.391504 A    
C77   C81   1.499329 S    
C7    C39   1.373548 A    
C35   C76   1.449001 S    
C28   C40   1.382944 A    
C71   N35   1.437511 S    
C27   C39   1.394748 A    
N1    Ni1   1.870398 S    
C51   C52   1.455075 S    
C19   C43   1.384435 A    
N46   O27   1.300364 A    
N18   Ni6   1.858682 S    
C3    C35   1.373172 A    
N45   O25   1.300481 A    
C90   C94   1.403553 A    
C29   N45   1.425251 S    
C21   H17   1.080844 S    
C2    C34   1.377904 A    
C73   C77   1.392734 A    
C43   C96   1.457735 S    
C16   N44   1.432941 S    
N11   Ni4   1.860034 S    
C23   N23   1.330233 A    
C70   C74   1.416204 A    
C67   H35   1.083040 S    
C10   N10   1.329924 A    
C19   H15   1.080325 S    
N31   Ni4   1.857716 S    
C76   C80   1.394838 A    
C66   C72   1.405561 A    
N34   O3    1.301598 A    
N6    Ni6   1.865503 S    
N3    N31   1.379953 A    
C102  H58   1.111863 S    
C57   C79   1.365553 A    
C60   C78   1.359001 A    
N43   O21   1.300853 A    
C83   C85   1.507538 S    
C25   H21   1.072541 S    
C22   C46   1.380395 A    
C75   C79   1.397317 A    
C4    N4    1.324243 A    
C52   C56   1.336106 D    
C81   C87   1.502431 S    
C74   C78   1.395894 A    
C95   C99   1.407076 A    
C88   H52   1.111807 S    
C4    H4    1.080451 S    
C14   C46   1.386820 A    
C48   C55   1.441152 S    
N1    N29   1.379953 A    
C29   N29   1.339501 A    
C12   C44   1.377972 A    
C56   H32   1.083954 S    
C7    N7    1.317611 A    
C18   C42   1.382657 A    
C17   N17   1.340977 A    
C103  C104  1.513474 S    
C8    N8    1.312946 A    
N12   Ni3   1.871623 S    
C9    H9    1.069817 S    
N43   O22   1.300283 A    
C31   N47   1.424917 S    
C2    H2    1.079311 S    
C90   C101  1.509114 S    
N22   Ni2   1.864937 S    
C34   C73   1.459460 S    
C101  N37   1.465083 S    
C89   C102  1.502730 S    
N21   Ni1   1.854412 S    
N38   O11   1.299933 A    
C22   N22   1.330949 A    
C24   H20   1.081072 S    
C98   H54   1.081236 S    
C99   H55   1.082124 S    
N47   O30   1.300389 A    
N9    N17   1.389127 A    
C41   C94   1.457747 S    
C20   C44   1.382238 A    
N44   O24   1.300385 A    
C72   C76   1.418883 A    
C8    C40   1.365048 A    
C51   H27   1.086224 S    
N4    N32   1.379952 A    
C79   C83   1.499844 S    
C99   C100  1.398894 A    
C57   C85   1.498813 S    
C32   N32   1.346135 A    
C12   H12   1.069230 S    
C44   C95   1.451906 S    
C1    N1    1.317148 A    
N6    N26   1.379953 A    
C70   N34   1.435159 S    
C66   H34   1.082845 S    
C81   H37   1.112444 S    
N4    Ni4   1.858505 S    
N32   Ni3   1.846836 S    
C89   C93   1.396626 A    
N36   O7    1.301570 A    
C82   H42   1.111925 S    
N13   N21   1.389374 A    
C3    H3    1.081078 S    
C11   N11   1.323774 A    
N48   O31   1.300346 A    
C30   N30   1.344015 A    
C32   N48   1.428575 S    
N11   N19   1.389127 A    
C14   N42   1.434386 S    
C69   N33   1.438517 S    
C92   C96   1.403913 A    
C5    C37   1.368027 A    
N45   O26   1.300397 A    
C84   C86   1.505412 S    
C94   C98   1.407997 A    
C71   C75   1.422476 A    
C91   C92   1.376404 A    
C60   C88   1.497534 S    
C26   H22   1.078414 S    
N41   O17   1.301200 A    
N12   N20   1.389199 A    
C91   C95   1.396182 A    
C104  H60   1.111928 S    
C16   C48   1.392711 A    
C85   H45   1.112458 S    
C59   C63   1.391195 A    
N5    Ni5   1.854623 S    
N35   O5    1.301640 A    
C59   C77   1.370494 A    
C60   C64   1.390488 A    
C92   C103  1.509634 S    
C18   N18   1.338418 A    
C36   C75   1.462424 S    
C39   C63   1.442637 S    
C17   H13   1.079563 S    
C84   H44   1.111895 S    
C30   N46   1.428658 S    
C28   H24   1.072651 S    
C104  N40   1.466859 S    
C101  H57   1.112065 S    
C24   N24   1.327207 A    
C50   C54   1.344271 D    
C46   C53   1.453618 S    
C93   C97   1.407126 A    
C10   C42   1.377738 A    
C49   C53   1.335052 D    
N23   Ni3   1.854412 S    
C9    C41   1.370319 A    
C33   C74   1.443388 S    
N35   O6    1.299647 A    
N10   N18   1.389199 A    
C51   C55   1.343078 D    
N13   Ni6   1.885616 S    
C11   H11   1.069400 S    
N3    Ni3   1.870398 S    
N16   Ni7   1.875082 S    
N41   O18   1.300294 A    
C57   C61   1.393686 A    
N16   N24   1.389446 A    
N30   Ni1   1.846836 S    
C103  N39   1.465185 S    
N15   Ni8   1.885616 S    
C68   C70   1.402393 A    
N29   Ni2   1.857716 S    
C2    N2    1.325277 A    
C20   H16   1.073608 S    
N7    Ni7   1.854623 S    
C82   H38   1.112522 S    
C19   N19   1.340635 A    
C49   C50   1.454880 S    
N33   O2    1.299912 A    
N17   Ni5   1.870225 S    
C97   C98   1.398802 A    
C20   N20   1.338156 A    
N33   O1    1.301703 A    
N44   O23   1.301108 A    
C67   C69   1.406195 A    
C1    C33   1.368523 A    
C52   H28   1.083736 S    
N19   Ni7   1.870225 S    
N42   O20   1.300296 A    
N10   Ni1   1.871623 S    
C23   H19   1.080522 S    
C65   C71   1.410935 A    
C102  N38   1.466649 S    
N9    Ni2   1.860034 S    
C68   H36   1.083046 S    
C21   N21   1.326290 A    
C72   N36   1.436199 S    
C31   N31   1.339780 A    
C62   C66   1.401542 A    
C15   N15   1.340027 A    
N47   O29   1.300426 A    
N39   O14   1.302002 A    
N2    N30   1.379952 A    
C15   C47   1.387642 A    
C86   H46   1.112495 S    
C80   C84   1.500748 S    
C82   C88   1.506688 S    
N37   O10   1.302070 A    
C21   C45   1.378387 A    
C18   H14   1.073913 S    
C37   C61   1.444335 S    
C91   C104  1.502763 S    
C30   C34   1.390283 A    
C5    H5    1.077848 S    
N38   O12   1.302551 A    
C96   C100  1.407993 A    
C63   C67   1.399489 A    
C23   C47   1.380428 A    
C83   H39   1.112443 S    
C6    N6    1.313850 A    
N37   O9    1.300706 A    
C29   C33   1.386910 A    
C28   N28   1.339730 A    
N34   O4    1.299008 A    
C17   C41   1.384065 A    
C5    N5    1.318078 A    
C27   H23   1.079132 S    
C58   C86   1.499033 S    
C53   H29   1.083903 S    
C31   C35   1.386642 A    
N28   Ni7   1.875382 S    
N20   Ni8   1.858682 S    
N42   O19   1.300600 A    
C38   C62   1.434905 S    
C47   C56   1.453905 S    
N46   O28   1.300818 A    
C88   H48   1.112451 S    
N26   Ni5   1.875382 S    
N36   O8    1.299719 A    
C84   H40   1.112451 S    
C13   N13   1.341598 A    
C101  C102  1.513792 S    
C54   H30   1.084246 S    
C85   H49   1.111815 S    
N24   Ni4   1.864937 S    
C86   H50   1.111888 S    
C3    N3    1.319293 A    
C65   H33   1.082944 S    
C50   H26   1.086110 S    
C14   N14   1.340456 A    
C97   H53   1.082155 S    
C16   N16   1.340241 A    
C59   C87   1.495707 S    
C49   H25   1.083947 S    
C12   N12   1.329623 A    
N15   N23   1.389374 A    
N40   O15   1.299947 A    
C13   N41   1.433771 S    
N5    N25   1.379953 A    
N14   N22   1.389446 A    
N2    Ni2   1.858505 S    
C103  H59   1.112109 S    
C58   C80   1.360953 A    
C32   C36   1.390220 A    
N7    N27   1.379953 A    
C15   N43   1.433860 S    
C87   H51   1.113107 S    
N48   O32   1.300806 A    
N25   Ni6   1.863305 S    
C6    C38   1.369636 A    
C69   C73   1.421329 A    
N40   O16   1.302557 A    
C9    N9    1.323813 A    
C4    C36   1.375578 A    
C10   H10   1.069339 S    
C55   H31   1.084476 S    
