data_mof_unit_40678.cif
_audit_creation_date              2012-12-10T17:05:45-0500
_audit_creation_method            fapswitch 2.2
_symmetry_space_group_name_H-M    P1
_symmetry_Int_Tables_number       1
_space_group_crystal_system       triclinic
_cell_length_a                    15.816575
_cell_length_b                    10.871683
_cell_length_c                    9.999364
_cell_angle_alpha                 108.179231
_cell_angle_beta                  98.133174
_cell_angle_gamma                 94.679309
_cell_volume                      1602.65144485

loop_
_atom_site_label
_atom_site_type_symbol
_atom_type_description
_atom_site_fract_x
_atom_site_fract_y
_atom_site_fract_z
_atom_type_partial_charge
C1    C     C_R   0.499222 0.255825 0.444926 0.847090
C2    C     C_2   0.549024 0.083373 0.534952 0.169325
C3    C     C_2   0.510541 0.885799 0.587267 -0.284708
C4    C     C_R   0.340829 0.499581 0.500096 0.820892
C5    C     C_2   0.550747 0.945334 0.511559 -0.142186
C6    C     C_2   0.496961 0.526451 0.078012 0.413330
C7    C     C_2   0.482475 0.496199 0.921588 0.338354
C8    C     C_R   0.506899 0.745421 0.557020 0.842900
C9    C     C_R   0.659162 0.500448 0.499720 0.789189
C10   C     C_3   0.056967 0.441834 0.610356 -0.463062
C11   C     C_3   0.028939 0.395546 0.337197 0.385263
C12   C     C_3   0.957898 0.431829 0.604942 -0.022094
C13   C     C_3   0.929440 0.405616 0.337107 0.196707
C14   C     C_1   0.748463 0.497595 0.498105 -0.059815
C15   C     C_3   0.081637 0.489061 0.487701 0.072318
C16   C     C_3   0.915157 0.488491 0.489891 0.069995
C17   C     C_3   0.960104 0.629592 0.520395 -0.460390
C18   C     C_3   0.057785 0.629938 0.520073 -0.370288
C19   C     C_1   0.823538 0.493613 0.494823 0.096086
C20   C     C_1   0.174807 0.493840 0.494659 0.026859
C21   C     C_1   0.250979 0.497213 0.499059 -0.027209
C22   C     C_2   0.511008 0.119833 0.425770 -0.296467
Cu1   Cu    Cu3+1 0.514650 0.521810 0.644910 1.069501
Cu2   Cu    Cu3+1 0.485350 0.478190 0.355090 1.085701
H1    H     H_    0.932231 0.327049 0.573932 0.213744
H2    H     H_    0.907901 0.462175 0.266109 0.167575
H3    H     H_    0.093605 0.693298 0.626789 0.192845
H4    H     H_    0.077721 0.675645 0.442715 0.239486
H5    H     H_    0.949459 0.695941 0.624663 0.211274
H6    H     H_    0.969388 0.591401 0.790009 0.253870
H7    H     H_    0.958730 0.445518 0.814817 0.291989
H8    H     H_    0.609955 0.126868 0.742791 0.229476
H9    H     H_    0.642894 0.227447 0.658170 0.229610
H10   H     H_    0.332306 0.241948 0.888617 0.349761
H11   H     H_    0.598265 0.866038 0.141450 0.369806
H12   H     H_    0.091494 0.511163 0.715057 0.235813
H13   H     H_    0.042768 0.251321 0.022642 0.379664
H14   H     H_    0.024206 0.221594 0.386750 0.236986
H15   H     H_    0.112542 0.255208 0.320817 0.225904
H16   H     H_    0.721168 0.197639 0.173877 0.372984
H17   H     H_    0.931703 0.670680 0.437901 0.207649
H18   H     H_    0.585038 0.894690 0.430750 0.231549
H19   H     H_    0.481485 0.941927 0.675213 0.163685
H20   H     H_    0.486966 0.047154 0.321391 0.167973
H21   H     H_    0.599655 0.579025 0.915455 0.230646
H22   H     H_    0.079402 0.346546 0.605405 0.186388
H23   H     H_    0.455039 0.348332 0.076208 0.191666
N1    N     N_2   0.463320 0.445430 0.137380 -0.278109
N2    N     N_2   0.536720 0.554500 0.862620 -0.278420
N3    N     N_3   0.936715 0.496387 0.746453 -0.542332
N4    N     N_3   0.588005 0.175970 0.672570 -0.521626
N5    N     N_3   0.046330 0.259781 0.312543 -0.511664
O1    O     O_R   0.507820 0.332330 0.577400 -0.515095
O2    O     O_2   0.372891 0.316312 0.693106 -0.307810
O3    O     O_3   0.326089 0.335288 0.932274 -0.511407
O4    O     O_2   0.467280 0.761344 0.230048 -0.285776
O5    O     O_2   0.612675 0.695060 0.287365 -0.330426
O6    O     O_3   0.578102 0.776732 0.073604 -0.551815
O7    O     O_2   0.031786 0.569519 0.187461 -0.288985
O8    O     O_2   0.154849 0.447907 0.191342 -0.257415
O9    O     O_3   0.009823 0.326452 0.033178 -0.467543
O10   O     O_2   0.885869 0.173725 0.119247 -0.210418
O11   O     O_2   0.857130 0.171951 0.352736 -0.321698
O12   O     O_R   0.483070 0.295500 0.332660 -0.596954
O13   O     O_3   0.757311 0.284014 0.211472 -0.540125
O14   O     O_R   0.391820 0.518430 0.622420 -0.493022
O15   O     O_R   0.367070 0.481600 0.377680 -0.540006
O16   O     O_R   0.516930 0.704500 0.667340 -0.563580
O17   O     O_R   0.492180 0.667670 0.422600 -0.475492
O18   O     O_R   0.632930 0.518400 0.622320 -0.594096
O19   O     O_R   0.608180 0.481570 0.377580 -0.534825
O20   O     O_2   0.318002 0.516780 0.824947 -0.231807
S1    S     S_3+6 0.374516 0.414842 0.837604 0.041573
S2    S     S_3+6 0.539555 0.692272 0.172366 -0.002395
S3    S     S_3+6 0.059152 0.440310 0.187294 0.025024
S4    S     S_3+6 0.857916 0.251889 0.254408 0.008609

loop_
_geom_bond_atom_site_label_1
_geom_bond_atom_site_label_2
_ccdc_geom_bond_type
O5    S2    D    
Cu1   O16   S    
C4    O15   A    
H13   O9    S    
Cu1   Cu2   S    
H8    N4    S    
C8    O16   A    
C6    C7    S    
H9    N4    S    
O2    S1    D    
C17   H5    S    
O8    S3    D    
C12   N3    S    
H23   N1    S    
C13   S4    S    
H21   N2    S    
C12   H1    S    
C9    C14   S    
O10   S4    D    
C20   C21   T    
H15   N5    S    
H6    N3    S    
C1    C22   S    
C7    S1    S    
C17   C18   S    
C11   S3    S    
C2    C22   D    
O9    S3    S    
C4    O14   A    
C4    C21   S    
C11   C13   S    
Cu1   O18   S    
C3    H19   S    
C8    O17   A    
O13   S4    S    
C6    N1    D    
C16   C19   S    
C10   C12   S    
Cu1   O14   S    
Cu1   O1    S    
Cu2   O17   S    
C6    S2    S    
H16   O13   S    
H11   O6    S    
O6    S2    S    
C15   C20   S    
C15   C18   S    
C17   H17   S    
C13   H2    S    
Cu1   N2    S    
C2    C5    S    
H14   N5    S    
O11   S4    D    
H7    N3    S    
O3    S1    S    
C1    O12   A    
O7    S3    D    
C10   H22   S    
H10   O3    S    
C18   H4    S    
C9    O18   A    
C7    N2    D    
C5    H18   S    
Cu2   O12   S    
C3    C8    S    
C2    N4    S    
C13   C16   S    
C1    O1    A    
C16   C17   S    
C10   H12   S    
C11   N5    S    
C9    O19   A    
Cu2   O15   S    
C10   C15   S    
C11   C15   S    
C14   C19   T    
O4    S2    D    
C22   H20   S    
C18   H3    S    
C12   C16   S    
Cu2   O19   S    
O20   S1    D    
C3    C5    D    
Cu2   N1    S    
