data_mof_unit_8022.cif
_audit_creation_date              2012-10-26T19:50:23-0400
_audit_creation_method            fapswitch 2.2
_symmetry_space_group_name_H-M    P1
_symmetry_Int_Tables_number       1
_space_group_crystal_system       triclinic
_cell_length_a                    13.849752
_cell_length_b                    15.221278
_cell_length_c                    15.866
_cell_angle_alpha                 90.291933
_cell_angle_beta                  70.272142
_cell_angle_gamma                 90.18504
_cell_volume                      3148.3676528

loop_
_atom_site_label
_atom_site_type_symbol
_atom_type_description
_atom_site_fract_x
_atom_site_fract_y
_atom_site_fract_z
_atom_type_partial_charge
C1    C     C_R   0.500230 0.670277 0.499998 0.584572
C2    C     C_R   0.573655 0.185322 0.523262 0.194502
C3    C     C_R   0.500819 0.767074 0.499790 -0.034457
C4    C     C_R   0.498993 0.232897 0.499671 -0.035860
C5    C     C_R   0.594744 0.814385 0.472503 0.219374
C6    C     C_R   0.423002 0.186449 0.476050 0.216313
C7    C     C_R   0.593521 0.905699 0.463013 0.244278
C8    C     C_R   0.427792 0.094890 0.468211 0.244435
C9    C     C_R   0.500229 0.951592 0.496304 -0.044068
C10   C     C_R   0.498693 0.048216 0.496609 -0.037214
C11   C     C_R   0.921840 0.475729 0.422830 -0.151931
C12   C     C_R   0.499672 0.329713 0.500236 0.584428
C13   C     C_R   0.086645 0.557051 0.556049 -0.153546
C14   C     C_R   0.819532 0.475344 0.424842 0.025200
C15   C     C_R   0.188127 0.554998 0.555981 0.029066
C16   C     C_R   0.438000 0.500759 0.672234 0.547786
C17   C     C_R   0.562001 0.500619 0.327768 0.544276
C18   C     C_R   0.762562 0.525511 0.574531 0.030017
C19   C     C_R   0.231152 0.445460 0.443593 0.035164
C20   C     C_R   0.863480 0.525624 0.575743 -0.151367
C21   C     C_R   0.130142 0.444539 0.442378 -0.152512
C22   C     C_R   0.945924 0.500785 0.499138 0.025972
C23   C     C_R   0.375794 0.529754 0.094558 -0.141868
C24   C     C_R   0.055261 0.500903 0.499068 0.023671
C25   C     C_R   0.401630 0.506277 0.770371 0.000394
C26   C     C_R   0.598376 0.505885 0.229663 -0.001458
C27   C     C_R   0.265679 0.522331 0.912969 -0.134705
C28   C     C_R   0.734490 0.520645 0.087088 -0.135831
C29   C     C_R   0.297210 0.514372 0.820123 -0.135830
C30   C     C_R   0.702903 0.512988 0.179890 -0.137645
C31   C     C_R   0.473869 0.506552 0.814255 -0.133986
C32   C     C_R   0.526073 0.506806 0.185848 -0.136289
C33   C     C_R   0.444544 0.518319 0.907323 0.031344
C34   C     C_R   0.624414 0.528868 0.905590 -0.137979
C35   C     C_R   0.555537 0.518093 0.092798 0.030027
C36   C     C_R   0.338297 0.523920 0.956880 0.051921
C37   C     C_R   0.661862 0.522806 0.043226 0.051370
C38   C     C_R   0.517624 0.522683 0.952450 0.033357
C39   C     C_R   0.482510 0.522863 0.047690 0.031651
C40   C     C_3   0.275101 0.772250 0.477465 0.022460
C41   C     C_3   0.162687 0.800469 0.511502 -0.269282
C42   C     C_3   0.113634 0.788486 0.439249 -0.492495
C43   C     C_3   0.739469 0.235672 0.477387 0.040112
C44   C     C_3   0.817108 0.165793 0.481323 -0.285213
C45   C     C_R   0.305452 0.531031 0.049702 -0.136367
C46   C     C_3   0.921185 0.181064 0.408976 -0.503534
C47   C     C_3   0.720196 0.758900 0.521480 0.048232
C48   C     C_3   0.787733 0.834615 0.533211 -0.262318
C49   C     C_3   0.834734 0.813216 0.604980 -0.512209
C50   C     C_3   0.254717 0.228386 0.531966 0.048793
C51   C     C_3   0.162522 0.211448 0.501810 -0.255237
C52   C     C_3   0.062059 0.226408 0.578734 -0.494601
C53   C     C_3   0.707503 0.952039 0.330918 0.024434
C54   C     C_3   0.797083 0.014850 0.289886 -0.265682
C55   C     C_3   0.828804 0.016262 0.188013 -0.490593
C56   C     C_R   0.694783 0.529640 0.950435 -0.135385
C57   C     C_3   0.400096 0.038804 0.345368 0.023081
C58   C     C_3   0.315876 0.007508 0.310226 -0.257859
C59   C     C_3   0.358685 0.986700 0.210296 -0.490460
C60   C     C_R   0.408126 0.905062 0.529218 -0.130944
C61   C     C_R   0.568424 0.094106 0.526783 -0.120380
C62   C     C_R   0.407215 0.813819 0.525187 0.190655
Cu1   Cu    Cu3+1 0.403570 0.500010 0.500000 0.944454
Cu2   Cu    Cu3+1 0.596430 0.499990 0.500000 0.952290
H1    H     H_    0.224484 0.536694 0.088203 0.101619
H2    H     H_    0.111076 0.398687 0.398124 0.081370
H3    H     H_    0.446973 0.496712 0.225818 0.120331
H4    H     H_    0.552766 0.495494 0.774364 0.118508
H5    H     H_    0.760106 0.512538 0.212530 0.121447
H6    H     H_    0.240054 0.514473 0.787425 0.125087
H7    H     H_    0.184433 0.527515 0.950514 0.100500
H8    H     H_    0.815802 0.525112 0.049532 0.100456
H9    H     H_    0.343798 0.537164 0.166195 0.100411
H10   H     H_    0.656462 0.536093 0.833984 0.092665
H11   H     H_    0.335702 0.939333 0.556251 0.179343
H12   H     H_    0.775820 0.534710 0.911945 0.100627
H13   H     H_    0.619821 0.058836 0.552979 0.164889
H14   H     H_    0.280457 0.704764 0.449365 0.170961
H15   H     H_    0.317864 0.816354 0.420929 0.113850
H16   H     H_    0.119457 0.760740 0.570911 0.167669
H17   H     H_    0.157844 0.870727 0.531955 0.166368
H18   H     H_    0.157947 0.824327 0.377472 0.139927
H19   H     H_    0.034474 0.814867 0.463501 0.149597
H20   H     H_    0.110432 0.717649 0.423130 0.158258
H21   H     H_    0.772238 0.301110 0.483198 0.175073
H22   H     H_    0.728978 0.234160 0.410535 0.106829
H23   H     H_    0.981355 0.457484 0.361118 0.084434
H24   H     H_    0.826372 0.167799 0.548186 0.171850
H25   H     H_    0.789086 0.099528 0.471413 0.181473
H26   H     H_    0.913872 0.177728 0.341453 0.141806
H27   H     H_    0.975926 0.129630 0.413431 0.146005
H28   H     H_    0.952377 0.246442 0.417983 0.146461
H29   H     H_    0.766667 0.697885 0.508674 0.169512
H30   H     H_    0.654941 0.748140 0.585147 0.111894
H31   H     H_    0.850080 0.847197 0.468653 0.184777
H32   H     H_    0.740975 0.895113 0.553843 0.187480
H33   H     H_    0.773359 0.803057 0.670614 0.147273
H34   H     H_    0.034023 0.603509 0.599738 0.083747
H35   H     H_    0.884134 0.868617 0.611500 0.148968
H36   H     H_    0.882380 0.752882 0.586659 0.145314
H37   H     H_    0.245663 0.293496 0.565700 0.159848
H38   H     H_    0.253847 0.177545 0.582897 0.119933
H39   H     H_    0.165590 0.255821 0.445671 0.161636
H40   H     H_    0.165043 0.142596 0.477528 0.184119
H41   H     H_    0.057604 0.182845 0.635888 0.145548
H42   H     H_    0.996364 0.211388 0.556169 0.151029
H43   H     H_    0.056108 0.296033 0.601276 0.158197
H44   H     H_    0.640875 0.975725 0.312955 0.107263
H45   H     H_    0.803243 0.454966 0.365697 0.112655
H46   H     H_    0.729490 0.885070 0.302428 0.171529
H47   H     H_    0.773992 0.082202 0.316168 0.159751
H48   H     H_    0.863678 0.994398 0.309260 0.171775
H49   H     H_    0.853930 0.949870 0.159925 0.149253
H50   H     H_    0.893571 0.062858 0.160513 0.144927
H51   H     H_    0.763700 0.037984 0.167266 0.143908
H52   H     H_    0.460842 0.987654 0.330527 0.116461
H53   H     H_    0.433344 0.100853 0.310045 0.148117
H54   H     H_    0.279172 0.947610 0.346972 0.160622
H55   H     H_    0.256347 0.059383 0.322253 0.166130
H56   H     H_    0.210750 0.598341 0.600279 0.151661
H57   H     H_    0.394595 0.046160 0.172012 0.149586
H58   H     H_    0.295486 0.964484 0.186963 0.146611
H59   H     H_    0.416713 0.933501 0.197117 0.143925
H60   H     H_    0.701671 0.546764 0.633861 0.113148
H61   H     H_    0.287549 0.401796 0.399574 0.151532
H62   H     H_    0.875867 0.544257 0.637162 0.084033
N1    N     N_R   0.741310 0.499980 0.500000 -0.221463
N2    N     N_R   0.258690 0.500020 0.500000 -0.235308
O1    O     O_R   0.418570 0.628550 0.499990 -0.476401
O2    O     O_3   0.646768 0.227282 0.550797 -0.546138
O3    O     O_3   0.688681 0.772023 0.446176 -0.545448
O4    O     O_3   0.345711 0.229696 0.456080 -0.550741
O5    O     O_3   0.684693 0.950594 0.424555 -0.586597
O6    O     O_3   0.357052 0.051777 0.438721 -0.576396
O7    O     O_R   0.581430 0.371450 0.500010 -0.470772
O8    O     O_R   0.581440 0.628540 0.499990 -0.481680
O9    O     O_R   0.418560 0.371460 0.500010 -0.481950
O10   O     O_R   0.372890 0.500010 0.629830 -0.511115
O11   O     O_R   0.627110 0.499990 0.370170 -0.515331
O12   O     O_R   0.535760 0.500000 0.629840 -0.518824
O13   O     O_R   0.464240 0.500000 0.370160 -0.517098
O14   O     O_3   0.313521 0.771145 0.549886 -0.559235

loop_
_geom_bond_atom_site_label_1
_geom_bond_atom_site_label_2
_ccdc_geom_bond_type
C53   H46   S    
C25   C31   A    
C14   H45   S    
Cu2   O8    S    
C26   C32   A    
C23   C45   A    
C48   H31   S    
C40   O14   S    
C21   H2    S    
C27   C29   A    
C41   C42   S    
C2    C4    A    
C42   H18   S    
C41   H16   S    
C28   H8    S    
C53   C54   S    
C34   C56   A    
C56   H12   S    
C17   C26   S    
C17   O13   A    
C35   C37   A    
C62   O14   S    
C7    O5    S    
C1    O1    A    
C38   C39   A    
C11   C14   A    
C46   H28   S    
C51   H39   S    
C19   N2    A    
C58   H54   S    
C33   C36   A    
C15   H56   S    
C60   C62   A    
C13   H34   S    
C37   C56   A    
C52   H43   S    
C61   H13   S    
C12   O7    A    
C31   C33   A    
C4    C12   S    
C1    O8    A    
C9    C10   S    
C18   C20   A    
Cu1   N2    S    
C2    C61   A    
C59   H58   S    
Cu2   O7    S    
C52   H42   S    
C25   C29   A    
Cu1   O9    S    
C16   O12   A    
C23   H9    S    
C44   C46   S    
C57   H52   S    
C59   H59   S    
C31   H4    S    
C8    O6    S    
C51   C52   S    
C43   H21   S    
C32   C35   A    
C53   O5    S    
C4    C6    A    
C11   H23   S    
C5    C7    A    
C6    C8    A    
C46   H27   S    
C55   H49   S    
C51   H40   S    
C19   H61   S    
C14   N1    A    
C13   C24   A    
C47   O3    S    
C1    C3    S    
C35   C39   A    
C43   C44   S    
C20   H62   S    
C18   N1    A    
C49   H35   S    
C47   C48   S    
Cu2   N1    S    
C41   H17   S    
C50   C51   S    
Cu1   O13   S    
C40   H15   S    
C42   H20   S    
C36   C45   A    
C17   O11   A    
C50   O4    S    
C34   H10   S    
C32   H3    S    
C6    O4    S    
C40   C41   S    
C20   C22   A    
C52   H41   S    
C50   H38   S    
C15   N2    A    
C13   C15   A    
C45   H1    S    
Cu1   O10   S    
C22   C24   S    
C57   O6    S    
C10   C61   A    
C30   H5    S    
C27   H7    S    
C57   H53   S    
C29   H6    S    
Cu2   O12   S    
C3    C62   A    
C16   C25   S    
C7    C9    A    
C54   C55   S    
C48   C49   S    
C48   H32   S    
C19   C21   A    
C34   C38   A    
C43   H22   S    
C43   O2    S    
C16   O10   A    
C42   H19   S    
C3    C5    A    
C26   C30   A    
C46   H26   S    
C55   H50   S    
C27   C36   A    
C60   H11   S    
C33   C38   A    
C50   H37   S    
C9    C60   A    
C28   C30   A    
C58   C59   S    
C49   H36   S    
C53   H44   S    
C57   C58   S    
C55   H51   S    
C28   C37   A    
C23   C39   A    
C58   H55   S    
C2    O2    S    
C47   H30   S    
C54   H47   S    
C40   H14   S    
Cu1   O1    S    
C47   H29   S    
C49   H33   S    
Cu1   Cu2   S    
C5    O3    S    
C11   C22   A    
C8    C10   A    
C21   C24   A    
C12   O9    A    
C54   H48   S    
C44   H24   S    
C59   H57   S    
C44   H25   S    
C18   H60   S    
Cu2   O11   S    
