data_mof_unit_57217.cif
_audit_creation_date              2012-12-10T20:02:22-0500
_audit_creation_method            fapswitch 2.2
_symmetry_space_group_name_H-M    P1
_symmetry_Int_Tables_number       1
_space_group_crystal_system       triclinic
_cell_length_a                    10.697941
_cell_length_b                    14.908171
_cell_length_c                    14.17147
_cell_angle_alpha                 89.079526
_cell_angle_beta                  89.61049
_cell_angle_gamma                 90.27376
_cell_volume                      2259.79058559

loop_
_atom_site_label
_atom_site_type_symbol
_atom_type_description
_atom_site_fract_x
_atom_site_fract_y
_atom_site_fract_z
_atom_type_partial_charge
C1    C     C_R   0.501552 0.327536 0.500587 0.967618
C2    C     C_R   0.504503 0.672729 0.499244 0.974591
C3    C     C_R   0.871924 0.493804 0.499583 -0.071771
C4    C     C_R   0.127305 0.503618 0.498670 -0.077633
C5    C     C_R   0.937799 0.450131 0.572431 0.016868
C6    C     C_R   0.060900 0.544581 0.424161 0.009439
C7    C     C_R   0.476384 0.087400 0.578093 0.451490
C8    C     C_R   0.497424 0.915398 0.425414 0.416449
C9    C     C_R   0.451728 0.178953 0.571036 0.363830
C10   C     C_R   0.485106 0.821868 0.420739 0.328611
C11   C     C_R   0.515073 0.231382 0.501910 -0.372631
C12   C     C_R   0.526388 0.768934 0.497719 -0.340357
C13   C     C_R   0.597982 0.192137 0.437230 0.430043
C14   C     C_R   0.595189 0.807656 0.571652 0.453497
C15   C     C_R   0.620255 0.100786 0.444091 -0.266799
C16   C     C_R   0.609545 0.899886 0.574012 -0.275254
C17   C     C_R   0.558327 0.048894 0.512414 -0.066819
C18   C     C_R   0.559798 0.953001 0.502319 -0.075752
C19   C     C_R   0.446011 0.428098 0.106035 0.444677
C20   C     C_R   0.614872 0.524720 0.892636 0.443249
C21   C     C_R   0.442590 0.432223 0.206070 -0.238627
C22   C     C_R   0.606773 0.525201 0.792400 -0.196127
C23   C     C_R   0.259988 0.503225 0.499742 0.849795
C24   C     C_R   0.739709 0.496639 0.499939 0.863535
C25   C     C_R   0.567742 0.563973 0.204471 0.667051
C26   C     C_R   0.397851 0.471867 0.799037 0.656741
C27   C     C_R   0.566104 0.565908 0.104347 -0.432195
C28   C     C_R   0.399097 0.478107 0.898703 -0.452769
C29   C     C_R   0.508285 0.497062 0.053892 0.030827
C30   C     C_R   0.508522 0.499773 0.946999 0.014436
C31   C     C_R   0.166103 0.734044 0.262139 -0.129904
C32   C     C_R   0.746817 0.264992 0.690919 -0.173302
C33   C     C_R   0.125331 0.687208 0.342904 -0.254969
C34   C     C_R   0.803105 0.319225 0.621251 -0.231066
C35   C     C_R   0.119060 0.593441 0.343379 0.146573
C36   C     C_R   0.877225 0.392922 0.646435 0.131449
C37   C     C_R   0.154035 0.546964 0.262290 -0.161844
C38   C     C_R   0.896967 0.410086 0.742334 -0.257294
C39   C     C_R   0.196702 0.593568 0.181909 -0.296952
C40   C     C_R   0.840271 0.355980 0.811959 -0.237768
C41   C     C_R   0.201635 0.688745 0.180304 0.605866
C42   C     C_R   0.762360 0.284205 0.786491 0.588512
C43   C     C_R   0.932850 0.539844 0.426382 -0.267030
C44   C     C_R   0.065974 0.457481 0.571854 -0.265130
H1    H     H_    0.397321 0.379932 0.247561 0.161674
H2    H     H_    0.687490 0.543007 0.750008 0.185243
H3    H     H_    0.096257 0.724122 0.404437 0.140007
H4    H     H_    0.789634 0.303542 0.547671 0.163106
H5    H     H_    0.147473 0.474447 0.261229 0.141930
H6    H     H_    0.955836 0.465569 0.763112 0.165346
H7    H     H_    0.224215 0.554380 0.121847 0.129047
H8    H     H_    0.857383 0.369627 0.885541 0.175317
H9    H     H_    0.880369 0.573171 0.371047 0.174610
H10   H     H_    0.118339 0.423420 0.626301 0.198109
N1    N     N_R   0.500000 0.499980 0.252470 -0.136214
N2    N     N_R   0.500000 0.500020 0.747530 -0.144654
O1    O     O_R   0.500010 0.369070 0.579480 -0.575035
O2    O     O_R   0.499990 0.630930 0.420520 -0.530997
O3    O     O_R   0.500010 0.369060 0.420520 -0.606474
O4    O     O_R   0.499990 0.630940 0.579480 -0.583781
O5    O     O_R   0.316760 0.500010 0.579480 -0.567501
O6    O     O_R   0.683240 0.499990 0.420520 -0.585462
O7    O     O_R   0.316760 0.500000 0.420520 -0.629240
O8    O     O_R   0.683240 0.500000 0.579480 -0.637138
Zn1   Zn    Zn3+2 0.500000 0.500010 0.606140 1.014062
Zn2   Zn    Zn3+2 0.500000 0.499990 0.393860 1.011112
O9    O     O_3   0.242305 0.741914 0.103966 -0.634233
C45   C     C_3   0.253393 0.695016 0.018724 -0.348874
H11   H     H_    0.334056 0.648475 0.021234 0.175510
H12   H     H_    0.272354 0.744273 0.960846 0.209394
H13   H     H_    0.165055 0.659432 0.001202 0.161730
O10   O     O_3   0.708682 0.227845 0.853898 -0.626570
C46   C     C_3   0.615099 0.274987 0.902745 -0.209753
H14   H     H_    0.546566 0.306041 0.853399 0.164347
H15   H     H_    0.656505 0.326556 0.949080 0.170666
H16   H     H_    0.562846 0.226825 0.948805 0.215779
H17   H     H_    0.683716 0.069513 0.394715 0.180115
H18   H     H_    0.656922 0.930258 0.632952 0.204055
O11   O     O_3   0.401276 0.353904 0.058242 -0.621561
C47   C     C_3   0.281317 0.327826 0.090858 -0.381425
H19   H     H_    0.219699 0.386283 0.104519 0.151812
H20   H     H_    0.288555 0.283976 0.154647 0.174548
H21   H     H_    0.235955 0.287795 0.035237 0.201038
O12   O     O_3   0.727508 0.539026 0.938475 -0.614312
C48   C     C_3   0.788858 0.616757 0.903176 -0.362716
H22   H     H_    0.855252 0.640120 0.957438 0.192432
H23   H     H_    0.844599 0.601082 0.839234 0.166073
H24   H     H_    0.722988 0.672928 0.888563 0.179314
O13   O     O_3   0.630929 0.627565 0.257066 -0.583610
C49   C     C_3   0.744844 0.655120 0.214501 -0.393678
H25   H     H_    0.802342 0.688783 0.268415 0.187119
H26   H     H_    0.728238 0.705735 0.157696 0.162860
H27   H     H_    0.799629 0.597337 0.187790 0.186984
O14   O     O_3   0.293618 0.440721 0.751394 -0.590279
C50   C     C_3   0.234194 0.368519 0.800182 -0.299866
H28   H     H_    0.175582 0.331075 0.750253 0.189241
H29   H     H_    0.169798 0.393833 0.855360 0.149213
H30   H     H_    0.302319 0.319870 0.830550 0.193545
H31   H     H_    0.608230 0.621326 0.065577 0.200482
H32   H     H_    0.314752 0.465210 0.939113 0.196637
H33   H     H_    0.169595 0.806631 0.262931 0.150323
H34   H     H_    0.690557 0.208027 0.670700 0.158015
O15   O     O_3   0.428556 0.037589 0.653607 -0.562536
C51   C     C_3   0.312453 0.999648 0.629105 -0.253157
H35   H     H_    0.324721 0.944369 0.578435 0.137771
H36   H     H_    0.246316 0.050271 0.600611 0.146995
H37   H     H_    0.268984 0.970082 0.693782 0.193039
O16   O     O_3   0.451220 0.970348 0.354125 -0.610972
C52   C     C_3   0.322662 0.985064 0.369848 -0.336298
H38   H     H_    0.308799 0.033678 0.427390 0.146374
H39   H     H_    0.269847 0.921915 0.385376 0.172147
H40   H     H_    0.282529 0.015286 0.304839 0.191137
O17   O     O_3   0.364661 0.215698 0.631785 -0.549519
C53   C     C_3   0.254609 0.236448 0.581079 -0.297030
H41   H     H_    0.238254 0.193090 0.518819 0.109057
H42   H     H_    0.256662 0.307670 0.557499 0.173171
H43   H     H_    0.172894 0.226800 0.628721 0.177903
O18   O     O_3   0.420622 0.781997 0.347586 -0.601929
C54   C     C_3   0.477755 0.802473 0.259512 -0.081499
H44   H     H_    0.580797 0.813063 0.263933 0.135944
H45   H     H_    0.432611 0.861626 0.226041 0.191040
H46   H     H_    0.461644 0.745577 0.211723 0.193642
O19   O     O_3   0.664640 0.244650 0.372730 -0.602397
C55   C     C_3   0.621483 0.227018 0.280935 -0.204702
H47   H     H_    0.661231 0.278450 0.231714 0.182996
H48   H     H_    0.517736 0.231481 0.276315 0.155276
H49   H     H_    0.653734 0.160379 0.256868 0.156033
O20   O     O_3   0.643861 0.756060 0.644456 -0.571447
C56   C     C_3   0.767647 0.733068 0.620412 -0.293346
H50   H     H_    0.771772 0.695421 0.553222 0.145258
H51   H     H_    0.805333 0.688622 0.676805 0.177093
H52   H     H_    0.828579 0.793705 0.615550 0.149377

loop_
_geom_bond_atom_site_label_1
_geom_bond_atom_site_label_2
_ccdc_geom_bond_type
C26   O14   S    
C39   H7    S    
C27   C29   A    
C46   H14   S    
C50   H28   S    
C1    C11   S    
C2    C12   S    
O20   C56   S    
C51   H36   S    
C53   H41   S    
C50   H30   S    
O19   C55   S    
C39   C41   A    
C20   C30   A    
C48   H22   S    
O16   C52   S    
C3    C43   A    
C31   H33   S    
C35   C37   A    
C56   H50   S    
C1    O3    A    
O3    Zn2   S    
C13   O19   S    
C2    O4    A    
C23   O7    A    
C54   H46   S    
N2    Zn1   S    
C5    C36   S    
C14   O20   S    
C6    C35   S    
C15   C17   A    
O18   C54   S    
C43   H9    S    
C45   H11   S    
C7    C17   A    
C31   C33   A    
C14   C16   A    
C16   H18   S    
C44   H10   S    
C56   H52   S    
C28   H32   S    
C40   C42   A    
O7    Zn2   S    
C24   O8    A    
C7    O15   S    
C46   H15   S    
C3    C24   S    
O14   C50   S    
C47   H21   S    
C8    O16   S    
C51   H35   S    
O2    Zn2   S    
C21   H1    S    
C54   H45   S    
O6    Zn2   S    
C48   H23   S    
O9    C45   S    
O12   C48   S    
C41   O9    S    
C47   H20   S    
C52   H40   S    
O1    Zn1   S    
C21   N1    A    
C4    C23   S    
C47   H19   S    
C22   N2    A    
C4    C44   A    
C40   H8    S    
C8    C18   A    
C32   C34   A    
C29   C30   S    
C10   O18   S    
C1    O1    A    
C37   H5    S    
C49   H26   S    
C13   C15   A    
C27   H31   S    
C42   O10   S    
C17   C18   S    
C16   C18   A    
C19   O11   S    
C9    C11   A    
C10   C12   A    
C55   H49   S    
C4    C6    A    
C22   H2    S    
C5    C44   A    
C12   C14   A    
O4    Zn1   S    
C6    C43   A    
C20   O12   S    
C33   H3    S    
C46   H16   S    
C32   H34   S    
C34   H4    S    
C19   C29   A    
N1    Zn2   S    
C49   H27   S    
C55   H48   S    
O17   C53   S    
C48   H24   S    
C7    C9    A    
C24   O6    A    
C31   C41   A    
C19   C21   A    
C25   O13   S    
C25   N1    A    
C20   C22   A    
O10   C46   S    
C3    C5    A    
C26   N2    A    
C53   H42   S    
C54   H44   S    
C50   H29   S    
C38   H6    S    
C25   C27   A    
C26   C28   A    
C9    O17   S    
O8    Zn1   S    
C52   H39   S    
C28   C30   A    
C37   C39   A    
C52   H38   S    
C38   C40   A    
C11   C13   A    
C49   H25   S    
C15   H17   S    
C45   H13   S    
C36   C38   A    
C33   C35   A    
C34   C36   A    
C2    O2    A    
C53   H43   S    
O11   C47   S    
O5    Zn1   S    
C23   O5    A    
C8    C10   A    
O15   C51   S    
C45   H12   S    
C32   C42   A    
O13   C49   S    
C51   H37   S    
C55   H47   S    
C56   H51   S    
