data_mof_unit_35822.cif
_audit_creation_date              2012-12-10T17:38:13-0500
_audit_creation_method            fapswitch 2.2
_symmetry_space_group_name_H-M    P1
_symmetry_Int_Tables_number       1
_space_group_crystal_system       triclinic
_cell_length_a                    12.151866
_cell_length_b                    13.00449
_cell_length_c                    19.110408
_cell_angle_alpha                 92.628936
_cell_angle_beta                  86.405652
_cell_angle_gamma                 91.736322
_cell_volume                      3009.74313452

loop_
_atom_site_label
_atom_site_type_symbol
_atom_type_description
_atom_site_fract_x
_atom_site_fract_y
_atom_site_fract_z
_atom_type_partial_charge
C1    C     C_R   0.520405 0.699844 0.499142 0.912857
C2    C     C_R   0.479876 0.300452 0.505177 0.916060
C3    C     C_R   0.470285 0.190297 0.515673 -0.140100
C4    C     C_R   0.530897 0.810810 0.497073 -0.141451
C5    C     C_R   0.627721 0.963271 0.454966 0.055777
C6    C     C_R   0.360696 0.038318 0.546516 0.087587
C7    C     C_R   0.616612 0.855876 0.454967 0.020527
C8    C     C_R   0.368093 0.144623 0.538171 0.001190
C9    C     C_R   0.450899 0.871998 0.534054 0.029571
C10   C     C_R   0.564687 0.129662 0.503809 0.046706
C11   C     C_R   0.452673 0.977541 0.525283 0.075099
C12   C     C_R   0.549492 0.023605 0.494572 0.014815
C13   C     C_R   0.957182 0.407167 0.428895 0.048256
C14   C     C_R   0.040777 0.574877 0.579099 0.033172
C15   C     C_R   0.841639 0.416032 0.436192 0.155397
C16   C     C_R   0.157273 0.571452 0.570012 0.163691
C17   C     C_R   0.857718 0.539378 0.530672 0.184102
C18   C     C_R   0.143456 0.466053 0.465767 0.187308
C19   C     C_R   0.974272 0.526623 0.528583 -0.026656
C20   C     C_R   0.025572 0.465313 0.474209 -0.035134
C21   C     C_R   0.499830 0.497859 0.634360 0.864588
C22   C     C_R   0.499894 0.498632 0.365707 0.898335
C23   C     C_R   0.408050 0.444917 0.747997 0.104948
C24   C     C_R   0.583648 0.526607 0.245937 0.088953
C25   C     C_R   0.413569 0.432250 0.819377 -0.246500
C26   C     C_R   0.582135 0.506979 0.173938 -0.234138
C27   C     C_R   0.509261 0.460416 0.853516 0.025860
C28   C     C_R   0.496061 0.447989 0.145601 0.028890
C29   C     C_R   0.602757 0.503202 0.815956 0.122188
C30   C     C_R   0.410450 0.404596 0.189313 0.127449
C31   C     C_R   0.595913 0.515522 0.743910 -0.251989
C32   C     C_R   0.414365 0.423363 0.261849 -0.258561
C33   C     C_R   0.499864 0.487425 0.710023 -0.066968
C34   C     C_R   0.498703 0.484994 0.289933 -0.066932
C35   C     C_R   0.495376 0.439241 0.069769 0.275648
C36   C     C_R   0.504612 0.450041 0.929241 0.281371
H1    H     H_    0.342481 0.399218 0.848334 0.150857
H2    H     H_    0.646710 0.540749 0.139761 0.149250
H3    H     H_    0.664916 0.547710 0.713256 0.148815
H4    H     H_    0.353726 0.388346 0.297484 0.142078
N1    N     N_R   0.591607 0.415552 0.961498 -0.193148
N2    N     N_R   0.407724 0.471931 0.037503 -0.185529
N3    N     N_R   0.587486 0.411137 0.030865 -0.175741
N4    N     N_R   0.412037 0.476675 0.968242 -0.174721
N5    N     N_R   0.207800 0.519350 0.512860 -0.139470
N6    N     N_R   0.792200 0.480650 0.487140 -0.138416
O1    O     O_R   0.421690 0.658830 0.503430 -0.653349
O2    O     O_R   0.578310 0.341170 0.496570 -0.630991
O3    O     O_R   0.609320 0.646410 0.495180 -0.607229
O4    O     O_R   0.390680 0.353590 0.504820 -0.602842
O5    O     O_R   0.406160 0.506220 0.605990 -0.589261
O6    O     O_R   0.593840 0.493780 0.394010 -0.605604
O7    O     O_R   0.593780 0.493810 0.597740 -0.649073
O8    O     O_R   0.406220 0.506190 0.402260 -0.648046
Zn1   Zn    Zn3+2 0.374720 0.508290 0.505510 0.933336
Zn2   Zn    Zn3+2 0.625280 0.491710 0.494490 0.929972
N7    N     N_3   0.310365 0.411476 0.714154 -0.414374
H5    H     H_    0.296763 0.332998 0.722189 0.169795
H6    H     H_    0.243675 0.451079 0.738432 0.191493
N8    N     N_3   0.669657 0.590838 0.274018 -0.444043
H7    H     H_    0.668244 0.662563 0.251555 0.175447
H8    H     H_    0.745237 0.557880 0.258496 0.179160
N9    N     N_3   0.003673 0.337265 0.375408 -0.441297
H9    H     H_    0.970466 0.263380 0.383701 0.199267
H10   H     H_    0.981716 0.359913 0.326478 0.195662
N10   N     N_3   0.989919 0.620594 0.642534 -0.453020
H11   H     H_    0.021423 0.587943 0.685839 0.195371
H12   H     H_    0.006990 0.699880 0.644242 0.185425
C37   C     C_3   0.706247 0.536984 0.853352 -0.403422
C38   C     C_3   0.796157 0.595346 0.809364 -0.371589
C39   C     C_3   0.892343 0.629645 0.853373 -0.872594
H13   H     H_    0.863628 0.682510 0.897631 0.263358
H14   H     H_    0.930290 0.561810 0.874475 0.262800
H15   H     H_    0.955988 0.670907 0.820166 0.247973
H16   H     H_    0.828749 0.544418 0.765013 0.231136
H17   H     H_    0.761127 0.664772 0.788308 0.228600
H18   H     H_    0.680901 0.587758 0.899611 0.211505
H19   H     H_    0.743875 0.467344 0.872162 0.218734
C40   C     C_3   0.318719 0.338204 0.157651 -0.411400
C41   C     C_3   0.238067 0.284164 0.210343 -0.364360
C42   C     C_3   0.152871 0.217205 0.172688 -0.870462
H20   H     H_    0.104295 0.264968 0.139790 0.262332
H21   H     H_    0.194231 0.156215 0.138952 0.262691
H22   H     H_    0.095511 0.179904 0.212017 0.250053
H23   H     H_    0.284207 0.234333 0.243359 0.227499
H24   H     H_    0.193341 0.342608 0.244599 0.231976
H25   H     H_    0.269876 0.387594 0.126049 0.218794
H26   H     H_    0.357660 0.278102 0.121790 0.206439
N11   N     N_3   0.674423 0.174300 0.509675 -0.412310
H27   H     H_    0.674467 0.215720 0.557920 0.190873
H28   H     H_    0.731427 0.117659 0.516397 0.187872
N12   N     N_3   0.372833 0.829519 0.584889 -0.440979
H29   H     H_    0.309310 0.792651 0.558278 0.214913
H30   H     H_    0.412117 0.780299 0.616519 0.168273
N13   N     N_3   0.273704 0.206772 0.556039 -0.415842
H31   H     H_    0.209758 0.182800 0.524464 0.182119
H32   H     H_    0.248192 0.198138 0.608733 0.177423
N14   N     N_3   0.690857 0.792197 0.411957 -0.425935
H33   H     H_    0.685366 0.809287 0.359419 0.178543
H34   H     H_    0.771393 0.808156 0.426306 0.177157
N15   N     N_3   0.710768 0.011428 0.409500 -0.453263
H35   H     H_    0.788344 0.987521 0.421763 0.170585
H36   H     H_    0.697741 0.988166 0.357535 0.184530
N16   N     N_3   0.257401 0.991522 0.570704 -0.450943
H37   H     H_    0.234580 0.022158 0.620840 0.183405
H38   H     H_    0.196929 0.007102 0.536417 0.173367
N17   N     N_3   0.194506 0.415581 0.404918 -0.446806
H39   H     H_    0.223506 0.472066 0.370839 0.199525
H40   H     H_    0.257420 0.369553 0.418922 0.230994
N18   N     N_3   0.812108 0.624011 0.572035 -0.445341
H41   H     H_    0.785526 0.678242 0.538803 0.209920
H42   H     H_    0.748291 0.598979 0.606140 0.216099
N19   N     N_3   0.221568 0.616984 0.624331 -0.431142
H43   H     H_    0.188111 0.686883 0.642576 0.139937
H44   H     H_    0.296025 0.640997 0.601115 0.234215
N20   N     N_3   0.779206 0.361178 0.384759 -0.475720
H45   H     H_    0.753544 0.412580 0.349263 0.213374
H46   H     H_    0.713498 0.319918 0.408002 0.253401

loop_
_geom_bond_atom_site_label_1
_geom_bond_atom_site_label_2
_ccdc_geom_bond_type
N10   H12   S    
N9    H10   S    
N15   H35   S    
C7    N14   S    
C27   C29   A    
N17   H40   S    
C37   H18   S    
N13   H31   S    
O2    Zn2   S    
C16   N19   S    
N16   H38   S    
C42   H20   S    
C36   N1    A    
C22   O8    A    
C22   O6    A    
C24   C26   A    
N7    H6    S    
C21   C33   S    
N20   H45   S    
N8    H8    S    
C35   N2    A    
C18   N17   S    
N16   H37   S    
C41   H24   S    
C2    O4    A    
C25   H1    S    
N18   H41   S    
C19   C20   A    
C10   N11   S    
N20   H46   S    
C23   C33   A    
N17   H39   S    
C31   C33   A    
C38   C39   S    
C6    N16   S    
N11   H28   S    
C35   N3    A    
C18   C20   A    
C23   C25   A    
N10   H11   S    
N15   H36   S    
C17   N18   S    
N1    N3    A    
C37   H19   S    
C8    N13   S    
N2    N4    A    
C4    C7    A    
C9    N12   S    
C40   H25   S    
C40   H26   S    
C42   H21   S    
C29   C37   S    
C22   C34   S    
C5    N15   S    
C17   N6    A    
C28   C35   S    
C5    C12   A    
C3    C8    A    
C6    C11   A    
C5    C7    A    
C1    O1    A    
C6    C8    A    
C2    O2    A    
C24   C34   A    
N9    H9    S    
N8    H7    S    
C32   C34   A    
C41   H23   S    
C21   O7    A    
C13   N9    S    
C24   N8    S    
N12   H30   S    
C14   N10   S    
C9    C11   A    
C10   C12   A    
C30   C40   S    
N14   H34   S    
C13   C15   A    
C38   H17   S    
C14   C16   A    
C36   N4    A    
N6    Zn2   S    
C18   N5    A    
C21   O5    A    
C42   H22   S    
O1    Zn1   S    
N19   H43   S    
O7    Zn2   S    
C23   N7    S    
O8    Zn1   S    
C13   C20   A    
C14   C19   A    
C26   H2    S    
C41   C42   S    
C16   N5    A    
C39   H15   S    
C11   C12   A    
N13   H32   S    
C27   C36   S    
C25   C27   A    
O3    Zn2   S    
C26   C28   A    
O4    Zn1   S    
C1    C4    S    
C28   C30   A    
C2    C3    S    
C4    C9    A    
C39   H13   S    
C29   C31   A    
C3    C10   A    
C30   C32   A    
N7    H5    S    
N12   H29   S    
C17   C19   A    
C31   H3    S    
O5    Zn1   S    
C32   H4    S    
C37   C38   S    
N18   H42   S    
C40   C41   S    
N5    Zn1   S    
N14   H33   S    
C39   H14   S    
C38   H16   S    
C15   N20   S    
C15   N6    A    
N11   H27   S    
C1    O3    A    
O6    Zn2   S    
N19   H44   S    
