data_mof_unit_10961.cif
_audit_creation_date              2012-12-10T18:01:17-0500
_audit_creation_method            fapswitch 2.2
_symmetry_space_group_name_H-M    P1
_symmetry_Int_Tables_number       1
_space_group_crystal_system       triclinic
_cell_length_a                    18.276855
_cell_length_b                    18.330167
_cell_length_c                    25.99453
_cell_angle_alpha                 90.031265
_cell_angle_beta                  89.984602
_cell_angle_gamma                 90.241602
_cell_volume                      8708.55133705

loop_
_atom_site_label
_atom_site_type_symbol
_atom_type_description
_atom_site_fract_x
_atom_site_fract_y
_atom_site_fract_z
_atom_type_partial_charge
C1    C     C_R   0.858751 0.139061 0.751660 0.844893
C2    C     C_R   0.201000 0.191302 0.244186 -0.188143
C3    C     C_R   0.238355 0.685420 0.225452 -0.215487
C4    C     C_3   0.286897 0.880989 0.690935 -0.266537
C5    C     C_3   0.312050 0.935648 0.731869 -0.845747
C6    C     C_3   0.708552 0.882844 0.699282 -0.423820
C7    C     C_3   0.734795 0.912247 0.647285 -0.507771
C8    C     C_3   0.706151 0.909151 0.235207 -0.355548
C9    C     C_3   0.684253 0.940597 0.287500 -0.685138
C10   C     C_3   0.302192 0.895855 0.269975 -0.417454
C11   C     C_3   0.290018 0.942349 0.318017 -0.529791
C12   C     C_3   0.786930 0.381022 0.190983 -0.266635
C13   C     C_R   0.192075 0.199771 0.745507 -0.137143
C14   C     C_3   0.812050 0.435667 0.231937 -0.845687
C15   C     C_3   0.208623 0.382782 0.199155 -0.423797
C16   C     C_3   0.234990 0.412118 0.147169 -0.507628
C17   C     C_3   0.205993 0.409207 0.735739 -0.355855
C18   C     C_3   0.184362 0.440273 0.788198 -0.684835
C19   C     C_3   0.802160 0.395542 0.770368 -0.417984
C20   C     C_3   0.790257 0.441760 0.818566 -0.529872
C21   C     C_R   0.801901 0.194936 0.754659 -0.184246
C22   C     C_R   0.299769 0.692072 0.745222 -0.150321
C23   C     C_R   0.700995 0.691311 0.744186 -0.188211
C24   C     C_R   0.692093 0.699762 0.245532 -0.137168
C25   C     C_R   0.302024 0.695078 0.254608 -0.183315
C26   C     C_R   0.799610 0.246110 0.206509 0.395242
C27   C     C_R   0.200814 0.246212 0.205951 0.354963
C28   C     C_R   0.171491 0.272971 0.735506 0.429695
C29   C     C_R   0.138926 0.140975 0.748856 0.909507
C30   C     C_R   0.811447 0.259879 0.784039 0.340605
C31   C     C_R   0.299591 0.746086 0.706493 0.395286
C32   C     C_R   0.700775 0.746261 0.705978 0.354924
C33   C     C_R   0.671571 0.772929 0.235336 0.429805
C34   C     C_R   0.311774 0.760217 0.283773 0.339522
C35   C     C_R   0.259505 0.809949 0.715095 0.030489
C36   C     C_R   0.741737 0.809719 0.714820 0.081332
C37   C     C_R   0.725948 0.828453 0.239390 0.022476
C38   C     C_R   0.267350 0.820134 0.272176 0.076785
C39   C     C_R   0.759525 0.309971 0.215118 0.030405
C40   C     C_R   0.141904 0.138020 0.247932 0.833285
C41   C     C_R   0.241773 0.309677 0.214776 0.081213
C42   C     C_R   0.225864 0.328495 0.739594 0.022500
C43   C     C_R   0.767173 0.319888 0.772426 0.077521
C44   C     C_R   0.199736 0.806409 0.750281 -0.072145
C45   C     C_R   0.801284 0.805547 0.749816 -0.093730
C46   C     C_R   0.799960 0.807466 0.247300 -0.055185
C47   C     C_R   0.199266 0.806664 0.248070 -0.082069
C48   C     C_R   0.699742 0.306416 0.250291 -0.072116
C49   C     C_R   0.301287 0.305542 0.249805 -0.093695
C50   C     C_R   0.299926 0.307489 0.747278 -0.055428
C51   C     C_R   0.858247 0.138254 0.248224 0.858546
C52   C     C_R   0.699218 0.306589 0.748103 -0.082557
C53   C     C_R   0.001459 0.933815 0.973394 -0.166092
C54   C     C_R   0.001483 0.933805 0.026572 -0.169755
C55   C     C_R   0.501445 0.433815 0.473394 -0.166053
C56   C     C_R   0.501468 0.433804 0.526572 -0.169797
C57   C     C_R   0.999860 0.000073 0.053374 -0.009939
C58   C     C_R   0.999798 0.000095 0.946650 -0.010148
C59   C     C_R   0.499862 0.500073 0.553374 -0.009872
C60   C     C_R   0.499801 0.500095 0.446650 -0.010038
C61   C     C_R   0.998102 0.066392 0.026648 -0.106331
C62   C     C_R   0.358787 0.639105 0.251638 0.845067
C63   C     C_R   0.998040 0.066397 0.973449 -0.142641
C64   C     C_R   0.498123 0.566392 0.526648 -0.106408
C65   C     C_R   0.498061 0.566398 0.473449 -0.143112
C66   C     C_R   0.141527 0.861145 0.750686 0.809585
C67   C     C_R   0.858598 0.861148 0.750749 0.845535
C68   C     C_R   0.859216 0.860728 0.249528 0.811812
C69   C     C_R   0.141447 0.861346 0.248817 0.828732
C70   C     C_R   0.641528 0.361147 0.250688 0.809613
C71   C     C_R   0.358599 0.361146 0.250745 0.845526
C72   C     C_R   0.359196 0.360744 0.749513 0.811902
C73   C     C_R   0.638924 0.640979 0.248855 0.909600
C74   C     C_R   0.641437 0.361327 0.748827 0.828476
C75   C     C_R   0.999931 0.000029 0.890951 0.791360
C76   C     C_R   0.999971 0.000008 0.109057 0.822252
C77   C     C_R   0.499932 0.500029 0.390951 0.791115
C78   C     C_R   0.499971 0.500008 0.609057 0.822209
C79   C     C_R   0.000129 0.998632 0.608936 1.147073
C80   C     C_R   0.000167 0.000570 0.391275 1.126405
C81   C     C_R   0.500127 0.498653 0.108937 1.147003
C82   C     C_R   0.500166 0.500601 0.891275 1.126229
C83   C     C_3   0.940680 0.945427 0.528932 0.166593
C84   C     C_R   0.641903 0.638021 0.747931 0.833180
C85   C     C_3   0.077743 0.974968 0.531648 0.152690
C86   C     C_3   0.080056 0.987442 0.472541 0.183571
C87   C     C_3   0.946318 0.940382 0.468574 0.149564
C88   C     C_3   0.440766 0.445363 0.028929 0.166650
C89   C     C_3   0.577776 0.475150 0.031650 0.152668
C90   C     C_3   0.580073 0.487657 0.972552 0.183562
C91   C     C_3   0.446421 0.440329 0.968572 0.149522
C92   C     C_3   0.986265 0.084945 0.532303 0.359633
C93   C     C_3   0.969115 0.081241 0.469542 0.378861
C94   C     C_3   0.486089 0.584956 0.032307 0.359326
C95   C     C_R   0.358245 0.638252 0.748224 0.858613
C96   C     C_3   0.468947 0.581225 0.969544 0.378909
C97   C     C_3   0.000744 0.000378 0.551745 -0.533977
C98   C     C_3   0.999673 0.001815 0.448865 -0.531739
C99   C     C_3   0.500730 0.500415 0.051747 -0.533926
C100  C     C_3   0.499665 0.501860 0.948866 -0.531684
C101  C     C_R   0.193581 0.746966 0.783881 -0.189543
C102  C     C_R   0.808229 0.745159 0.782371 -0.199511
C103  C     C_R   0.818869 0.734283 0.252576 -0.169457
C104  C     C_R   0.185323 0.739007 0.224984 -0.194425
C105  C     C_R   0.693580 0.246965 0.283884 -0.189535
C106  C     C_R   0.799775 0.192080 0.245228 -0.150332
C107  C     C_R   0.308201 0.245184 0.282391 -0.199435
C108  C     C_R   0.318876 0.234282 0.752323 -0.169526
C109  C     C_R   0.685370 0.239043 0.724822 -0.194476
C110  C     C_R   0.745669 0.192495 0.283307 -0.235569
C111  C     C_R   0.255804 0.190776 0.281724 -0.221011
C112  C     C_R   0.265288 0.181085 0.752589 -0.235775
C113  C     C_R   0.738394 0.185439 0.725297 -0.215332
C114  C     C_R   0.245668 0.692495 0.783305 -0.235409
C115  C     C_R   0.755830 0.690751 0.781702 -0.220794
C116  C     C_R   0.765268 0.681095 0.252835 -0.235819
H1    H     H_    0.889140 0.974083 0.536664 0.189996
H2    H     H_    0.852309 0.741464 0.810082 0.191253
H3    H     H_    0.875366 0.718501 0.258387 0.160410
H4    H     H_    0.134294 0.728211 0.205151 0.184879
H5    H     H_    0.649847 0.243653 0.311927 0.190331
H6    H     H_    0.352254 0.241517 0.310126 0.191250
H7    H     H_    0.375401 0.218480 0.757966 0.160623
H8    H     H_    0.634455 0.228369 0.704816 0.184973
H9    H     H_    0.742443 0.149837 0.312017 0.196039
H10   H     H_    0.258823 0.147878 0.310291 0.202206
H11   H     H_    0.280971 0.124801 0.758873 0.162518
H12   H     H_    0.118767 0.013106 0.547709 0.185718
H13   H     H_    0.728526 0.135546 0.703984 0.178633
H14   H     H_    0.242445 0.649843 0.812019 0.195891
H15   H     H_    0.758876 0.647826 0.810247 0.202248
H16   H     H_    0.780908 0.624835 0.259275 0.162381
H17   H     H_    0.228361 0.635404 0.204312 0.178516
H18   H     H_    0.002832 0.882025 0.953336 0.176260
H19   H     H_    0.002863 0.882011 0.046585 0.178269
H20   H     H_    0.502805 0.382024 0.453336 0.176246
H21   H     H_    0.502835 0.382010 0.546585 0.178245
H22   H     H_    0.996730 0.118177 0.046734 0.199637
H23   H     H_    0.103195 0.041676 0.469223 0.197885
H24   H     H_    0.996592 0.118182 0.953419 0.207448
H25   H     H_    0.496764 0.618177 0.546734 0.199601
H26   H     H_    0.496628 0.618183 0.453419 0.207349
H27   H     H_    0.951797 0.745748 0.560366 0.385667
H28   H     H_    0.102587 0.821159 0.625340 0.373673
H29   H     H_    0.260379 0.893934 0.452948 0.400756
H30   H     H_    0.953765 0.806575 0.360096 0.363072
H31   H     H_    0.452234 0.245713 0.060372 0.385680
H32   H     H_    0.602859 0.321270 0.125266 0.373709
H33   H     H_    0.760859 0.395067 0.953053 0.400927
H34   H     H_    0.891393 0.953651 0.454041 0.188457
H35   H     H_    0.454126 0.306558 0.860086 0.363124
H36   H     H_    0.805301 0.107670 0.601957 0.376857
H37   H     H_    0.032986 0.251144 0.581862 0.419769
H38   H     H_    0.115883 0.191193 0.400717 0.385456
H39   H     H_    0.836546 0.136400 0.378713 0.379572
H40   H     H_    0.305133 0.607276 0.102032 0.376855
H41   H     H_    0.532102 0.751116 0.081838 0.419878
H42   H     H_    0.615512 0.691465 0.900736 0.385489
H43   H     H_    0.336376 0.636150 0.878699 0.379607
H44   H     H_    0.941415 0.242333 0.107356 0.403669
H45   H     H_    0.389177 0.473929 0.036659 0.189993
H46   H     H_    0.203827 0.124623 0.131603 0.338061
H47   H     H_    0.977925 0.240933 0.698952 0.388289
H48   H     H_    0.816426 0.174700 0.878699 0.348138
H49   H     H_    0.441385 0.742243 0.607334 0.403624
H50   H     H_    0.703754 0.624747 0.631566 0.338077
H51   H     H_    0.477992 0.740988 0.198770 0.388311
H52   H     H_    0.317169 0.676443 0.379034 0.348389
H53   H     H_    0.267078 0.950664 0.758398 0.253301
H54   H     H_    0.357498 0.912051 0.754748 0.266575
H55   H     H_    0.332115 0.986174 0.712881 0.258394
H56   H     H_    0.618730 0.513354 0.047723 0.185725
H57   H     H_    0.335481 0.871762 0.666305 0.260828
H58   H     H_    0.245777 0.905313 0.665054 0.274683
H59   H     H_    0.745673 0.971790 0.650141 0.212764
H60   H     H_    0.785537 0.884951 0.634680 0.310729
H61   H     H_    0.692027 0.904084 0.617505 0.266522
H62   H     H_    0.647871 0.878317 0.698498 0.225802
H63   H     H_    0.719609 0.923984 0.729772 0.191069
H64   H     H_    0.729419 0.935809 0.315722 0.280011
H65   H     H_    0.670491 0.999225 0.283157 0.235776
H66   H     H_    0.635939 0.911533 0.303286 0.288874
H67   H     H_    0.603081 0.541943 0.969246 0.197866
H68   H     H_    0.752188 0.941640 0.219244 0.184937
H69   H     H_    0.661442 0.918943 0.207565 0.272333
H70   H     H_    0.342939 0.953968 0.337408 0.250228
H71   H     H_    0.253269 0.914056 0.345422 0.310138
H72   H     H_    0.265269 0.995467 0.307380 0.231733
H73   H     H_    0.362033 0.890742 0.263062 0.243261
H74   H     H_    0.281029 0.925590 0.235822 0.182479
H75   H     H_    0.767055 0.450674 0.258450 0.253266
H76   H     H_    0.857478 0.412061 0.254833 0.266557
H77   H     H_    0.832132 0.486199 0.212966 0.258439
H78   H     H_    0.391472 0.453499 0.954036 0.188416
H79   H     H_    0.835533 0.371806 0.166369 0.260802
H80   H     H_    0.745827 0.405353 0.165094 0.274708
H81   H     H_    0.245941 0.471649 0.150014 0.212900
H82   H     H_    0.285716 0.384747 0.134616 0.310686
H83   H     H_    0.192262 0.403989 0.117356 0.266462
H84   H     H_    0.147944 0.378256 0.198302 0.225873
H85   H     H_    0.219604 0.423958 0.229633 0.191084
H86   H     H_    0.229606 0.435112 0.816329 0.280190
H87   H     H_    0.170753 0.498977 0.784122 0.235761
H88   H     H_    0.136008 0.411214 0.803930 0.288656
H89   H     H_    0.149856 0.743663 0.811931 0.190315
H90   H     H_    0.251912 0.441830 0.719746 0.185268
H91   H     H_    0.161113 0.419177 0.708271 0.272278
H92   H     H_    0.843147 0.452265 0.838306 0.250956
H93   H     H_    0.752723 0.413828 0.845624 0.310440
H94   H     H_    0.766537 0.495399 0.808042 0.230938
H95   H     H_    0.861963 0.390356 0.763317 0.242893
H96   H     H_    0.780909 0.425528 0.736350 0.182887
O1    O     O_3   0.000000 1.000000 0.749970 -0.523933
O2    O     O_R   0.646190 0.585480 0.219360 -0.622245
O3    O     O_3   0.347121 0.586612 0.891781 -0.494669
O4    O     O_2   0.832029 0.148940 0.131735 -0.308095
O5    O     O_2   0.793110 0.270106 0.104153 -0.246152
O6    O     O_3   0.923856 0.256858 0.141918 -0.502722
O7    O     O_2   0.085394 0.266159 0.143705 -0.239464
O8    O     O_2   0.206025 0.267795 0.103120 -0.251214
O9    O     O_3   0.153100 0.143291 0.129958 -0.529525
O10   O     O_2   0.044834 0.345767 0.747945 -0.295386
O11   O     O_2   0.090129 0.331067 0.660135 -0.297598
O12   O     O_3   0.027870 0.220938 0.702940 -0.517927
O13   O     O_R   0.646190 0.585480 0.780640 -0.655296
O14   O     O_2   0.946098 0.282352 0.823236 -0.193303
O15   O     O_2   0.844016 0.321968 0.876760 -0.301050
O16   O     O_3   0.868677 0.184593 0.871216 -0.508612
O17   O     O_2   0.332009 0.648879 0.631741 -0.308232
O18   O     O_2   0.293063 0.770022 0.604130 -0.246247
O19   O     O_3   0.423819 0.756818 0.641884 -0.502657
O20   O     O_2   0.585326 0.766270 0.643772 -0.239402
O21   O     O_2   0.705937 0.767947 0.603160 -0.251161
O22   O     O_3   0.653026 0.643416 0.629943 -0.529442
O23   O     O_2   0.545082 0.846274 0.247071 -0.295485
O24   O     O_R   0.353810 0.585480 0.780640 -0.643743
O25   O     O_2   0.590682 0.830264 0.159469 -0.296984
O26   O     O_3   0.527878 0.720897 0.202887 -0.517808
O27   O     O_2   0.447016 0.782314 0.322112 -0.192673
O28   O     O_2   0.345883 0.823443 0.375913 -0.301241
O29   O     O_3   0.369402 0.685810 0.371167 -0.508519
O30   O     O_R   0.146170 0.914530 0.719320 -0.645607
O31   O     O_R   0.853830 0.914530 0.719320 -0.633107
O32   O     O_R   0.853830 0.914530 0.280680 -0.618932
O33   O     O_R   0.146170 0.914530 0.280680 -0.619404
O34   O     O_R   0.646170 0.414530 0.219320 -0.645587
O35   O     O_R   0.353830 0.414530 0.219320 -0.633219
O36   O     O_R   0.353830 0.414530 0.780680 -0.619017
O37   O     O_3   0.000000 1.000000 0.250030 -0.532245
O38   O     O_R   0.646170 0.414530 0.780680 -0.619299
O39   O     O_R   0.085450 0.146180 0.780600 -0.587816
O40   O     O_R   0.914550 0.146180 0.780600 -0.543950
O41   O     O_R   0.914550 0.146180 0.219400 -0.563014
O42   O     O_R   0.085450 0.146180 0.219400 -0.555186
O43   O     O_R   0.585450 0.646180 0.280600 -0.587618
O44   O     O_R   0.414550 0.646180 0.280600 -0.543811
O45   O     O_R   0.414550 0.646180 0.719400 -0.563014
O46   O     O_R   0.585450 0.646180 0.719400 -0.555286
O47   O     O_R   0.914560 0.853830 0.780620 -0.647580
O48   O     O_3   0.500000 0.500000 0.249970 -0.523940
O49   O     O_R   0.085440 0.853830 0.780620 -0.644043
O50   O     O_R   0.085440 0.853830 0.219380 -0.653108
O51   O     O_R   0.914560 0.853830 0.219380 -0.640311
O52   O     O_R   0.414560 0.353830 0.280620 -0.647555
O53   O     O_R   0.585440 0.353830 0.280620 -0.644029
O54   O     O_R   0.585440 0.353830 0.719380 -0.653091
O55   O     O_R   0.414560 0.353830 0.719380 -0.640328
O56   O     O_R   0.000000 0.060730 0.866830 -0.617376
O57   O     O_R   0.000000 0.060730 0.133170 -0.589495
O58   O     O_R   0.500000 0.560730 0.366830 -0.617601
O59   O     O_3   0.500000 0.500000 0.750030 -0.532253
O60   O     O_R   0.500000 0.560730 0.633170 -0.589526
O61   O     O_R   0.939250 0.000010 0.633130 -0.568517
O62   O     O_R   0.060750 0.000010 0.633130 -0.583943
O63   O     O_R   0.060750 0.000010 0.366870 -0.555133
O64   O     O_R   0.939250 0.000010 0.366870 -0.551535
O65   O     O_R   0.439250 0.500010 0.133130 -0.568542
O66   O     O_R   0.560750 0.500010 0.133130 -0.583975
O67   O     O_R   0.560750 0.500010 0.866870 -0.555112
O68   O     O_R   0.439250 0.500010 0.866870 -0.551567
O69   O     O_R   0.000000 0.939270 0.866820 -0.659962
O70   O     O_R   0.853810 0.085480 0.719360 -0.648021
O71   O     O_R   0.000000 0.939270 0.133180 -0.660665
O72   O     O_R   0.500000 0.439270 0.366820 -0.659922
O73   O     O_R   0.500000 0.439270 0.633180 -0.660671
O74   O     O_2   0.921100 0.864871 0.619091 -0.317785
O75   O     O_2   0.842477 0.838189 0.546617 -0.240681
O76   O     O_3   0.974724 0.789887 0.545296 -0.394817
O77   O     O_2   0.118563 0.829136 0.519711 -0.109604
O78   O     O_2   0.192082 0.906335 0.575322 -0.257749
O79   O     O_3   0.070486 0.859073 0.610419 -0.516750
O80   O     O_2   0.129194 0.880246 0.405898 -0.230981
O81   O     O_R   0.146190 0.085480 0.719360 -0.622220
O82   O     O_2   0.189529 0.999786 0.403336 -0.301544
O83   O     O_3   0.223341 0.914961 0.476417 -0.435260
O84   O     O_2   0.021663 0.810455 0.452358 -0.147073
O85   O     O_2   0.888554 0.804925 0.451290 -0.215357
O86   O     O_3   0.954157 0.857498 0.372878 -0.584899
O87   O     O_2   0.421318 0.364793 0.119087 -0.317961
O88   O     O_2   0.342740 0.337965 0.046612 -0.240759
O89   O     O_3   0.475070 0.289888 0.045286 -0.394811
O90   O     O_2   0.618936 0.329419 0.019658 -0.109192
O91   O     O_2   0.692217 0.406716 0.075355 -0.257799
O92   O     O_R   0.146190 0.085480 0.280640 -0.655924
O93   O     O_3   0.570696 0.359146 0.110361 -0.516537
O94   O     O_2   0.629573 0.380516 0.906015 -0.230401
O95   O     O_2   0.689498 0.500270 0.903327 -0.301974
O96   O     O_3   0.723586 0.415721 0.976508 -0.435349
O97   O     O_2   0.522017 0.310557 0.952340 -0.146984
O98   O     O_2   0.388916 0.304762 0.951292 -0.215362
O99   O     O_3   0.454385 0.357479 0.872873 -0.585078
O100  O     O_2   0.940521 0.141058 0.625506 -0.320923
O101  O     O_2   0.896216 0.204385 0.551672 -0.180869
O102  O     O_3   0.835360 0.081119 0.576416 -0.517549
O103  O     O_R   0.853810 0.085480 0.280640 -0.643683
O104  O     O_2   0.086257 0.133215 0.605577 -0.276505
O105  O     O_2   0.134040 0.136994 0.519724 -0.249934
O106  O     O_3   0.042050 0.234558 0.546178 -0.394933
O107  O     O_2   0.980696 0.154655 0.377763 -0.359238
O108  O     O_2   0.992338 0.228585 0.454113 -0.151134
O109  O     O_3   0.102837 0.151004 0.424518 -0.513038
O110  O     O_2   0.817413 0.047762 0.482891 -0.269397
O111  O     O_2   0.848362 0.173846 0.466314 -0.186954
O112  O     O_3   0.847327 0.086859 0.391774 -0.494685
O113  O     O_2   0.440237 0.641014 0.125503 -0.321293
O114  O     O_R   0.353810 0.585480 0.219360 -0.648033
O115  O     O_2   0.395798 0.704225 0.051662 -0.181319
O116  O     O_3   0.335192 0.580848 0.076424 -0.517433
O117  O     O_2   0.585968 0.633388 0.105595 -0.276183
O118  O     O_2   0.633784 0.637266 0.019754 -0.249734
O119  O     O_3   0.541614 0.734661 0.046184 -0.394618
O120  O     O_2   0.480409 0.654659 0.877767 -0.359384
O121  O     O_2   0.491873 0.728612 0.954121 -0.151206
O122  O     O_3   0.602543 0.651261 0.924544 -0.513019
O123  O     O_2   0.317306 0.547466 0.982899 -0.269355
O124  O     O_2   0.348012 0.673603 0.966312 -0.186875
S1    S     S_3+6 0.919257 0.858889 0.561554 0.115943
S2    S     S_3+6 0.065273 0.145938 0.550440 0.111648
S3    S     S_3+6 0.011544 0.155868 0.431387 0.093369
S4    S     S_3+6 0.869173 0.096605 0.454185 0.106180
S5    S     S_3+6 0.413080 0.629404 0.071503 0.102139
S6    S     S_3+6 0.564986 0.646084 0.050453 0.111878
S7    S     S_3+6 0.511237 0.655935 0.931396 0.093248
S8    S     S_3+6 0.368971 0.596402 0.954187 0.106238
S9    S     S_3+6 0.836167 0.229064 0.143944 0.039760
S10   S     S_3+6 0.160199 0.232609 0.144223 0.059610
S11   S     S_3+6 0.082031 0.294257 0.711485 0.040576
S12   S     S_3+6 0.115229 0.889813 0.558208 0.165389
S13   S     S_3+6 0.869216 0.264711 0.839596 0.072329
S14   S     S_3+6 0.336136 0.729011 0.643927 0.039661
S15   S     S_3+6 0.660131 0.732719 0.644255 0.059655
S16   S     S_3+6 0.582251 0.794150 0.211036 0.041031
S17   S     S_3+6 0.370189 0.765486 0.339000 0.072073
S18   S     S_3+6 0.155424 0.943325 0.437937 0.121947
S19   S     S_3+6 0.954031 0.850641 0.437396 0.122422
S20   S     S_3+6 0.419485 0.358795 0.061549 0.115835
S21   S     S_3+6 0.615420 0.390044 0.058188 0.165645
S22   S     S_3+6 0.655585 0.443757 0.937982 0.121848
S23   S     S_3+6 0.454299 0.350608 0.937390 0.122360
S24   S     S_3+6 0.913344 0.129523 0.571504 0.102406
Zn1   Zn    Zn3+2 0.086750 0.999990 0.706190 1.088250
Zn2   Zn    Zn3+2 0.000000 0.086770 0.206250 1.114880
Zn3   Zn    Zn3+2 0.500000 0.586770 0.293750 1.104125
Zn4   Zn    Zn3+2 0.500000 0.586770 0.706250 1.114829
Zn5   Zn    Zn3+2 0.000000 0.913230 0.793740 0.980236
Zn6   Zn    Zn3+2 0.000000 0.913230 0.206260 0.986731
Zn7   Zn    Zn3+2 0.500000 0.413230 0.293740 0.980236
Zn8   Zn    Zn3+2 0.500000 0.413230 0.706260 0.986715
Zn9   Zn    Zn3+2 0.913250 0.999990 0.706190 1.065951
Zn10  Zn    Zn3+2 0.913250 0.999990 0.293810 1.077410
Zn11  Zn    Zn3+2 0.086750 0.999990 0.293810 1.074716
Zn12  Zn    Zn3+2 0.586750 0.499990 0.206190 1.088305
Zn13  Zn    Zn3+2 0.413250 0.499990 0.206190 1.065836
Zn14  Zn    Zn3+2 0.413250 0.499990 0.793810 1.077305
Zn15  Zn    Zn3+2 0.586750 0.499990 0.793810 1.075023
Zn16  Zn    Zn3+2 0.000000 0.086770 0.793750 1.104085

loop_
_geom_bond_atom_site_label_1
_geom_bond_atom_site_label_2
_ccdc_geom_bond_type
C105  C110  A    
O91   S21   D    
C6    H63   S    
O73   Zn8   S    
C19   C20   S    
C96   S8    S    
C71   O35   A    
O84   S19   D    
C1    O40   A    
O96   S22   S    
C89   C99   S    
C81   O65   A    
C57   C76   S    
C17   H90   S    
C13   C112  A    
O109  S3    S    
O99   S23   S    
C80   O64   A    
O4    S9    D    
C7    H61   S    
C61   C63   A    
C50   C72   S    
O123  S8    D    
C9    H66   S    
O115  S5    D    
H51   O26   S    
O54   Zn8   S    
C18   H87   S    
C20   H94   S    
C91   C100  S    
C31   S14   S    
C78   O73   A    
C25   C34   A    
C40   O42   A    
O79   S12   S    
O35   Zn13  S    
H27   O76   S    
O50   Zn6   S    
C41   C49   A    
H28   O79   S    
C86   S18   S    
C2    C111  A    
C23   C84   S    
C19   H96   S    
O112  S4    S    
C32   S15   S    
O87   S20   D    
H29   O83   S    
C81   C99   S    
O9    S10   S    
O29   S17   S    
C48   C105  A    
C44   C101  A    
C76   O57   A    
O118  S6    D    
C26   S9    S    
C94   C96   S    
C6    C7    S    
O25   S16   D    
O92   Zn11  S    
C69   O33   A    
C60   C65   A    
O94   S22   D    
C79   O62   A    
C4    H57   S    
C30   C43   A    
C16   H82   S    
C71   O52   A    
C47   C104  A    
C79   C97   S    
C82   O68   A    
C48   C70   S    
C4    C5    S    
O89   S20   S    
O13   Zn15  S    
C53   C58   A    
C57   C61   A    
H32   O93   S    
C46   C103  A    
O75   S1    D    
C56   C59   A    
C10   C38   S    
C72   O36   A    
O44   Zn3   S    
C103  C116  A    
O70   Zn9   S    
C23   C32   A    
C83   H1    S    
O97   S23   D    
O103  Zn10  S    
C25   C62   S    
C77   O72   A    
C26   C39   A    
O78   S12   D    
O117  S6    D    
C88   C99   S    
C85   C97   S    
C45   C102  A    
O110  S4    D    
C2    C40   S    
C90   H67   S    
O37   Zn2   S    
C49   C71   S    
H49   O19   S    
C107  H6    S    
C14   H77   S    
O37   Zn6   S    
O53   Zn7   S    
H31   O89   S    
H35   O99   S    
O1    Zn9   S    
C85   C86   S    
O76   S1    S    
C88   S20   S    
C32   C36   A    
O47   Zn5   S    
C52   C74   S    
H37   O106  S    
C43   C52   A    
C94   S6    S    
C51   O103  A    
C64   H25   S    
O23   S16   D    
C27   C41   A    
C47   C69   S    
C112  H11   S    
O65   Zn13  S    
O104  S2    D    
H44   O6    S    
O3    S8    S    
H46   O9    S    
C66   O49   A    
C14   H76   S    
O111  S4    D    
O56   Zn16  S    
C86   C98   S    
C84   O13   A    
C59   C78   S    
C15   H85   S    
C92   C97   S    
O1    Zn5   S    
H30   O86   S    
O48   Zn3   S    
C10   H73   S    
H43   O3    S    
C11   H72   S    
O98   S23   D    
C21   C113  A    
C29   O81   A    
O83   S18   S    
O59   Zn4   S    
O15   S13   D    
C46   C68   S    
O22   S15   S    
C116  H16   S    
C88   C91   S    
O63   Zn11  S    
C7    H60   S    
C17   C18   S    
C16   H83   S    
H40   O116  S    
C86   H23   S    
C42   C50   A    
O33   Zn11  S    
O58   Zn3   S    
C61   H22   S    
C24   C116  A    
C30   S13   S    
O19   S14   S    
O39   Zn16  S    
C95   O24   A    
C27   S10   S    
O37   Zn11  S    
O101  S24   D    
O28   S17   D    
O20   S15   D    
C107  C111  A    
O57   Zn2   S    
O68   Zn14  S    
O59   Zn14  S    
C89   C90   S    
O62   Zn1   S    
O124  S8    D    
O86   S19   S    
C15   H84   S    
O16   S13   S    
C54   H19   S    
C96   C100  S    
C6    C36   S    
C87   S19   S    
C9    H65   S    
C10   C11   S    
O60   Zn4   S    
O45   Zn4   S    
C22   C114  A    
C85   H12   S    
C18   H88   S    
C67   O47   A    
O38   Zn15  S    
C54   C57   A    
O17   S14   D    
H50   O22   S    
C83   C87   S    
C55   C56   A    
O40   Zn16  S    
C11   H70   S    
C114  H14   S    
O82   S18   D    
C26   C106  A    
O116  S5    S    
H47   O12   S    
C19   H95   S    
C29   O39   A    
C13   C29   S    
O105  S2    D    
O67   Zn15  S    
C24   C73   S    
O114  Zn13  S    
C55   H20   S    
C22   C95   S    
C17   C42   S    
C102  C115  A    
O71   Zn6   S    
O34   Zn12  S    
C87   H34   S    
O31   Zn9   S    
C45   C67   S    
C13   C28   A    
C2    C27   A    
C78   O60   A    
C89   H56   S    
C87   C98   S    
O7    S10   D    
O66   Zn12  S    
C4    C35   S    
C79   O61   A    
C4    H58   S    
C55   C60   A    
C6    H62   S    
C50   C108  A    
C101  C114  A    
C83   S1    S    
C96   S7    S    
C82   C100  S    
C19   C43   S    
O30   Zn1   S    
C75   O56   A    
O72   Zn7   S    
O90   S21   D    
C92   S24   S    
C81   O66   A    
C17   H91   S    
C15   C41   S    
O2    Zn12  S    
O52   Zn7   S    
C67   O31   A    
C53   C54   A    
C80   O63   A    
C33   C37   A    
C108  C112  A    
C93   S3    S    
O81   Zn1   S    
O119  S6    S    
H52   O29   S    
C3    C25   A    
C111  H10   S    
C18   H86   S    
C20   H93   S    
C70   O34   A    
O1    Zn1   S    
O48   Zn7   S    
C12   H79   S    
C31   C35   A    
O48   Zn13  S    
O77   S12   D    
C8    C37   S    
C108  H7    S    
C51   O41   A    
C34   S17   S    
C62   O114  A    
C80   C98   S    
O55   Zn8   S    
O59   Zn8   S    
C53   H18   S    
O1    Zn16  S    
O11   S11   D    
C69   O50   A    
O12   S11   S    
C21   C30   A    
C24   C33   A    
O51   Zn6   S    
C64   C65   A    
C12   C39   S    
O21   S15   D    
C52   C109  A    
O46   Zn4   S    
C92   C93   S    
C85   S12   S    
O59   Zn15  S    
O42   Zn2   S    
O27   S17   D    
C83   C97   S    
C5    H53   S    
C37   C46   A    
C16   H81   S    
C15   C16   S    
C39   C48   A    
C104  H4    S    
O122  S7    S    
C1    C21   S    
C56   H21   S    
O88   S20   D    
C63   H24   S    
C76   O71   A    
C44   C66   S    
C82   O67   A    
O26   S16   S    
O61   Zn9   S    
C49   C107  A    
C115  H15   S    
O95   S22   D    
C62   O44   A    
C59   C64   A    
C10   H74   S    
C113  H13   S    
C11   H71   S    
C84   O46   A    
O93   S21   S    
C1    O70   A    
C88   H45   S    
H42   O122  S    
C33   S16   S    
O18   S14   D    
H36   O102  S    
C40   O92   A    
O41   Zn2   S    
C89   S21   S    
C73   O43   A    
H33   O96   S    
C91   S23   S    
C8    C9    S    
C7    H59   S    
O85   S19   D    
O43   Zn3   S    
C102  H2    S    
O69   Zn5   S    
C8    H68   S    
O106  S2    S    
O36   Zn14  S    
C3    C104  A    
C90   C100  S    
O10   S11   D    
C74   O38   A    
C58   C75   S    
C28   S11   S    
O37   Zn10  S    
C60   C77   S    
C22   C31   A    
O100  S24   D    
C91   H78   S    
C94   S5    S    
H39   O112  S    
C66   O30   A    
C23   C115  A    
C72   O55   A    
O107  S3    D    
C3    H17   S    
O108  S3    D    
C12   H80   S    
C5    H54   S    
C5    H55   S    
C105  H5    S    
C36   C45   A    
H48   O16   S    
O8    S10   D    
C35   C44   A    
O120  S7    D    
C38   C47   A    
C9    H64   S    
C101  H89   S    
C14   H75   S    
C12   C14   S    
O102  S24   S    
C20   H92   S    
O14   S13   D    
O24   Zn14  S    
O113  S5    D    
C70   O53   A    
C106  C110  A    
C58   C63   A    
C95   O45   A    
C90   S22   S    
O6    S9    S    
C34   C38   A    
C92   S2    S    
O48   Zn12  S    
C103  H3    S    
H41   O119  S    
C109  H8    S    
C109  C113  A    
C8    H69   S    
C75   O69   A    
O74   S1    D    
O64   Zn10  S    
C65   H26   S    
C74   O54   A    
O49   Zn5   S    
C94   C99   S    
C68   O32   A    
C51   C106  S    
C28   C42   A    
C73   O2    A    
O32   Zn10  S    
C110  H9    S    
O5    S9    D    
C93   S4    S    
O121  S7    D    
C77   O58   A    
O80   S18   D    
H38   O109  S    
C93   C98   S    
C68   O51   A    
