data_mof_unit_39174.cif
_audit_creation_date              2013-03-05T16:50:13-0500
_audit_creation_method            fapswitch 2.2
_symmetry_space_group_name_H-M    P1
_symmetry_Int_Tables_number       1
_space_group_crystal_system       triclinic
_cell_length_a                    15.707949
_cell_length_b                    15.020229
_cell_length_c                    10.65727
_cell_angle_alpha                 90.548648
_cell_angle_beta                  92.363083
_cell_angle_gamma                 88.613355
_cell_volume                      2511.47762219

loop_
_atom_site_label
_atom_site_type_symbol
_atom_site_description
_atom_site_fract_x
_atom_site_fract_y
_atom_site_fract_z
_atom_type_partial_charge
O1    O     O_R   0.378020 0.573650 0.500040 -0.615005
O2    O     O_R   0.621980 0.426350 0.499960 -0.613197
O3    O     O_R   0.621980 0.573650 0.499960 -0.608012
O4    O     O_R   0.378020 0.426350 0.500040 -0.609917
C1    C     C_1   0.248477 0.506241 0.493294 -0.201971
C2    C     C_1   0.747568 0.497309 0.464916 -0.207704
C3    C     C_R   0.338168 0.501490 0.501390 0.899287
C4    C     C_R   0.661559 0.499105 0.496308 0.894102
O5    O     O_R   0.499990 0.573670 0.316780 -0.603622
O6    O     O_R   0.500010 0.426330 0.683220 -0.610298
O7    O     O_R   0.500010 0.573670 0.683220 -0.610736
O8    O     O_R   0.499990 0.426330 0.316780 -0.614733
C5    C     C_R   0.515060 0.499284 0.261806 0.883083
C6    C     C_R   0.489225 0.500910 0.740550 0.877038
Zn1   Zn    Zn3+2 0.500000 0.598370 0.500000 0.990790
Zn2   Zn    Zn3+2 0.500000 0.401630 0.500000 0.973533
C7    C     C_R   0.908287 0.495723 0.412281 0.035986
C8    C     C_R   0.082841 0.505671 0.458446 0.033172
C9    C     C_1   0.501885 0.806817 0.500534 0.202464
C10   C     C_1   0.500150 0.192781 0.498762 0.114741
C11   C     C_1   0.819984 0.496018 0.436269 -0.042233
C12   C     C_1   0.172763 0.509166 0.480566 -0.046641
C13   C     C_R   0.561129 0.659316 0.121021 -0.276417
C14   C     C_R   0.451743 0.340905 0.888699 -0.279041
C15   C     C_R   0.472203 0.668872 0.892011 -0.266685
C16   C     C_R   0.550163 0.334789 0.110649 -0.277531
C17   C     C_R   0.546631 0.742894 0.065848 0.258582
C18   C     C_R   0.470915 0.258027 0.944388 0.213467
C19   C     C_R   0.498793 0.748469 0.950518 0.234776
C20   C     C_R   0.528376 0.254624 0.049944 0.209659
C21   C     C_R   0.493951 0.584160 0.942896 0.031146
C22   C     C_R   0.522401 0.417894 0.061028 0.034784
C23   C     C_R   0.529560 0.580628 0.064657 0.034449
C24   C     C_R   0.484647 0.420579 0.940683 0.032557
C25   C     C_R   0.480367 0.502809 0.876533 -0.181616
C26   C     C_R   0.531748 0.498517 0.128160 -0.182214
C27   C     C_R   0.502938 0.904451 0.498810 0.043654
C28   C     C_R   0.501161 0.094466 0.497581 0.022490
C29   C     C_R   0.439501 0.951923 0.426509 -0.014961
C30   C     C_R   0.568481 0.046176 0.562216 -0.008165
C31   C     C_R   0.567687 0.951024 0.566721 0.003706
C32   C     C_R   0.435971 0.046973 0.430627 -0.008621
H1    H     H_    0.599547 0.655817 0.207684 0.199348
H2    H     H_    0.408600 0.343368 0.806871 0.205778
H3    H     H_    0.430821 0.673955 0.808736 0.207988
H4    H     H_    0.591950 0.332535 0.194011 0.205990
N1    N     N_1   0.500000 0.270550 0.500000 -0.092962
N2    N     N_1   0.500000 0.729450 0.500000 -0.085678
C33   C     C_R   0.947094 0.578423 0.400639 -0.054744
C34   C     C_R   0.043510 0.422096 0.464163 -0.057274
C35   C     C_R   0.036030 0.583509 0.422381 -0.052088
C36   C     C_R   0.956538 0.416420 0.430262 -0.058875
C37   C     C_R   0.077381 0.671637 0.418018 0.128134
C38   C     C_R   0.111236 0.710242 0.529384 -0.168429
C39   C     C_R   0.134245 0.799637 0.531933 -0.162512
C40   C     C_R   0.122962 0.851326 0.423887 -0.103071
C41   C     C_R   0.091741 0.812850 0.311787 -0.125134
C42   C     C_R   0.070445 0.722958 0.308086 -0.159658
H5    H     H_    0.115997 0.672378 0.615491 0.134307
H6    H     H_    0.159057 0.829386 0.618412 0.141924
H7    H     H_    0.139425 0.920854 0.426562 0.122940
H8    H     H_    0.083961 0.852716 0.227828 0.132888
H9    H     H_    0.044279 0.694591 0.221405 0.129920
C43   C     C_R   0.919896 0.328474 0.394023 0.133343
C44   C     C_R   0.844537 0.298046 0.444173 -0.163552
C45   C     C_R   0.804599 0.223290 0.392419 -0.101336
C46   C     C_R   0.842668 0.173893 0.297357 -0.092670
C47   C     C_R   0.920110 0.200382 0.251870 -0.166957
C48   C     C_R   0.958072 0.277772 0.298757 -0.140415
H10   H     H_    0.815578 0.332600 0.521583 0.142590
H11   H     H_    0.743702 0.204060 0.425616 0.175201
H12   H     H_    0.812017 0.115334 0.258756 0.157629
H13   H     H_    0.949707 0.162206 0.178087 0.129211
H14   H     H_    0.016221 0.299421 0.258472 0.120852
C49   C     C_R   0.893833 0.658594 0.363614 0.141066
C50   C     C_R   0.845499 0.658056 0.249495 -0.181542
C51   C     C_R   0.798829 0.734016 0.210419 -0.124545
C52   C     C_R   0.800472 0.811330 0.284309 -0.072205
C53   C     C_R   0.847789 0.812405 0.398161 -0.175878
C54   C     C_R   0.893173 0.736046 0.438802 -0.135491
H15   H     H_    0.844981 0.599168 0.190028 0.131882
H16   H     H_    0.762060 0.733193 0.122243 0.149284
H17   H     H_    0.764935 0.870358 0.253600 0.182575
H18   H     H_    0.848638 0.872219 0.455647 0.139677
H19   H     H_    0.928408 0.737630 0.528218 0.133832
C55   C     C_R   0.089077 0.343550 0.523352 0.131196
C56   C     C_R   0.168352 0.312155 0.482251 -0.157912
C57   C     C_R   0.215566 0.248147 0.551519 -0.086656
C58   C     C_R   0.181483 0.209701 0.656501 -0.099482
C59   C     C_R   0.100801 0.236875 0.694330 -0.168899
C60   C     C_R   0.055172 0.304129 0.629122 -0.139329
H20   H     H_    0.194949 0.339191 0.399033 0.139439
H21   H     H_    0.278759 0.228467 0.523763 0.171389
H22   H     H_    0.217692 0.159124 0.708720 0.177513
H23   H     H_    0.074399 0.207275 0.775912 0.131883
H24   H     H_    0.994242 0.326955 0.662925 0.123428
N3    N     N_R   0.566992 0.171878 0.093439 0.219362
O9    O     O_R   0.600696 0.166057 0.206818 -0.442620
O10   O     O_R   0.581675 0.107303 0.014373 -0.326934
N4    N     N_R   0.475608 0.832380 0.891438 0.203880
O11   O     O_R   0.446630 0.833891 0.775319 -0.446204
O12   O     O_R   0.475950 0.906903 0.954411 -0.321210
N5    N     N_R   0.430025 0.179438 0.895358 0.219723
O13   O     O_R   0.399305 0.177347 0.780071 -0.449886
O14   O     O_R   0.411337 0.115598 0.970427 -0.341057
N6    N     N_R   0.579542 0.819991 0.130387 0.221199
O15   O     O_R   0.582757 0.822842 0.252410 -0.456663
O16   O     O_R   0.620817 0.878954 0.070472 -0.378351
C61   C     C_R   0.362467 0.095258 0.365762 0.065746
C62   C     C_R   0.278338 0.070725 0.387290 -0.157297
C63   C     C_R   0.209558 0.109688 0.318736 -0.137713
C64   C     C_R   0.223722 0.175062 0.230175 -0.126629
C65   C     C_R   0.306686 0.201184 0.209567 -0.092231
C66   C     C_R   0.375697 0.161079 0.276153 -0.108753
H25   H     H_    0.266146 0.020926 0.456678 0.138506
H26   H     H_    0.145196 0.089998 0.335449 0.133604
H27   H     H_    0.170375 0.205820 0.178092 0.121167
H28   H     H_    0.317685 0.251820 0.140863 0.142294
H29   H     H_    0.439344 0.180455 0.256296 0.177635
C67   C     C_R   0.634871 0.899805 0.642463 0.063950
C68   C     C_R   0.654558 0.923032 0.768536 -0.000379
C69   C     C_R   0.720643 0.878502 0.836119 -0.094317
C70   C     C_R   0.763108 0.805868 0.782756 -0.173405
C71   C     C_R   0.742235 0.780029 0.659614 -0.119682
C72   C     C_R   0.681007 0.828635 0.588244 -0.160883
H30   H     H_    0.620096 0.976842 0.813739 0.208401
H31   H     H_    0.739148 0.900078 0.930129 0.180329
H32   H     H_    0.812531 0.769963 0.836589 0.129699
H33   H     H_    0.774513 0.723064 0.618811 0.150669
H34   H     H_    0.669626 0.810326 0.490682 0.178145
C73   C     C_R   0.641807 0.094704 0.622182 0.067368
C74   C     C_R   0.628575 0.159360 0.716103 -0.101677
C75   C     C_R   0.697635 0.201186 0.776511 -0.095117
C76   C     C_R   0.780779 0.178027 0.745090 -0.129243
C77   C     C_R   0.794911 0.113252 0.652887 -0.148450
C78   C     C_R   0.725886 0.072379 0.590727 -0.162263
H35   H     H_    0.564927 0.176578 0.743660 0.181060
H36   H     H_    0.686632 0.250959 0.848562 0.142006
H37   H     H_    0.834256 0.210184 0.792237 0.124424
H38   H     H_    0.859350 0.095436 0.628398 0.141087
H39   H     H_    0.737979 0.022995 0.518481 0.141566
C79   C     C_R   0.381194 0.901217 0.338219 0.062894
C80   C     C_R   0.333940 0.829734 0.380665 -0.165334
C81   C     C_R   0.290506 0.774412 0.295059 -0.071399
C82   C     C_R   0.286459 0.794748 0.167530 -0.175650
C83   C     C_R   0.327982 0.869081 0.125112 -0.111311
C84   C     C_R   0.377135 0.920675 0.209197 -0.003867
H40   H     H_    0.332976 0.814882 0.479808 0.148933
H41   H     H_    0.258397 0.716744 0.328156 0.159389
H42   H     H_    0.250593 0.753330 0.101791 0.135295
H43   H     H_    0.323268 0.885558 0.026487 0.191305
H44   H     H_    0.412683 0.975194 0.173587 0.210831

loop_
_geom_bond_atom_site_label_1
_geom_bond_atom_site_label_2
_geom_bond_distance
_ccdc_geom_bond_type
C15   C21   1.416571 A    
C56   C57   1.397570 A    
C16   C22   1.412536 A    
C40   H7    1.081753 S    
C17   C19   1.416029 A    
C63   C64   1.396471 A    
C39   C40   1.397754 A    
C33   C35   1.410411 A    
C82   C83   1.394837 A    
C41   C42   1.398652 A    
C70   C71   1.393315 A    
C51   C52   1.396998 A    
C20   N3    1.441832 S    
C81   H41   1.082015 S    
C22   C26   1.408270 A    
C32   C61   1.496737 S    
C46   H12   1.082549 S    
C55   C60   1.407986 A    
C64   H27   1.082376 S    
O7    C6    1.275397 A    
N6    O15   1.299661 A    
C44   H10   1.080851 S    
C69   H31   1.080568 S    
C23   C26   1.411486 A    
C13   H1    1.083235 S    
C40   C41   1.397830 A    
Zn2   N1    1.968853 S    
C24   C25   1.416268 A    
C58   H22   1.082320 S    
O5    C5    1.278180 A    
C62   C63   1.398583 A    
C9    N2    1.163117 T    
C60   H24   1.083296 S    
C38   C39   1.398669 A    
O7    Zn1   1.991037 S    
C52   H17   1.082276 S    
C1    C12   1.191250 T    
O8    Zn2   1.991037 S    
C47   C48   1.397967 A    
C13   C23   1.412039 A    
C34   C36   1.403044 A    
C33   C49   1.496275 S    
C63   H26   1.082409 S    
O1    Zn1   1.960519 S    
C13   C17   1.400990 A    
O2    Zn2   1.960519 S    
C49   C54   1.406348 A    
C82   H42   1.082282 S    
C45   C46   1.395892 A    
C75   H36   1.082635 S    
C8    C12   1.424558 S    
C56   H20   1.082428 S    
C80   H40   1.082760 S    
Zn1   N2    1.968853 S    
O4    C3    1.277541 A    
C72   H34   1.081780 S    
C7    C36   1.406664 A    
C64   C65   1.396600 A    
N3    O10   1.301356 A    
C8    C35   1.413857 A    
N3    O9    1.301915 A    
C29   C32   1.427729 A    
C38   H5    1.083247 S    
C15   C19   1.407490 A    
C77   H38   1.082417 S    
C21   C23   1.392690 A    
C83   C84   1.399383 A    
C46   C47   1.396010 A    
C77   C78   1.398755 A    
C50   C51   1.398573 A    
C5    C26   1.458699 S    
O3    C4    1.268533 A    
C36   C43   1.494696 S    
C7    C33   1.405629 A    
C6    C25   1.461514 S    
C1    C3    1.408060 S    
C16   H4    1.082891 S    
C55   C56   1.406232 A    
C74   C75   1.397695 A    
C2    C4    1.404715 S    
C17   N6    1.437260 S    
C41   H8    1.082506 S    
C47   H13   1.082522 S    
C37   C38   1.406182 A    
C2    C11   1.189524 T    
C14   C24   1.414149 A    
C65   H28   1.082537 S    
C83   H43   1.081278 S    
C35   C37   1.490487 S    
C22   C24   1.391168 A    
O4    Zn2   1.942875 S    
C49   C50   1.406981 A    
C54   H19   1.082439 S    
C10   C28   1.476367 S    
C45   H11   1.080217 S    
C29   C79   1.501072 S    
N4    O12   1.299618 A    
C48   H14   1.083407 S    
N5    O14   1.301304 A    
C43   C48   1.408417 A    
O8    C5    1.279187 A    
C68   C69   1.399145 A    
C61   C66   1.406063 A    
C30   C31   1.430847 A    
C30   C73   1.495787 S    
C16   C20   1.404384 A    
O6    C6    1.281847 A    
C75   C76   1.396668 A    
C14   H2    1.082494 S    
C21   C25   1.422109 A    
C9    C27   1.467272 S    
C73   C74   1.406056 A    
C15   H3    1.080425 S    
C76   H37   1.082373 S    
O3    Zn1   1.942876 S    
C67   C68   1.408750 A    
C8    C34   1.415390 A    
C65   C66   1.398096 A    
C42   H9    1.083267 S    
C57   H21   1.080984 S    
C19   N4    1.446251 S    
O1    C3    1.265187 A    
C79   C84   1.407032 A    
O2    C4    1.271986 A    
C14   C18   1.404942 A    
C81   C82   1.394424 A    
C59   H23   1.082429 S    
C50   H15   1.083172 S    
C37   C42   1.407626 A    
C28   C32   1.425471 A    
C76   C77   1.396675 A    
C43   C44   1.406685 A    
C73   C78   1.407840 A    
C18   C20   1.413474 A    
C84   H44   1.082566 S    
C74   H35   1.078390 S    
C68   H30   1.082243 S    
C27   C29   1.417011 A    
O6    Zn2   1.984059 S    
C61   C62   1.408880 A    
C28   C30   1.425190 A    
C52   C53   1.396689 A    
C18   N5    1.440897 S    
C59   C60   1.398001 A    
C53   H18   1.082602 S    
C66   H29   1.077824 S    
N6    O16   1.298147 A    
C51   H16   1.082675 S    
N4    O11   1.301048 A    
C67   C72   1.409611 A    
C78   H39   1.083241 S    
C71   H33   1.080894 S    
C31   C67   1.503161 S    
C27   C31   1.418321 A    
C7    C11   1.420644 S    
C10   N1    1.167994 T    
C34   C55   1.496068 S    
C53   C54   1.398479 A    
C57   C58   1.395917 A    
C44   C45   1.397232 A    
C70   H32   1.082412 S    
N5    O13   1.301735 A    
C69   C70   1.393845 A    
C79   C80   1.408531 A    
C58   C59   1.396161 A    
C39   H6    1.082545 S    
C62   H25   1.082691 S    
C80   C81   1.396379 A    
O5    Zn1   1.984059 S    
C71   C72   1.397439 A    
