data_mof_unit_35168.cif
_audit_creation_date              2013-03-05T15:58:17-0500
_audit_creation_method            fapswitch 2.2
_symmetry_space_group_name_H-M    P1
_symmetry_Int_Tables_number       1
_space_group_crystal_system       triclinic
_cell_length_a                    12.716751
_cell_length_b                    13.277356
_cell_length_c                    15.220536
_cell_angle_alpha                 86.667118
_cell_angle_beta                  99.531464
_cell_angle_gamma                 96.957165
_cell_volume                      2513.86563024

loop_
_atom_site_label
_atom_site_type_symbol
_atom_site_description
_atom_site_fract_x
_atom_site_fract_y
_atom_site_fract_z
_atom_type_partial_charge
O1    O     O_R   0.374950 0.371210 0.521360 -0.596355
O2    O     O_R   0.542050 0.338030 0.492790 -0.575695
C1    C     C_R   0.444824 0.308374 0.511076 0.828961
O3    O     O_R   0.368720 0.526070 0.390200 -0.594742
O4    O     O_R   0.535820 0.492890 0.361630 -0.578113
C2    C     C_R   0.435119 0.512051 0.335394 0.885568
Zn1   Zn    Zn3+2 0.388420 0.522150 0.519080 1.034377
Zn2   Zn    Zn3+2 0.611580 0.477850 0.480920 1.098066
O5    O     O_R   0.457950 0.661970 0.507210 -0.599254
O6    O     O_R   0.625050 0.628790 0.478640 -0.566368
O7    O     O_R   0.464180 0.507110 0.638370 -0.581906
O8    O     O_R   0.631280 0.473930 0.609800 -0.542380
C3    C     C_R   0.552779 0.690692 0.482693 0.964104
C4    C     C_R   0.558718 0.472667 0.663461 0.927275
C5    C     C_R   0.391468 0.511380 0.239916 -0.061383
C6    C     C_R   0.575898 0.421849 0.754545 -0.238105
C7    C     C_R   0.258596 0.554750 0.114393 -0.113311
C8    C     C_R   0.298072 0.555941 0.205530 -0.171782
C9    C     C_R   0.441139 0.461488 0.183156 -0.106001
C10   C     C_R   0.397115 0.450819 0.093141 0.102847
C11   C     C_R   0.308922 0.504350 0.056653 0.029993
C12   C     C_R   0.447992 0.397592 0.037384 -0.079054
C13   C     C_R   0.430002 0.420339 0.944895 -0.026334
C14   C     C_R   0.346045 0.478629 0.909302 -0.214671
C15   C     C_R   0.279960 0.513196 0.963270 0.286603
C16   C     C_R   0.521122 0.326544 0.071681 0.154494
C17   C     C_R   0.604268 0.314597 0.023653 0.241532
C18   C     C_R   0.597375 0.352983 0.934928 -0.105675
C19   C     C_R   0.501959 0.390394 0.892153 0.070871
C20   C     C_R   0.681958 0.351344 0.887012 -0.149617
C21   C     C_R   0.674475 0.388428 0.798462 0.284270
C22   C     C_R   0.484916 0.400099 0.798375 0.064896
H1    H     H_    0.191453 0.596867 0.089753 0.198096
H2    H     H_    0.257974 0.595230 0.248455 0.168168
H3    H     H_    0.516471 0.432982 0.208819 0.200245
H4    H     H_    0.331113 0.499069 0.839477 0.219674
H5    H     H_    0.755785 0.322905 0.918660 0.228908
C23   C     C_R   0.713471 0.947056 0.459804 0.036427
C24   C     C_R   0.580544 0.799236 0.463393 -0.172898
C25   C     C_R   0.299906 0.166792 0.486643 -0.138194
C26   C     C_R   0.265463 0.068924 0.459369 -0.151784
C27   C     C_R   0.339989 0.002072 0.454543 -0.137769
C28   C     C_R   0.450805 0.029860 0.484056 0.151050
C29   C     C_R   0.484813 0.127571 0.516582 0.043112
C30   C     C_R   0.529569 0.965044 0.478694 0.027600
C31   C     C_R   0.640131 0.002086 0.493450 0.002860
C32   C     C_R   0.671462 0.090492 0.542529 0.339620
C33   C     C_R   0.593163 0.151145 0.554783 -0.216303
C34   C     C_R   0.501977 0.862283 0.465905 -0.234380
C35   C     C_R   0.682254 0.842179 0.444828 0.326116
C36   C     C_R   0.409551 0.198842 0.510686 -0.101316
H6    H     H_    0.420817 0.828517 0.466883 0.194700
H7    H     H_    0.240871 0.219037 0.483071 0.241878
H8    H     H_    0.308728 0.930519 0.424890 0.127746
H9    H     H_    0.180892 0.046443 0.437300 0.156250
H10   H     H_    0.617078 0.216282 0.595352 0.206482
C37   C     C_R   0.146987 0.678096 0.596049 -0.044664
H11   H     H_    0.949886 0.728487 0.593736 0.193925
N1    N     N_R   0.239390 0.551900 0.544730 -0.228075
C38   C     C_R   0.761551 0.372382 0.398417 0.466079
C39   C     C_R   0.852210 0.366533 0.360095 -0.229048
C40   C     C_R   0.944010 0.430371 0.386342 -0.130892
C41   C     C_R   0.950109 0.494158 0.457528 0.042733
C42   C     C_R   0.853260 0.510902 0.486549 0.073393
C43   C     C_R   0.049713 0.541938 0.500652 -0.106354
C44   C     C_R   0.050419 0.629818 0.549138 -0.030088
C45   C     C_R   0.952999 0.661510 0.557800 -0.130491
C46   C     C_R   0.859058 0.596037 0.542221 0.373043
C47   C     C_R   0.147898 0.501843 0.502446 0.344903
C48   C     C_R   0.241822 0.636086 0.592556 0.348259
N2    N     N_R   0.759950 0.448600 0.455730 -0.174515
H12   H     H_    0.010071 0.428646 0.350539 0.208404
H13   H     H_    0.851449 0.312194 0.309606 0.217830
N3    N     N_R   0.188674 0.562744 0.922171 0.211691
O9    O     O_R   0.193848 0.620409 0.850540 -0.368579
O10   O     O_R   0.095481 0.536185 0.946399 -0.333277
N4    N     N_R   0.746952 0.782044 0.404448 0.198766
O11   O     O_R   0.702411 0.725151 0.338523 -0.395851
O12   O     O_R   0.850894 0.792789 0.424832 -0.451743
N5    N     N_R   0.779164 0.113642 0.588186 0.199453
O13   O     O_R   0.827536 0.205468 0.584145 -0.315250
O14   O     O_R   0.831126 0.042028 0.630377 -0.372939
C49   C     C_3   0.815342 0.001884 0.430141 -0.324578
C50   C     C_3   0.808819 0.005837 0.328125 -0.318080
C51   C     C_3   0.910075 0.063778 0.300314 -0.730411
H14   H     H_    0.921798 0.142635 0.323688 0.269429
H15   H     H_    0.981381 0.024895 0.328846 0.248133
H16   H     H_    0.902580 0.066928 0.226503 0.282941
H17   H     H_    0.798784 0.928794 0.301563 0.271930
H18   H     H_    0.738296 0.044243 0.296564 0.285777
H19   H     H_    0.829250 0.081867 0.449203 0.251518
H20   H     H_    0.886966 0.966839 0.463932 0.241580
N6    N     N_R   0.341263 0.679018 0.642008 0.238652
O15   O     O_R   0.374997 0.638642 0.719851 -0.371850
O16   O     O_R   0.379555 0.771587 0.622963 -0.417381
C52   C     C_3   0.378723 0.353755 0.744732 -0.375246
C53   C     C_3   0.322163 0.261541 0.791180 -0.399984
C54   C     C_3   0.226228 0.211759 0.728414 -0.736428
H21   H     H_    0.167949 0.267300 0.705043 0.303174
H22   H     H_    0.253182 0.182637 0.669926 0.250158
H23   H     H_    0.185349 0.147206 0.764161 0.263215
H24   H     H_    0.379526 0.204687 0.813042 0.244050
H25   H     H_    0.292216 0.284650 0.850472 0.254713
H26   H     H_    0.322711 0.411627 0.723675 0.234695
H27   H     H_    0.396794 0.324502 0.682897 0.200686
C55   C     C_3   0.149276 0.769582 0.653201 -0.294422
C56   C     C_3   0.138713 0.867065 0.594690 -0.407922
C57   C     C_3   0.132659 0.957575 0.650137 -0.777822
H28   H     H_    0.062100 0.943645 0.685344 0.295548
H29   H     H_    0.206990 0.971243 0.699713 0.268109
H30   H     H_    0.124077 0.026449 0.605737 0.259160
H31   H     H_    0.209554 0.882777 0.560215 0.252244
H32   H     H_    0.066051 0.858333 0.542868 0.245842
H33   H     H_    0.085984 0.756269 0.696120 0.229916
H34   H     H_    0.224169 0.780933 0.702165 0.267243
N7    N     N_R   0.151761 0.402168 0.473399 0.190986
O17   O     O_R   0.194092 0.389921 0.403156 -0.401324
O18   O     O_R   0.101962 0.324343 0.511256 -0.418103
N8    N     N_R   0.672470 0.296442 0.376366 0.229202
O19   O     O_R   0.691134 0.202685 0.374170 -0.420348
O20   O     O_R   0.582810 0.321497 0.332227 -0.339487
N9    N     N_R   0.791755 0.604861 0.606777 0.224352
O21   O     O_R   0.755857 0.691946 0.611104 -0.393273
O22   O     O_R   0.818655 0.557792 0.682697 -0.316269
N10   N     N_R   0.764047 0.380230 0.754188 0.258722
O23   O     O_R   0.749153 0.337717 0.677861 -0.348915
O24   O     O_R   0.861167 0.393029 0.798555 -0.281517
N11   N     N_R   0.693879 0.262787 0.063955 0.238468
O25   O     O_R   0.712188 0.179484 0.031086 -0.345127
O26   O     O_R   0.757019 0.298719 0.134010 -0.362606
N12   N     N_R   0.500984 0.258344 0.146485 0.236695
O27   O     O_R   0.569622 0.196550 0.181908 -0.266274
O28   O     O_R   0.405194 0.243512 0.167940 -0.345884

loop_
_geom_bond_atom_site_label_1
_geom_bond_atom_site_label_2
_geom_bond_distance
_ccdc_geom_bond_type
C5    C8    1.401064 A    
C52   H27   1.106876 S    
C41   C43   1.419872 A    
C47   N7    1.428379 S    
N6    O15   1.299510 A    
C23   C49   1.529392 S    
C26   C27   1.387757 A    
C9    C10   1.399982 A    
C37   C44   1.414534 A    
N11   O25   1.301198 A    
C53   C54   1.526431 S    
N4    O11   1.301743 A    
C57   H28   1.110849 S    
C6    C21   1.427568 A    
C5    C9    1.390232 A    
C49   H20   1.109202 S    
C16   C17   1.409833 A    
C14   H4    1.072988 S    
C7    H1    1.080580 S    
C55   H33   1.109971 S    
C42   C46   1.439332 A    
C18   C19   1.410564 A    
C19   C22   1.408487 A    
C20   C21   1.399901 A    
O7    C4    1.327074 A    
C55   C56   1.534564 S    
C54   H21   1.110953 S    
N7    O17   1.300495 A    
C38   N8    1.431539 S    
C33   H10   1.076062 S    
C15   N3    1.438179 S    
C56   H31   1.108485 S    
C42   N2    1.391162 A    
O5    C3    1.326642 A    
C56   H32   1.110275 S    
C2    C5    1.467397 S    
C26   H9    1.082961 S    
C49   C50   1.539336 S    
N7    O18   1.301492 A    
C56   C57   1.524514 S    
C37   C48   1.398572 A    
C53   H24   1.111970 S    
C51   H15   1.110992 S    
C37   C55   1.529351 S    
N6    O16   1.300799 A    
C50   H18   1.111180 S    
C32   N5    1.435582 S    
O3    Zn1   1.934417 S    
Zn1   N1    2.084337 S    
N8    O20   1.293926 A    
C23   C31   1.425721 A    
N3    O9    1.301420 A    
C45   C46   1.384783 A    
C48   N6    1.432006 S    
C14   C15   1.399107 A    
O3    C2    1.316382 A    
C46   N9    1.424043 S    
C1    C36   1.469124 S    
N1    C48   1.363462 A    
C38   N2    1.378038 A    
C39   H13   1.082340 S    
C51   H14   1.110390 S    
C7    C11   1.409993 A    
C20   H5    1.082118 S    
C38   C39   1.387467 A    
O1    C1    1.323228 A    
Zn1   O7    1.920888 S    
C28   C29   1.408212 A    
C40   C41   1.400084 A    
C8    H2    1.083234 S    
C17   N11   1.434381 S    
C32   C33   1.395695 A    
C30   C34   1.383794 A    
Zn2   O8    1.934417 S    
C34   H6    1.076405 S    
C52   C53   1.539679 S    
C7    C8    1.395158 A    
N4    O12   1.299019 A    
C40   H12   1.077465 S    
C50   C51   1.526993 S    
C28   C30   1.412295 A    
C53   H25   1.108119 S    
N3    O10   1.301229 A    
N1    C47   1.350564 A    
C29   C36   1.414434 A    
N5    O14   1.301469 A    
C25   C26   1.384677 A    
C24   C34   1.385435 A    
C10   C12   1.414424 A    
C43   C44   1.414762 A    
C54   H22   1.110259 S    
C52   H26   1.108538 S    
C12   C16   1.421872 A    
N10   O23   1.296757 A    
C4    C6    1.500530 S    
C27   C28   1.416855 A    
C21   N10   1.433940 S    
N9    O22   1.296058 A    
N12   O27   1.300736 A    
C54   H23   1.110126 S    
C35   N4    1.440763 S    
C13   C19   1.417175 A    
C51   H16   1.110405 S    
Zn1   O5    1.969026 S    
C11   C15   1.409743 A    
C31   C32   1.408778 A    
Zn2   N2    2.071759 S    
C22   C52   1.536516 S    
O1    Zn1   1.989376 S    
O2    Zn2   1.969027 S    
O8    C4    1.327811 A    
N5    O13   1.300298 A    
N12   O28   1.302092 A    
O6    C3    1.315919 A    
N11   O26   1.300794 A    
O4    Zn2   1.920888 S    
N8    O19   1.298510 A    
C23   C35   1.421835 A    
C6    C22   1.421040 A    
C25   C36   1.401624 A    
C49   H19   1.102978 S    
C57   H30   1.110294 S    
C55   H34   1.108338 S    
C18   C20   1.398794 A    
O2    C1    1.320784 A    
C9    H3    1.077164 S    
C27   H8    1.078533 S    
O4    C2    1.327345 A    
C43   C47   1.411100 A    
C57   H29   1.110843 S    
C44   C45   1.384212 A    
C39   C40   1.373334 A    
C3    C24   1.466219 S    
C13   C14   1.411470 A    
C41   C42   1.421017 A    
C30   C31   1.417708 A    
H11   C45   1.078802 S    
C24   C35   1.414757 A    
C10   C11   1.418579 A    
Zn2   O6    1.989375 S    
C25   H7    1.075169 S    
C50   H17   1.107018 S    
C17   C18   1.408087 A    
N10   O24   1.302511 A    
C12   C13   1.409221 A    
N9    O21   1.302443 A    
C16   N12   1.449948 S    
C29   C33   1.409224 A    
