data_mof_unit_61172.cif
_audit_creation_date              2013-03-05T16:37:00-0500
_audit_creation_method            fapswitch 2.2
_symmetry_space_group_name_H-M    P1
_symmetry_Int_Tables_number       1
_space_group_crystal_system       triclinic
_cell_length_a                    36.277562
_cell_length_b                    25.695749
_cell_length_c                    25.687584
_cell_angle_alpha                 89.992742
_cell_angle_beta                  90.005912
_cell_angle_gamma                 89.995046
_cell_volume                      23945.4292312

loop_
_atom_site_label
_atom_site_type_symbol
_atom_site_description
_atom_site_fract_x
_atom_site_fract_y
_atom_site_fract_z
_atom_type_partial_charge
Zn1   Zn    Zn3+2 0.719300 0.249980 0.438970 0.972030
Zn2   Zn    Zn3+2 0.280700 0.249980 0.438970 0.978398
Zn3   Zn    Zn3+2 0.280700 0.249980 0.561030 0.978317
Zn4   Zn    Zn3+2 0.719300 0.249980 0.561030 0.985360
Zn5   Zn    Zn3+2 0.219300 0.749980 0.938970 0.980664
Zn6   Zn    Zn3+2 0.780700 0.749980 0.938970 0.981873
Zn7   Zn    Zn3+2 0.780700 0.749980 0.061030 0.978839
Zn8   Zn    Zn3+2 0.219300 0.749980 0.061030 0.982244
Zn9   Zn    Zn3+2 0.780720 0.311020 0.500000 0.986257
Zn10  Zn    Zn3+2 0.219280 0.311020 0.500000 0.990387
Zn11  Zn    Zn3+2 0.280720 0.811020 0.000000 0.984179
Zn12  Zn    Zn3+2 0.719280 0.811020 0.000000 0.982506
Zn13  Zn    Zn3+2 0.780730 0.188950 0.500000 0.979955
Zn14  Zn    Zn3+2 0.219270 0.188950 0.500000 0.983750
Zn15  Zn    Zn3+2 0.280730 0.688950 0.000000 0.978080
Zn16  Zn    Zn3+2 0.719270 0.688950 0.000000 0.986445
O1    O     O_3   0.750020 0.249980 0.500000 -0.481739
O2    O     O_3   0.249980 0.249980 0.500000 -0.483336
O3    O     O_3   0.250020 0.749980 0.000000 -0.482388
O4    O     O_3   0.749980 0.749980 0.000000 -0.482822
O5    O     O_R   0.728520 0.310110 0.602800 -0.635119
O6    O     O_R   0.271480 0.310110 0.602800 -0.636413
O7    O     O_R   0.271480 0.310110 0.397200 -0.636302
O8    O     O_R   0.728520 0.310110 0.397200 -0.638288
O9    O     O_R   0.228520 0.810110 0.102800 -0.636347
O10   O     O_R   0.771480 0.810110 0.102800 -0.631647
O11   O     O_R   0.771480 0.810110 0.897200 -0.635429
O12   O     O_R   0.228520 0.810110 0.897200 -0.639117
O13   O     O_R   0.728520 0.189860 0.397190 -0.641455
O14   O     O_R   0.271480 0.189860 0.397190 -0.634321
O15   O     O_R   0.271480 0.189860 0.602810 -0.636070
O16   O     O_R   0.728520 0.189860 0.602810 -0.631999
O17   O     O_R   0.228520 0.689860 0.897190 -0.631277
O18   O     O_R   0.771480 0.689860 0.897190 -0.635659
O19   O     O_R   0.771480 0.689860 0.102810 -0.637682
O20   O     O_R   0.228520 0.689860 0.102810 -0.633115
O21   O     O_R   0.771490 0.352810 0.439870 -0.630475
O22   O     O_R   0.228510 0.352810 0.439870 -0.629259
O23   O     O_R   0.228510 0.352810 0.560130 -0.625115
O24   O     O_R   0.771490 0.352810 0.560130 -0.629115
O25   O     O_R   0.271490 0.852810 0.939870 -0.628417
O26   O     O_R   0.728510 0.852810 0.939870 -0.629225
O27   O     O_R   0.728510 0.852810 0.060130 -0.637176
O28   O     O_R   0.271490 0.852810 0.060130 -0.629076
O29   O     O_R   0.771530 0.147160 0.560090 -0.633516
O30   O     O_R   0.228470 0.147160 0.560090 -0.631007
O31   O     O_R   0.228470 0.147160 0.439910 -0.635520
O32   O     O_R   0.771530 0.147160 0.439910 -0.636120
O33   O     O_R   0.271530 0.647160 0.060090 -0.635053
O34   O     O_R   0.728470 0.647160 0.060090 -0.633454
O35   O     O_R   0.728470 0.647160 0.939910 -0.630606
O36   O     O_R   0.271530 0.647160 0.939910 -0.637958
O37   O     O_R   0.832000 0.292700 0.500000 -0.639508
O38   O     O_R   0.168000 0.292700 0.500000 -0.638275
O39   O     O_R   0.332000 0.792700 0.000000 -0.640210
O40   O     O_R   0.668000 0.792700 0.000000 -0.641359
O41   O     O_R   0.668030 0.249990 0.542720 -0.631593
O42   O     O_R   0.331970 0.249990 0.542720 -0.638509
O43   O     O_R   0.331970 0.249990 0.457280 -0.632953
O44   O     O_R   0.668030 0.249990 0.457280 -0.638312
O45   O     O_R   0.168030 0.749990 0.042720 -0.633174
O46   O     O_R   0.831970 0.749990 0.042720 -0.637735
O47   O     O_R   0.831970 0.749990 0.957280 -0.632688
O48   O     O_R   0.168030 0.749990 0.957280 -0.634478
O49   O     O_R   0.832010 0.207260 0.500000 -0.634839
O50   O     O_R   0.167990 0.207260 0.500000 -0.631214
O51   O     O_R   0.332010 0.707260 0.000000 -0.634059
O52   O     O_R   0.667990 0.707260 0.000000 -0.628298
C1    C     C_R   0.749973 0.349080 0.599031 0.821823
C2    C     C_R   0.250007 0.349049 0.599048 0.819928
C3    C     C_R   0.250029 0.349081 0.400970 0.817531
C4    C     C_R   0.749977 0.349074 0.400966 0.821727
C5    C     C_R   0.249973 0.849080 0.099032 0.819582
C6    C     C_R   0.750002 0.849056 0.099045 0.822890
C7    C     C_R   0.750031 0.849083 0.900972 0.820987
C8    C     C_R   0.249973 0.849078 0.900968 0.819455
C9    C     C_R   0.750020 0.150947 0.400958 0.820099
C10   C     C_R   0.249952 0.150956 0.400937 0.814692
C11   C     C_R   0.249956 0.150957 0.599062 0.818577
C12   C     C_R   0.750053 0.150955 0.599061 0.817511
C13   C     C_R   0.250020 0.650930 0.900979 0.818636
C14   C     C_R   0.749954 0.650956 0.900938 0.817660
C15   C     C_R   0.749960 0.650957 0.099061 0.815222
C16   C     C_R   0.250052 0.650956 0.099062 0.816064
C17   C     C_R   0.849541 0.249963 0.500046 0.825908
C18   C     C_R   0.150458 0.249975 0.500048 0.823981
C19   C     C_R   0.349544 0.749968 0.999938 0.821240
C20   C     C_R   0.650456 0.749978 0.999936 0.822887
C21   C     C_R   0.650385 0.249966 0.499996 0.822148
C22   C     C_R   0.349615 0.249967 0.500005 0.819747
C23   C     C_R   0.150385 0.749968 0.999996 0.824416
C24   C     C_R   0.849615 0.749968 0.000005 0.821449
C25   C     C_3   0.522727 0.219802 0.550799 0.170565
C26   C     C_3   0.478004 0.222456 0.552650 0.116933
C27   C     C_3   0.477274 0.220072 0.449078 0.171789
C28   C     C_3   0.521996 0.222734 0.447242 0.117427
C29   C     C_3   0.022728 0.717393 0.049260 0.170707
C30   C     C_3   0.978005 0.719953 0.051236 0.117151
C31   C     C_3   0.977275 0.722575 0.947670 0.170475
C32   C     C_3   0.021997 0.725324 0.945964 0.114133
C33   C     C_1   0.389138 0.250242 0.500038 -0.165187
C34   C     C_1   0.610861 0.250242 0.499972 -0.164115
C35   C     C_1   0.889138 0.750242 0.000039 -0.163849
C36   C     C_1   0.110861 0.750249 0.999973 -0.162148
C37   C     C_3   0.536661 0.251267 0.499836 0.143358
C38   C     C_3   0.463337 0.251267 0.500199 0.143658
C39   C     C_3   0.036661 0.751283 0.999876 0.143732
C40   C     C_3   0.963338 0.751263 0.000239 0.144109
C41   C     C_3   0.477771 0.310959 0.499357 0.146723
C42   C     C_3   0.522219 0.310954 0.500979 0.145788
C43   C     C_3   0.977771 0.810926 0.002284 0.145012
C44   C     C_3   0.022219 0.810844 0.003903 0.145638
C45   C     C_1   0.422375 0.250640 0.500131 0.018009
C46   C     C_1   0.577623 0.250640 0.499893 0.018147
C47   C     C_1   0.922375 0.750638 0.000144 0.017906
C48   C     C_1   0.077624 0.750654 0.999906 0.018096
C49   C     C_R   0.219278 0.495163 0.716251 0.427833
C50   C     C_R   0.774758 0.504755 0.706421 0.453055
C51   C     C_R   0.770376 0.508352 0.297184 0.452580
C52   C     C_R   0.221838 0.500959 0.289777 0.452616
C53   C     C_R   0.751690 0.014915 0.196266 0.449132
C54   C     C_R   0.275652 0.003858 0.207318 0.453566
C55   C     C_R   0.274081 0.005390 0.794224 0.453559
C56   C     C_R   0.719251 0.997087 0.785913 0.453313
C57   C     C_R   0.249550 0.461345 0.711280 -0.082619
C58   C     C_R   0.753088 0.459766 0.712866 -0.072862
C59   C     C_R   0.753129 0.460223 0.287595 -0.072134
C60   C     C_R   0.246997 0.459355 0.286723 -0.072894
C61   C     C_R   0.747844 0.962233 0.210373 -0.096403
C62   C     C_R   0.253071 0.959663 0.212970 -0.073133
C63   C     C_R   0.253125 0.959820 0.787191 -0.072182
C64   C     C_R   0.747188 0.959060 0.786428 -0.072122
C65   C     C_R   0.279585 0.465801 0.745123 -0.244633
C66   C     C_R   0.732769 0.452562 0.758528 -0.302889
C67   C     C_R   0.737321 0.450101 0.239017 -0.307220
C68   C     C_R   0.270919 0.455349 0.244264 -0.303898
C69   C     C_R   0.742744 0.948538 0.262535 -0.245576
C70   C     C_R   0.231813 0.953206 0.257886 -0.305535
C71   C     C_R   0.233543 0.952068 0.740976 -0.307328
C72   C     C_R   0.774016 0.958478 0.747387 -0.301501
H1    H     H_    0.302762 0.439409 0.741513 0.188839
H2    H     H_    0.716492 0.417502 0.763275 0.177537
H3    H     H_    0.724464 0.412686 0.231920 0.174339
H4    H     H_    0.289902 0.422838 0.242074 0.176800
H5    H     H_    0.739432 0.907989 0.273234 0.189471
H6    H     H_    0.214830 0.918744 0.262037 0.176685
H7    H     H_    0.217820 0.916569 0.735790 0.174657
H8    H     H_    0.795163 0.928671 0.747896 0.177183
C73   C     C_R   0.742554 0.986584 0.301385 0.058198
C74   C     C_R   0.231787 0.991282 0.297084 0.074229
C75   C     C_R   0.233554 0.990144 0.701772 0.076685
C76   C     C_R   0.774172 0.996579 0.708213 0.074618
C77   C     C_R   0.280006 0.503981 0.783893 0.051984
C78   C     C_R   0.732764 0.490634 0.797729 0.075287
C79   C     C_R   0.737402 0.488184 0.199819 0.075063
C80   C     C_R   0.271009 0.493435 0.205073 0.073503
C81   C     C_R   0.747331 0.039385 0.287888 -0.096868
C82   C     C_R   0.253453 0.036360 0.290920 -0.074222
C83   C     C_R   0.253549 0.036540 0.709262 -0.074650
C84   C     C_R   0.746957 0.035691 0.708407 -0.074149
C85   C     C_R   0.250105 0.538788 0.788448 -0.086994
C86   C     C_R   0.753497 0.536472 0.790807 -0.074343
C87   C     C_R   0.753621 0.537002 0.209727 -0.074251
C88   C     C_R   0.246689 0.536023 0.208739 -0.073579
C89   C     C_R   0.751238 0.053686 0.235018 0.433913
C90   C     C_R   0.276039 0.042223 0.246450 0.414777
C91   C     C_R   0.274493 0.043780 0.755112 0.415407
C92   C     C_R   0.718962 0.035378 0.746697 0.415480
C93   C     C_R   0.220154 0.535204 0.753737 0.406364
C94   C     C_R   0.775162 0.543130 0.745542 0.415063
C95   C     C_R   0.770827 0.546798 0.258131 0.414406
C96   C     C_R   0.221498 0.539293 0.250606 0.414138
C97   C     C_1   0.249862 0.421662 0.671669 0.047374
C98   C     C_1   0.751421 0.420765 0.672588 0.044501
C99   C     C_1   0.751409 0.420946 0.327595 0.041121
C100  C     C_1   0.248583 0.420597 0.327243 0.042244
C101  C     C_1   0.749139 0.921873 0.171461 0.041023
C102  C     C_1   0.251422 0.920722 0.172633 0.043167
C103  C     C_1   0.251434 0.920780 0.827427 0.041985
C104  C     C_1   0.748648 0.920492 0.827138 0.044243
C105  C     C_1   0.748861 0.078542 0.328147 0.009807
C106  C     C_1   0.251736 0.077087 0.329596 0.049709
C107  C     C_1   0.251771 0.077162 0.670480 0.052625
C108  C     C_1   0.748396 0.076803 0.670117 0.053136
C109  C     C_1   0.250073 0.578377 0.828314 0.021344
C110  C     C_1   0.751748 0.577135 0.829548 0.052506
C111  C     C_1   0.751765 0.577369 0.170689 0.049176
C112  C     C_1   0.248304 0.576939 0.170253 0.049710
C113  C     C_1   0.749680 0.111418 0.361588 -0.159253
C114  C     C_1   0.250649 0.110898 0.362090 -0.152204
C115  C     C_1   0.250657 0.110919 0.637929 -0.149214
C116  C     C_1   0.749366 0.110825 0.637834 -0.148064
C117  C     C_1   0.250041 0.611497 0.861515 -0.143649
C118  C     C_1   0.750649 0.610911 0.862077 -0.148173
C119  C     C_1   0.750634 0.610982 0.137992 -0.152484
C120  C     C_1   0.249352 0.610856 0.137866 -0.152038
C121  C     C_1   0.249981 0.388484 0.638520 -0.136686
C122  C     C_1   0.750511 0.388074 0.638962 -0.140759
C123  C     C_1   0.750488 0.388120 0.361088 -0.144823
C124  C     C_1   0.249469 0.388026 0.360990 -0.142779
C125  C     C_1   0.749771 0.888452 0.138562 -0.141286
C126  C     C_1   0.250517 0.888061 0.138977 -0.142308
C127  C     C_1   0.250512 0.888072 0.861037 -0.144056
C128  C     C_1   0.749480 0.888005 0.860970 -0.142423
H9    H     H_    0.966032 0.325267 0.466574 0.176324
H10   H     H_    0.033672 0.325630 0.466822 0.176939
H11   H     H_    0.466029 0.830665 0.015421 0.176625
H12   H     H_    0.533665 0.830972 0.015067 0.177081
C129  C     C_R   0.019109 0.290868 0.478972 -0.261039
C130  C     C_R   0.980726 0.290618 0.478757 -0.257617
C131  C     C_R   0.519105 0.794329 0.011418 -0.262633
C132  C     C_R   0.480723 0.794130 0.011702 -0.259338
C133  C     C_R   0.038531 0.247036 0.495868 -0.041177
C134  C     C_R   0.961444 0.246456 0.495197 -0.038062
C135  C     C_R   0.538531 0.747774 0.005221 -0.041278
C136  C     C_R   0.461441 0.747352 0.006043 -0.038420
C137  C     C_R   0.019513 0.201730 0.511130 0.449425
C138  C     C_R   0.980730 0.201241 0.510553 0.450946
C139  C     C_R   0.519514 0.700152 0.001013 0.449391
C140  C     C_R   0.480729 0.699803 0.001707 0.450694
C141  C     C_1   0.078031 0.248946 0.497825 0.023007
C142  C     C_1   0.921960 0.248565 0.497408 0.014376
C143  C     C_1   0.578030 0.749215 0.002727 0.022467
C144  C     C_1   0.421958 0.748916 0.003264 0.012891
C145  C     C_1   0.888869 0.249705 0.498887 -0.150915
C146  C     C_1   0.111126 0.249806 0.499080 -0.139172
C147  C     C_1   0.388870 0.749778 0.001391 -0.152352
C148  C     C_1   0.611123 0.749857 0.001144 -0.140114
N1    N     N_3   0.462324 0.169467 0.555648 -0.475869
H13   H     H_    0.472121 0.150424 0.588901 0.165975
H14   H     H_    0.433696 0.171258 0.560106 0.212346
N2    N     N_3   0.536915 0.165512 0.547467 -0.431603
H15   H     H_    0.520361 0.139518 0.527595 0.202756
H16   H     H_    0.539959 0.148491 0.584201 0.174057
N3    N     N_3   0.537681 0.169760 0.443979 -0.475322
H17   H     H_    0.527887 0.150894 0.410630 0.166582
H18   H     H_    0.566308 0.171573 0.439532 0.213329
N4    N     N_3   0.463091 0.165766 0.452137 -0.432114
H19   H     H_    0.479647 0.139668 0.471883 0.202724
H20   H     H_    0.460055 0.148938 0.415318 0.173507
N5    N     N_3   0.962326 0.666880 0.051668 -0.475462
H21   H     H_    0.972124 0.646254 0.083962 0.166046
H22   H     H_    0.933699 0.668452 0.056206 0.212225
N6    N     N_3   0.036917 0.663328 0.043308 -0.430679
H23   H     H_    0.020364 0.638325 0.022199 0.203643
H24   H     H_    0.039957 0.644552 0.079176 0.174059
N7    N     N_3   0.037683 0.672571 0.940143 -0.473261
H25   H     H_    0.027889 0.655337 0.905921 0.170459
H26   H     H_    0.066311 0.674598 0.935789 0.217881
N8    N     N_3   0.963093 0.668184 0.948099 -0.431368
H27   H     H_    0.979649 0.641164 0.966560 0.203387
H28   H     H_    0.960057 0.653155 0.910509 0.175332
N9    N     N_3   0.536146 0.250054 0.400388 -0.456981
H29   H     H_    0.533332 0.226494 0.367421 0.169221
H30   H     H_    0.522576 0.284207 0.390990 0.215208
N10   N     N_3   0.459882 0.240921 0.400923 -0.447627
H31   H     H_    0.467365 0.218027 0.368953 0.163993
H32   H     H_    0.466665 0.278193 0.389569 0.201963
N11   N     N_3   0.463851 0.249530 0.599640 -0.456062
H33   H     H_    0.466663 0.225796 0.632488 0.170369
H34   H     H_    0.477420 0.283630 0.609211 0.216155
N12   N     N_3   0.540117 0.240394 0.599060 -0.445984
H35   H     H_    0.532634 0.217333 0.630913 0.165794
H36   H     H_    0.533332 0.277607 0.610600 0.203118
N13   N     N_3   0.036147 0.754877 0.900485 -0.454644
H37   H     H_    0.033335 0.732936 0.866418 0.172885
H38   H     H_    0.022575 0.789442 0.892749 0.215965
N14   N     N_3   0.959883 0.745725 0.900578 -0.446916
H39   H     H_    0.967368 0.724404 0.867539 0.165755
H40   H     H_    0.966664 0.783503 0.891040 0.202840
N15   N     N_3   0.963852 0.744723 0.099481 -0.456145
H41   H     H_    0.966665 0.719430 0.131143 0.169294
H42   H     H_    0.977420 0.778322 0.110689 0.215992
N16   N     N_3   0.040117 0.735631 0.098459 -0.447290
H43   H     H_    0.032636 0.711058 0.129161 0.164283
H44   H     H_    0.033332 0.772242 0.111785 0.202568
N17   N     N_3   0.535548 0.337978 0.548059 -0.476971
H45   H     H_    0.529536 0.377724 0.546387 0.181633
H46   H     H_    0.564308 0.336109 0.549929 0.187527
N18   N     N_3   0.462560 0.340109 0.544144 -0.462615
H47   H     H_    0.433773 0.338642 0.543913 0.190376
H48   H     H_    0.468963 0.379670 0.541265 0.177088
N19   N     N_3   0.464439 0.338232 0.452415 -0.478217
H49   H     H_    0.435679 0.336374 0.450535 0.186052
H50   H     H_    0.470446 0.377969 0.454288 0.180049
N20   N     N_3   0.537426 0.340341 0.456340 -0.463187
H51   H     H_    0.531018 0.379886 0.459419 0.177135
H52   H     H_    0.566213 0.338874 0.456564 0.190967
N21   N     N_3   0.035548 0.835562 0.052234 -0.477581
H53   H     H_    0.029536 0.875343 0.052485 0.181679
H54   H     H_    0.064308 0.833607 0.054012 0.187161
N22   N     N_3   0.962560 0.837877 0.048428 -0.462165
H55   H     H_    0.933774 0.836422 0.048126 0.192584
H56   H     H_    0.968963 0.877531 0.047465 0.178746
N23   N     N_3   0.964438 0.840434 0.956715 -0.477006
H57   H     H_    0.935679 0.838669 0.954748 0.187115
H58   H     H_    0.970445 0.880035 0.960507 0.182464
N24   N     N_3   0.037426 0.842353 0.960736 -0.461983
H59   H     H_    0.031017 0.881703 0.965723 0.178706
H60   H     H_    0.066213 0.840877 0.960889 0.191178
O53   O     O_3   0.757547 0.104863 0.220607 -0.562223
C149  C     C_3   0.724293 0.133403 0.223492 -0.283468
H61   H     H_    0.721192 0.151170 0.262596 0.179860
H62   H     H_    0.699277 0.109980 0.214128 0.116050
H63   H     H_    0.725628 0.165667 0.194860 0.193050
O54   O     O_3   0.296456 0.087051 0.238363 -0.556980
C150  C     C_3   0.328078 0.086420 0.270518 -0.283809
H64   H     H_    0.339604 0.046712 0.277004 0.111507
H65   H     H_    0.321995 0.104928 0.308567 0.174919
H66   H     H_    0.349905 0.109909 0.251485 0.195276
O55   O     O_3   0.293190 0.089846 0.764434 -0.555356
C151  C     C_3   0.325796 0.091236 0.734339 -0.284215
H67   H     H_    0.320354 0.109342 0.695899 0.173830
H68   H     H_    0.338775 0.052304 0.728685 0.110775
H69   H     H_    0.346220 0.116090 0.754702 0.196471
O56   O     O_3   0.692759 0.074518 0.749087 -0.557374
C152  C     C_3   0.666036 0.066791 0.709788 -0.285185
H70   H     H_    0.660400 0.024995 0.701237 0.113704
H71   H     H_    0.674325 0.087021 0.673484 0.172174
H72   H     H_    0.639726 0.084448 0.722906 0.194412
O57   O     O_3   0.190563 0.568802 0.758448 -0.590965
C153  C     C_3   0.196103 0.611014 0.724274 -0.245975
H73   H     H_    0.196820 0.597958 0.682975 0.185608
H74   H     H_    0.221737 0.632749 0.734049 0.144763
H75   H     H_    0.172640 0.638378 0.728456 0.187878
O58   O     O_3   0.794618 0.588670 0.736746 -0.557080
C154  C     C_3   0.826812 0.589166 0.767749 -0.281858
H76   H     H_    0.839167 0.549884 0.773771 0.112668
H77   H     H_    0.821088 0.607429 0.806028 0.174748
H78   H     H_    0.847856 0.613445 0.747961 0.196269
O59   O     O_3   0.785658 0.595107 0.269691 -0.557340
C155  C     C_3   0.819896 0.600958 0.244083 -0.282582
H79   H     H_    0.815873 0.618475 0.205026 0.175736
H80   H     H_    0.835721 0.563942 0.240318 0.111372
H81   H     H_    0.837127 0.628288 0.266995 0.196548
O60   O     O_3   0.198335 0.581766 0.256324 -0.558729
C156  C     C_3   0.168681 0.577834 0.220839 -0.283370
H82   H     H_    0.159700 0.537024 0.213286 0.113460
H83   H     H_    0.175806 0.597014 0.183486 0.174465
H84   H     H_    0.144687 0.598891 0.237355 0.194354
O61   O     O_3   0.189774 0.491267 0.682398 -0.588788
C157  C     C_3   0.162544 0.459947 0.705870 -0.247217
H85   H     H_    0.151907 0.477974 0.742289 0.183027
H86   H     H_    0.173071 0.420038 0.713893 0.145063
H87   H     H_    0.139020 0.456207 0.678536 0.189756
O62   O     O_3   0.792957 0.513792 0.659955 -0.556933
C158  C     C_3   0.827849 0.489671 0.661980 -0.261807
H88   H     H_    0.825663 0.447041 0.668931 0.141672
H89   H     H_    0.845646 0.507853 0.692080 0.151505
H90   H     H_    0.841648 0.495141 0.623839 0.198386
O63   O     O_3   0.783876 0.519946 0.346212 -0.556648
C159  C     C_3   0.820418 0.501591 0.349969 -0.261985
H91   H     H_    0.838937 0.522668 0.322768 0.150262
H92   H     H_    0.822243 0.458925 0.343049 0.140835
H93   H     H_    0.830541 0.509037 0.390028 0.199772
O64   O     O_3   0.199815 0.507084 0.333333 -0.558368
C160  C     C_3   0.167191 0.478048 0.326424 -0.268030
H94   H     H_    0.172961 0.435969 0.320268 0.141267
H95   H     H_    0.150494 0.493575 0.293686 0.151164
H96   H     H_    0.150320 0.481461 0.362270 0.197414
O65   O     O_3   0.759226 0.028503 0.145239 -0.563068
C161  C     C_3   0.725657 0.033934 0.118078 -0.262277
H97   H     H_    0.709160 0.066851 0.133614 0.152911
H98   H     H_    0.709105 0.997491 0.118823 0.146662
H99   H     H_    0.731918 0.042742 0.076740 0.201044
O66   O     O_3   0.294843 0.012217 0.161526 -0.555634
C162  C     C_3   0.329245 0.986861 0.164813 -0.266349
H100  H     H_    0.326170 0.944325 0.171667 0.139756
H101  H     H_    0.346806 0.004411 0.195557 0.150576
H102  H     H_    0.343829 0.991826 0.127189 0.198149
O67   O     O_3   0.291507 0.014914 0.841185 -0.555443
C163  C     C_3   0.326741 0.991738 0.840150 -0.262960
H103  H     H_    0.344685 0.010327 0.810477 0.150213
H104  H     H_    0.325219 0.949043 0.833261 0.139979
H105  H     H_    0.339958 0.997662 0.878635 0.199372
O68   O     O_3   0.694091 0.000021 0.826287 -0.559948
C164  C     C_3   0.664170 0.966798 0.815150 -0.271561
H106  H     H_    0.673128 0.925727 0.809829 0.142683
H107  H     H_    0.648735 0.980278 0.780337 0.153116
H108  H     H_    0.644857 0.967658 0.848612 0.195827
N25   N     N_3   0.737922 0.970603 0.354431 -0.440536
H109  H     H_    0.761026 0.982640 0.375580 0.200988
H110  H     H_    0.714778 0.989564 0.369554 0.187538
N26   N     N_3   0.209225 0.985021 0.342678 -0.428230
H111  H     H_    0.193467 0.951054 0.339984 0.186037
H112  H     H_    0.226904 0.980015 0.374437 0.183502
N27   N     N_3   0.212685 0.982513 0.654795 -0.423150
H113  H     H_    0.197953 0.947579 0.656521 0.186053
H114  H     H_    0.231496 0.978668 0.624200 0.181106
N28   N     N_3   0.802327 0.996517 0.668816 -0.422237
H115  H     H_    0.821406 0.966811 0.675777 0.189086
H116  H     H_    0.789609 0.987794 0.633348 0.186640
N29   N     N_3   0.311134 0.506784 0.818111 -0.435851
H117  H     H_    0.301766 0.502185 0.856327 0.200385
H118  H     H_    0.322800 0.543839 0.814745 0.196732
N30   N     N_3   0.711152 0.483579 0.844117 -0.421762
H119  H     H_    0.695964 0.449060 0.841974 0.188754
H120  H     H_    0.729482 0.479213 0.875226 0.183595
N31   N     N_3   0.720372 0.478014 0.150305 -0.427797
H121  H     H_    0.707991 0.441265 0.150220 0.184952
H122  H     H_    0.741318 0.476825 0.122374 0.182733
N32   N     N_3   0.296258 0.489775 0.162081 -0.429138
H123  H     H_    0.313621 0.457601 0.166579 0.186596
H124  H     H_    0.280683 0.482977 0.128514 0.187566
O69   O     O_3   0.038487 0.159543 0.531207 -0.563981
C165  C     C_3   0.049549 0.127153 0.489737 -0.261940
H125  H     H_    0.067319 0.148131 0.461346 0.144588
H126  H     H_    0.025370 0.109972 0.469551 0.152375
H127  H     H_    0.066015 0.094544 0.505866 0.200314
O70   O     O_3   0.962409 0.157790 0.529221 -0.565568
C166  C     C_3   0.946361 0.130329 0.487282 -0.276276
H128  H     H_    0.963161 0.131438 0.450953 0.115756
H129  H     H_    0.918249 0.145240 0.479157 0.179761
H130  H     H_    0.943560 0.088886 0.498705 0.197553
O71   O     O_3   0.538487 0.654448 0.991353 -0.563498
C167  C     C_3   0.549612 0.632684 0.039244 -0.262262
H131  H     H_    0.525464 0.620688 0.062944 0.151965
H132  H     H_    0.567395 0.659745 0.061889 0.142881
H133  H     H_    0.566087 0.597223 0.031183 0.200495
O72   O     O_3   0.462409 0.653195 0.993721 -0.565749
C168  C     C_3   0.446352 0.636312 0.040919 -0.278700
H134  H     H_    0.418296 0.652875 0.045415 0.177536
H135  H     H_    0.463226 0.645714 0.075959 0.115156
H136  H     H_    0.443416 0.593370 0.039444 0.197643

loop_
_geom_bond_atom_site_label_1
_geom_bond_atom_site_label_2
_geom_bond_distance
_ccdc_geom_bond_type
C153  H74   1.113489 S    
C37   C42   1.620935 S    
C160  H94   1.112635 S    
C166  H129  1.109191 S    
C33   C45   1.205800 T    
C39   C44   1.620932 S    
C156  H84   1.109251 S    
C156  H82   1.115133 S    
O53   C149  1.413695 S    
O26   C7    1.271736 A    
O72   C168  1.413314 S    
N30   H120  1.045563 S    
O30   C11   1.272462 A    
C153  H75   1.109226 S    
N8    H28   1.045811 S    
N15   H41   1.046030 S    
C30   C40   1.626646 S    
C163  H103  1.110399 S    
N16   H43   1.046084 S    
C158  H88   1.112683 S    
C164  H108  1.109198 S    
Zn12  O26   1.910695 S    
C134  C142  1.434550 S    
C36   C48   1.205806 T    
O58   C154  1.413611 S    
C72   C76   1.403895 A    
C58   C98   1.441773 S    
C75   N27   1.437943 S    
C11   C115  1.433740 S    
C12   C116  1.433764 S    
O11   C7    1.271855 A    
O34   C15   1.272511 A    
N4    H20   1.045813 S    
Zn1   O44   1.918546 S    
Zn2   O43   1.918452 S    
N28   H116  1.045565 S    
C88   C112  1.444259 S    
C129  C133  1.397504 A    
Zn5   O48   1.918546 S    
C77   C85   1.410735 A    
O56   C152  1.413600 S    
Zn6   O47   1.918452 S    
C50   O62   1.383707 S    
C152  H72   1.109241 S    
C136  C144  1.434672 S    
Zn7   O46   1.918546 S    
N1    H13   1.046512 S    
C34   C46   1.205816 T    
O16   C12   1.272330 A    
C42   N20   1.479657 S    
Zn16  O4    1.923739 S    
C159  H91   1.110386 S    
Zn12  O4    1.923580 S    
Zn1   O13   1.910651 S    
O54   C150  1.413618 S    
C155  H79   1.109178 S    
Zn3   O15   1.910478 S    
Zn4   O16   1.910392 S    
N14   H40   1.030949 S    
C160  H96   1.109205 S    
C95   O59   1.385169 S    
N25   H109  1.045597 S    
C165  H126  1.110481 S    
N24   H59   1.045388 S    
N27   H113  1.045705 S    
C62   C70   1.397725 A    
C41   N18   1.479659 S    
C154  H77   1.109191 S    
N31   H122  1.045569 S    
C63   C103  1.441579 S    
C65   H1    1.084148 S    
C59   C67   1.397710 A    
O60   C156  1.413601 S    
N11   H34   1.034701 S    
C157  H87   1.109224 S    
N26   H112  1.045578 S    
C163  H105  1.109217 S    
C6    C125  1.433709 S    
C30   N15   1.484889 S    
N29   H117  1.045578 S    
C40   C43   1.620931 S    
Zn10  O22   1.910695 S    
C167  H131  1.110491 S    
N22   H56   1.045386 S    
C32   N7    1.477696 S    
O69   C165  1.410234 S    
O25   C8    1.271619 A    
Zn13  O29   1.909671 S    
Zn10  O2    1.923580 S    
C83   C91   1.413861 A    
O29   C12   1.272332 A    
Zn15  O33   1.909671 S    
C15   C119  1.433708 S    
C13   C117  1.433386 S    
C29   C39   1.619567 S    
C61   C69   1.397629 A    
C58   C66   1.397717 A    
N1    H14   1.045852 S    
O57   C153  1.409718 S    
O37   C17   1.269157 A    
C106  C114  1.205515 T    
O48   C23   1.270394 A    
N5    H22   1.045848 S    
O43   C22   1.270489 A    
C51   C95   1.407957 A    
N20   H52   1.045010 S    
C168  H134  1.109206 S    
C138  O70   1.385032 S    
C27   C28   1.624535 S    
C139  O71   1.383645 S    
C43   C44   1.612991 S    
Zn16  O35   1.909861 S    
C140  O72   1.385018 S    
C29   C30   1.624549 S    
C3    C124  1.433978 S    
N23   H58   1.045211 S    
N6    H23   1.033183 S    
C31   C40   1.619555 S    
C54   O66   1.383706 S    
Zn7   O10   1.910714 S    
O33   C16   1.272395 A    
N9    H29   1.046029 S    
C41   N19   1.476047 S    
O40   C20   1.268974 A    
C161  H97   1.110377 S    
N31   H121  1.045701 S    
C159  H93   1.109211 S    
C151  H67   1.109175 S    
C56   C64   1.407811 A    
N5    H21   1.046512 S    
C80   N32   1.437940 S    
Zn6   O11   1.910455 S    
N10   H32   1.030953 S    
C92   O56   1.385176 S    
C162  H102  1.109210 S    
C42   N17   1.476043 S    
C85   C93   1.408544 A    
C51   O63   1.383730 S    
C56   C92   1.408098 A    
N17   H45   1.045211 S    
C44   N21   1.476043 S    
C133  C141  1.434673 S    
N21   H53   1.045209 S    
C149  H62   1.115259 S    
C31   N14   1.488247 S    
Zn8   O3    1.923558 S    
C43   N23   1.476044 S    
C38   C45   1.486095 S    
C97   C121  1.205025 T    
C167  H133  1.109200 S    
C94   O58   1.385166 S    
N18   H47   1.045014 S    
C134  C138  1.412305 A    
C81   C89   1.414027 A    
O38   C18   1.268995 A    
C142  C145  1.201427 T    
C79   C87   1.408784 A    
C137  C138  1.407094 A    
C44   N24   1.479655 S    
O5    C1    1.271979 A    
C75   C83   1.408787 A    
O32   C9    1.272548 A    
C27   C38   1.619552 S    
N18   H48   1.045385 S    
Zn15  O51   1.918929 S    
C129  C130  1.392449 A    
Zn11  O28   1.910880 S    
N13   H38   1.034701 S    
C99   C123  1.205261 T    
O70   C166  1.413350 S    
C64   C104  1.441614 S    
C103  C127  1.205290 T    
C168  H136  1.109224 S    
C1    C122  1.434137 S    
C101  C125  1.205155 T    
C88   C96   1.413864 A    
C17   C145  1.427031 S    
C96   O60   1.385176 S    
O8    C4    1.271936 A    
C25   N12   1.488243 S    
C78   C86   1.408804 A    
C136  C140  1.412333 A    
N27   H114  1.045587 S    
O50   C18   1.268514 A    
N12   H35   1.046086 S    
C53   C89   1.408521 A    
Zn1   O1    1.923373 S    
C151  H69   1.109269 S    
Zn13  O1    1.923582 S    
Zn2   O14   1.910659 S    
C150  H66   1.109259 S    
C9    C113  1.433484 S    
N17   H46   1.045527 S    
N24   H60   1.045011 S    
C4    C123  1.433885 S    
C20   C148  1.427235 S    
H9    C130  1.083789 S    
C70   H6    1.084072 S    
O52   C20   1.268626 A    
C71   C75   1.403977 A    
C28   N3    1.477694 S    
N6    H24   1.045814 S    
N16   H44   1.030949 S    
O39   C19   1.269090 A    
O36   C13   1.272063 A    
C39   C48   1.486114 S    
C164  H107  1.110418 S    
C63   C71   1.397704 A    
C73   N25   1.433002 S    
C49   C93   1.409658 A    
O13   C9    1.271740 A    
Zn1   O8    1.910541 S    
Zn2   O7    1.910455 S    
Zn3   O6    1.910714 S    
O18   C14   1.272231 A    
O31   C10   1.272497 A    
C49   C57   1.406172 A    
C27   N10   1.488247 S    
O6    C2    1.271642 A    
C38   C41   1.620930 S    
C51   C59   1.407761 A    
C79   N31   1.437930 S    
C28   C37   1.626641 S    
C155  H81   1.109253 S    
C8    C127  1.433941 S    
Zn14  O30   1.909583 S    
C84   C92   1.413883 A    
Zn15  O3    1.923582 S    
Zn11  O3    1.923737 S    
O41   C21   1.270464 A    
C54   C90   1.408094 A    
C69   H5    1.084221 S    
Zn16  O34   1.909583 S    
N32   H123  1.045702 S    
C60   C68   1.397682 A    
C157  H86   1.113488 S    
N19   H50   1.045211 S    
O67   C163  1.410314 S    
O71   C167  1.410223 S    
Zn8   O20   1.910392 S    
C152  H71   1.109194 S    
C52   O64   1.383863 S    
O66   C162  1.410311 S    
C85   C109  1.443520 S    
C62   C102  1.441783 S    
C149  H61   1.109159 S    
C105  C113  1.205245 T    
O63   C159  1.410314 S    
C159  H92   1.112661 S    
N3    H17   1.046511 S    
C108  C116  1.205411 T    
C87   C95   1.413843 A    
C29   N16   1.488246 S    
C153  H73   1.112996 S    
C160  H95   1.110425 S    
C166  H130  1.109235 S    
Zn8   O9    1.910722 S    
C81   C105  1.444023 S    
C100  C124  1.205314 T    
C156  H83   1.109186 S    
C110  C118  1.205514 T    
N7    H26   1.045850 S    
C59   C99   1.441531 S    
C60   C100  1.441615 S    
C150  H64   1.115149 S    
O7    C3    1.271890 A    
N30   H119  1.045698 S    
C76   N28   1.437940 S    
C139  C140  1.407191 A    
O19   C15   1.272094 A    
N8    H27   1.033184 S    
O61   C157  1.409683 S    
C61   C101  1.441226 S    
C141  C146  1.201270 T    
Zn9   O24   1.910880 S    
C91   O55   1.385176 S    
C43   N22   1.479655 S    
Zn6   O18   1.910659 S    
C107  C115  1.205400 T    
Zn10  O23   1.910857 S    
Zn13  O32   1.909838 S    
C167  H132  1.112724 S    
C35   C47   1.205804 T    
O59   C155  1.413622 S    
C135  C139  1.408965 A    
C66   H2    1.084064 S    
C131  C132  1.392442 A    
C86   C94   1.413890 A    
N7    H25   1.046511 S    
C162  H101  1.110395 S    
Zn15  O36   1.909838 S    
O15   C11   1.272165 A    
O42   C22   1.270362 A    
Zn4   O1    1.923558 S    
C25   N2    1.489383 S    
C19   C147  1.427158 S    
Zn9   O37   1.918913 S    
O12   C8    1.271928 A    
C144  C147  1.201499 T    
N23   H57   1.045524 S    
Zn11  O39   1.918913 S    
C82   C90   1.413898 A    
N4    H19   1.033182 S    
C74   C82   1.408817 A    
C55   C63   1.407789 A    
C157  H85   1.113031 S    
C53   C61   1.408273 A    
C104  C128  1.205312 T    
C52   C60   1.407812 A    
N28   H115  1.045704 S    
Zn5   O3    1.923373 S    
C64   C72   1.397644 A    
Zn6   O4    1.923560 S    
C5    C126  1.434150 S    
C74   N26   1.437933 S    
C55   O67   1.383725 S    
C154  H76   1.115149 S    
C68   H4    1.084077 S    
C41   C42   1.612988 S    
C49   O61   1.382631 S    
C66   C78   1.404044 A    
C161  H98   1.112644 S    
H12   C131  1.083712 S    
N2    H15   1.033187 S    
C151  H68   1.115135 S    
O28   C5    1.271708 A    
C14   C118  1.433938 S    
Zn3   O42   1.918546 S    
N14   H39   1.046083 S    
Zn7   O4    1.923371 S    
O21   C4    1.271578 A    
C166  H128  1.115010 S    
N25   H110  1.045608 S    
C165  H125  1.112713 S    
N21   H54   1.045526 S    
C73   C81   1.411029 A    
C158  H90   1.109202 S    
C161  H99   1.109219 S    
C131  C135  1.397499 A    
O55   C151  1.413622 S    
C76   C84   1.408778 A    
C25   C26   1.624562 S    
C90   O54   1.385172 S    
C21   C34   1.433840 S    
Zn2   O2    1.923560 S    
Zn14  O2    1.923739 S    
C162  H100  1.112677 S    
C10   C114  1.433937 S    
C23   C36   1.433834 S    
C57   C97   1.440640 S    
N26   H111  1.045705 S    
C72   H8    1.084076 S    
C40   C47   1.486102 S    
C137  O69   1.383670 S    
Zn13  O49   1.918929 S    
O44   C21   1.270398 A    
C70   C74   1.404038 A    
N29   H118  1.045581 S    
C149  H63   1.109264 S    
C71   H7    1.084081 S    
C65   C77   1.398141 A    
N22   H55   1.045011 S    
C16   C120  1.433759 S    
C28   N9    1.484887 S    
Zn12  O27   1.910857 S    
N20   H51   1.045387 S    
C68   C80   1.403941 A    
C32   N13   1.484888 S    
C50   C94   1.408086 A    
C67   C79   1.403999 A    
Zn3   O2    1.923371 S    
C87   C111  1.444212 S    
C30   N5    1.477698 S    
C24   C35   1.433820 S    
C25   C37   1.619575 S    
C132  C136  1.398368 A    
C163  H104  1.112646 S    
C165  H127  1.109215 S    
O46   C24   1.270366 A    
O47   C24   1.270489 A    
C56   O68   1.383686 S    
C77   N29   1.432769 S    
Zn16  O52   1.918850 S    
N13   H37   1.046029 S    
O9    C5    1.271973 A    
Zn8   O45   1.918452 S    
C55   C91   1.408000 A    
O27   C6    1.271328 A    
C168  H135  1.114983 S    
N3    H18   1.045846 S    
C69   C73   1.397133 A    
C31   N8    1.489378 S    
N2    H16   1.045818 S    
N32   H124  1.045572 S    
C98   C122  1.205405 T    
O24   C1    1.271693 A    
C37   C46   1.486117 S    
C53   O65   1.383722 S    
C86   C110  1.444434 S    
C133  C137  1.408921 A    
C143  C148  1.201359 T    
C52   C96   1.408051 A    
N12   H36   1.030950 S    
C130  C134  1.398372 A    
Zn5   O17   1.910651 S    
C150  H65   1.109185 S    
C27   N4    1.489378 S    
Zn4   O41   1.918452 S    
C22   C33   1.433809 S    
C158  H89   1.110393 S    
Zn5   O12   1.910541 S    
N9    H30   1.034701 S    
C31   C32   1.624544 S    
N10   H31   1.046083 S    
Zn9   O21   1.910606 S    
Zn14  O50   1.918850 S    
C82   C106  1.444433 S    
O35   C14   1.272517 A    
C80   C88   1.408781 A    
C164  H106  1.112675 S    
Zn12  O40   1.918988 S    
Zn9   O1    1.923737 S    
C2    C121  1.433595 S    
C102  C126  1.205414 T    
H11   C132  1.083778 S    
C18   C146  1.427079 S    
N11   H33   1.046030 S    
C26   N11   1.484890 S    
N19   H49   1.045527 S    
O68   C164  1.410298 S    
C57   C65   1.398558 A    
N15   H42   1.034701 S    
O22   C3    1.271702 A    
C26   C38   1.626652 S    
C32   C39   1.626640 S    
C93   O57   1.382835 S    
C111  C119  1.205379 T    
Zn7   O19   1.910478 S    
C109  C117  1.204925 T    
C135  C143  1.434818 S    
C154  H78   1.109244 S    
C7    C128  1.433980 S    
O49   C17   1.268335 A    
Zn14  O31   1.909861 S    
C29   N6    1.489378 S    
O65   C161  1.410322 S    
O51   C19   1.268490 A    
Zn4   O5    1.910722 S    
H10   C129  1.083731 S    
O62   C158  1.410300 S    
O20   C16   1.272264 A    
C67   H3    1.084077 S    
O64   C160  1.410333 S    
O10   C6    1.271891 A    
O23   C2    1.271505 A    
C84   C108  1.444269 S    
Zn11  O25   1.910606 S    
C78   N30   1.437924 S    
C152  H70   1.115149 S    
Zn10  O38   1.918988 S    
C89   O53   1.385176 S    
O14   C10   1.272253 A    
C155  H80   1.115150 S    
C112  C120  1.205408 T    
C50   C58   1.407807 A    
C83   C107  1.444240 S    
O17   C13   1.272147 A    
C54   C62   1.407809 A    
O45   C23   1.270464 A    
C26   N1    1.477699 S    
