data_mof_unit_40075.cif
_audit_creation_date              2012-12-10T20:27:53-0500
_audit_creation_method            fapswitch 2.2
_symmetry_space_group_name_H-M    P1
_symmetry_Int_Tables_number       1
_space_group_crystal_system       triclinic
_cell_length_a                    12.890804
_cell_length_b                    10.684286
_cell_length_c                    9.845974
_cell_angle_alpha                 89.968235
_cell_angle_beta                  96.876346
_cell_angle_gamma                 90.108043
_cell_volume                      1346.31959152

loop_
_atom_site_label
_atom_site_type_symbol
_atom_type_description
_atom_site_fract_x
_atom_site_fract_y
_atom_site_fract_z
_atom_type_partial_charge
C1    C     C_R   0.501959 0.259916 0.500022 0.878435
C2    C     C_R   0.028811 0.514465 0.565020 0.197110
C3    C     C_R   0.970834 0.504201 0.434410 0.193100
C4    C     C_R   0.863753 0.499383 0.423923 -0.295204
C5    C     C_R   0.870899 0.515014 0.671722 -0.227102
C6    C     C_R   0.978809 0.520370 0.683226 -0.237498
C7    C     C_R   0.553161 0.064067 0.616949 0.043872
C8    C     C_R   0.515486 0.128417 0.498461 -0.100866
C9    C     C_R   0.498085 0.064263 0.373671 -0.221389
C10   C     C_R   0.499408 0.935412 0.373793 -0.222307
C11   C     C_R   0.518392 0.871364 0.498709 -0.100531
C12   C     C_R   0.298121 0.501813 0.473530 0.888872
C13   C     C_R   0.556008 0.936408 0.617161 0.039820
C14   C     C_3   0.532274 0.927416 0.762690 -0.243970
C15   C     C_3   0.526658 0.071638 0.760793 -0.249305
C16   C     C_R   0.409506 0.479963 0.057340 0.214204
C17   C     C_R   0.587804 0.528592 0.085529 -0.125631
C18   C     C_R   0.587830 0.528592 0.941642 -0.087394
C19   C     C_R   0.409438 0.480165 0.914546 0.215319
C20   C     C_3   0.343185 0.365374 0.898878 -0.508186
C21   C     C_3   0.343514 0.365073 0.052925 -0.512586
C22   C     C_R   0.503496 0.739984 0.500208 0.877486
C23   C     C_R   0.701830 0.500650 0.526473 0.875993
C24   C     C_R   0.813781 0.504361 0.541951 -0.043407
C25   C     C_R   0.186035 0.506254 0.457885 -0.051744
C26   C     C_R   0.020709 0.498026 0.316235 -0.235576
C27   C     C_R   0.128653 0.498934 0.328022 -0.203558
C28   C     C_R   0.136051 0.516905 0.575516 -0.291732
H1    H     H_    0.819695 0.491220 0.323315 0.145555
H2    H     H_    0.445589 0.106187 0.762662 0.140196
H3    H     H_    0.659333 0.549195 0.150471 0.147940
H4    H     H_    0.659213 0.549332 0.898650 0.155487
H5    H     H_    0.264732 0.383835 0.842929 0.194601
H6    H     H_    0.384716 0.284493 0.860356 0.210168
H7    H     H_    0.265267 0.383532 0.084790 0.192758
H8    H     H_    0.385342 0.283914 0.104378 0.207167
H9    H     H_    0.832432 0.519550 0.763567 0.154973
H10   H     H_    0.976487 0.491097 0.215654 0.127420
H11   H     H_    0.022935 0.528266 0.783749 0.132045
H12   H     H_    0.166876 0.492962 0.236281 0.151983
H13   H     H_    0.180260 0.525803 0.675835 0.153545
H14   H     H_    0.475479 0.112269 0.277819 0.154492
H15   H     H_    0.477295 0.887058 0.278006 0.162689
H16   H     H_    0.454998 0.882691 0.769342 0.152600
N1    N     N_R   0.499290 0.499140 0.142710 -0.113732
N2    N     N_R   0.499290 0.499180 0.857070 -0.111865
O1    O     O_R   0.500010 0.316790 0.614690 -0.614716
O2    O     O_R   0.500000 0.316760 0.385350 -0.631254
O3    O     O_R   0.346360 0.499990 0.595720 -0.624607
O4    O     O_R   0.346350 0.499960 0.366370 -0.622088
O5    O     O_R   0.500000 0.683240 0.614650 -0.619985
O6    O     O_R   0.499990 0.683210 0.385310 -0.626043
O7    O     O_R   0.653650 0.500040 0.633630 -0.629832
O8    O     O_R   0.653640 0.500010 0.404280 -0.638154
Zn1   Zn    Zn3+2 0.500010 0.500020 0.653130 0.945839
Zn2   Zn    Zn3+2 0.499990 0.499980 0.346870 0.928383
C29   C     C_R   0.618784 0.870950 0.862933 0.202318
C30   C     C_R   0.714318 0.828981 0.822890 -0.113066
C31   C     C_R   0.792429 0.781720 0.920134 -0.178606
C32   C     C_R   0.776443 0.775726 0.057797 -0.147164
C33   C     C_R   0.681812 0.815743 0.098378 -0.130086
C34   C     C_R   0.602910 0.861317 0.001324 -0.150664
H17   H     H_    0.729444 0.833126 0.717272 0.122297
H18   H     H_    0.865569 0.749928 0.888699 0.136981
H19   H     H_    0.837033 0.739128 0.132870 0.132093
H20   H     H_    0.669095 0.810033 0.204905 0.146141
H21   H     H_    0.529617 0.890795 0.034257 0.109488
C35   C     C_R   0.605881 0.141658 0.860371 0.209302
C36   C     C_R   0.700357 0.189889 0.822647 -0.080901
C37   C     C_R   0.770059 0.253930 0.918141 -0.163848
C38   C     C_R   0.746750 0.270504 0.051841 -0.132625
C39   C     C_R   0.653189 0.224041 0.090079 -0.107525
C40   C     C_R   0.582824 0.160928 0.994710 -0.171658
H22   H     H_    0.720956 0.178257 0.720095 0.114842
H23   H     H_    0.842365 0.290586 0.888448 0.131685
H24   H     H_    0.800855 0.320072 0.125562 0.119892
H25   H     H_    0.634881 0.237750 0.193452 0.155669
H26   H     H_    0.510337 0.126130 0.025704 0.103642

loop_
_geom_bond_atom_site_label_1
_geom_bond_atom_site_label_2
_ccdc_geom_bond_type
C8    C9    A    
C16   C21   S    
C5    H9    S    
C1    C8    S    
C19   C20   S    
C12   O3    A    
C19   N2    A    
C7    C8    A    
C21   H8    S    
C2    C6    A    
C25   C28   A    
C26   C27   A    
C34   H21   S    
C15   H2    S    
O1    Zn1   S    
C17   N1    A    
C5    C6    A    
C4    C24   A    
C28   H13   S    
C33   H20   S    
N1    Zn2   S    
C35   C36   A    
N2    Zn1   S    
C23   C24   S    
C37   C38   A    
C9    C10   A    
C4    H1    S    
C20   H6    S    
C7    C15   S    
C31   C32   A    
C13   C14   S    
C33   C34   A    
C18   N2    A    
C23   O7    A    
O7    Zn1   S    
O8    Zn2   S    
C29   C34   A    
C1    O1    A    
C35   C40   A    
O3    Zn1   S    
O4    Zn2   S    
C32   C33   A    
C39   H25   S    
C27   H12   S    
C40   H26   S    
C17   C18   A    
C9    H14   S    
C36   H22   S    
C20   H5    S    
C32   H19   S    
C17   H3    S    
C18   H4    S    
C3    C4    A    
C23   O8    A    
C14   H16   S    
C30   H17   S    
O2    Zn2   S    
C14   C29   S    
C10   H15   S    
C6    H11   S    
C3    C26   A    
C26   H10   S    
C39   C40   A    
C16   N1    A    
C12   O4    A    
C1    O2    A    
C21   H7    S    
C25   C27   A    
C11   C22   S    
C12   C25   S    
C2    C3    A    
C30   C31   A    
C38   C39   A    
C11   C13   A    
C29   C30   A    
C38   H24   S    
C5    C24   A    
C16   C19   A    
C15   C35   S    
C22   O6    A    
O5    Zn1   S    
C36   C37   A    
C10   C11   A    
C31   H18   S    
C7    C13   A    
C20   C21   S    
C37   H23   S    
C14   C15   S    
C2    C28   A    
O6    Zn2   S    
C22   O5    A    
