data_mof_unit_34112.cif
_audit_creation_date              2013-03-05T15:41:10-0500
_audit_creation_method            fapswitch 2.2
_symmetry_space_group_name_H-M    P1
_symmetry_Int_Tables_number       1
_space_group_crystal_system       triclinic
_cell_length_a                    15.857137
_cell_length_b                    8.689821
_cell_length_c                    7.470172
_cell_angle_alpha                 103.077892
_cell_angle_beta                  93.880103
_cell_angle_gamma                 92.189075
_cell_volume                      998.84360052

loop_
_atom_site_label
_atom_site_type_symbol
_atom_site_description
_atom_site_fract_x
_atom_site_fract_y
_atom_site_fract_z
_atom_type_partial_charge
O1    O     O_R   0.506050 0.286130 0.619770 -0.586393
O2    O     O_R   0.490330 0.256780 0.308370 -0.584040
C1    C     C_R   0.497468 0.199799 0.453260 0.877910
O3    O     O_R   0.387300 0.514690 0.655770 -0.580351
O4    O     O_R   0.371580 0.485340 0.344370 -0.553365
C2    C     C_R   0.340434 0.499963 0.502881 0.820115
Cu1   Cu    Cu3+1 0.509300 0.517380 0.684380 0.964538
Cu2   Cu    Cu3+1 0.490700 0.482620 0.315620 0.976482
O5    O     O_R   0.509670 0.743220 0.691630 -0.585042
O6    O     O_R   0.493950 0.713870 0.380230 -0.584212
O7    O     O_R   0.628420 0.514660 0.655630 -0.576704
O8    O     O_R   0.612700 0.485310 0.344230 -0.586388
C3    C     C_R   0.502484 0.800199 0.546742 0.877028
C4    C     C_R   0.659579 0.500150 0.497128 0.815240
C5    C     C_3   0.049858 0.418644 0.648694 -0.402020
C6    C     C_3   0.042928 0.411276 0.312222 0.223321
C7    C     C_3   0.944842 0.417149 0.303524 -0.436877
H1    H     H_    0.925433 0.293231 0.611494 0.170315
H2    H     H_    0.070314 0.294912 0.622333 0.179851
H3    H     H_    0.058098 0.284814 0.296556 0.108936
H4    H     H_    0.915848 0.294300 0.263930 0.145741
H5    H     H_    0.921099 0.478518 0.196108 0.201444
C8    C     C_1   0.749006 0.500316 0.491257 -0.169839
C9    C     C_3   0.083057 0.504661 0.504813 0.117985
C10   C     C_3   0.952030 0.417649 0.642436 -0.381558
C11   C     C_3   0.916826 0.502531 0.493776 0.240779
C12   C     C_3   0.954744 0.675260 0.541004 -0.396473
C13   C     C_3   0.053112 0.678020 0.548288 -0.153344
C14   C     C_1   0.824558 0.501036 0.490172 -0.076302
C15   C     C_1   0.175568 0.502908 0.509502 -0.016839
C16   C     C_1   0.251072 0.501507 0.508855 -0.097362
H6    H     H_    0.075007 0.740692 0.444661 0.187879
H7    H     H_    0.932333 0.739783 0.674329 0.173478
H8    H     H_    0.077232 0.479193 0.787951 0.277216
H9    H     H_    0.932503 0.477478 0.780291 0.203232
H10   H     H_    0.930882 0.737515 0.434401 0.171204
C17   C     C_2   0.496244 0.031789 0.427144 -0.358929
H11   H     H_    0.489268 0.960059 0.286811 0.182525
C18   C     C_2   0.503646 0.968204 0.572861 -0.362809
H12   H     H_    0.510614 0.039934 0.713195 0.180590
N1    N     N_2   0.476670 0.456430 0.038530 -0.209002
H13   H     H_    0.434966 0.376760 0.949027 0.235418
N2    N     N_2   0.523330 0.543570 0.961470 -0.216117
H14   H     H_    0.565024 0.623256 0.050978 0.224721
N3    N     N_R   0.078402 0.466894 0.160387 0.111416
O9    O     O_R   0.132707 0.382709 0.063401 -0.385288
O10   O     O_R   0.058745 0.601441 0.124573 -0.411512
C19   C     C_1   0.090414 0.772056 0.728517 0.258144
N4    N     N_1   0.119639 0.845741 0.869454 -0.214744

loop_
_geom_bond_atom_site_label_1
_geom_bond_atom_site_label_2
_geom_bond_distance
_ccdc_geom_bond_type
C4    C8    1.421649 S    
C6    N3    1.466334 S    
O4    Cu2   1.915894 S    
Cu1   O7    1.915894 S    
N2    H14   1.029245 S    
C17   H11   1.087684 S    
Cu1   N2    2.026435 S    
C12   H10   1.113473 S    
N1    H13   1.029253 S    
C6    C9    1.562558 S    
C5    H8    1.105062 S    
C7    H5    1.112709 S    
Cu2   O8    1.930575 S    
C6    H3    1.115801 S    
C2    C16   1.421227 S    
Cu1   Cu2   2.696902 S    
C17   C18   1.328088 D    
N3    O9    1.301663 A    
C12   H7    1.114908 S    
C5    H2    1.113337 S    
N1    N2    1.290087 D    
C13   C19   1.479077 S    
C11   C12   1.549723 S    
O4    C2    1.295386 A    
H1    C10   1.113157 S    
C10   H9    1.113478 S    
O3    Cu1   1.930574 S    
C7    C11   1.549553 S    
C8    C14   1.198407 T    
O3    C2    1.297994 A    
C5    C9    1.549578 S    
O8    C4    1.298042 A    
O2    C1    1.288305 A    
N3    O10   1.301482 A    
C15   C16   1.198130 T    
O7    C4    1.295509 A    
C9    C15   1.465742 S    
C3    C18   1.427716 S    
C5    C10   1.548444 S    
C13   H6    1.108661 S    
Cu2   N1    2.026435 S    
C1    C17   1.427722 S    
C11   C14   1.461036 S    
Cu2   O6    1.955396 S    
C18   H12   1.087682 S    
Cu1   O5    1.950740 S    
O5    C3    1.288307 A    
C19   N4    1.157330 T    
O1    C1    1.294411 A    
C10   C11   1.551509 S    
O1    Cu1   1.955396 S    
O2    Cu2   1.950740 S    
C9    C13   1.566670 S    
C6    C7    1.555601 S    
C12   C13   1.556178 S    
O6    C3    1.294405 A    
C7    H4    1.113419 S    
