data_mof_unit_52935.cif
_audit_creation_date              2012-12-10T16:44:45-0500
_audit_creation_method            fapswitch 2.2
_symmetry_space_group_name_H-M    P1
_symmetry_Int_Tables_number       1
_space_group_crystal_system       triclinic
_cell_length_a                    14.987082
_cell_length_b                    8.750953
_cell_length_c                    7.436215
_cell_angle_alpha                 102.811614
_cell_angle_beta                  93.959391
_cell_angle_gamma                 92.589373
_cell_volume                      946.88330155

loop_
_atom_site_label
_atom_site_type_symbol
_atom_type_description
_atom_site_fract_x
_atom_site_fract_y
_atom_site_fract_z
_atom_type_partial_charge
C1    C     C_R   0.496339 0.200371 0.454057 0.845582
C2    C     C_R   0.503634 0.799630 0.545951 0.839818
C3    C     C_R   0.027458 0.215411 0.347103 -0.014266
C4    C     C_R   0.972451 0.784942 0.648118 0.039480
C5    C     C_2   0.486237 0.033454 0.430280 -0.051324
C6    C     C_2   0.513682 0.966554 0.569764 -0.050480
C7    C     C_R   0.329073 0.495918 0.502222 0.797718
C8    C     C_R   0.670938 0.504004 0.497742 0.799539
C9    C     C_R   0.820462 0.646168 0.582628 0.116443
C10   C     C_R   0.179755 0.353109 0.418268 0.072054
C11   C     C_R   0.767264 0.510485 0.491982 -0.108131
C12   C     C_R   0.232739 0.489474 0.507536 -0.075219
C13   C     C_R   0.805478 0.376907 0.399604 -0.219834
C14   C     C_R   0.194355 0.624048 0.596501 -0.245805
C15   C     C_R   0.897917 0.371118 0.405764 0.072853
C16   C     C_R   0.101942 0.629889 0.589101 0.121470
C17   C     C_R   0.953132 0.505263 0.493489 -0.003748
C18   C     C_R   0.046778 0.495441 0.501597 0.028814
C19   C     C_R   0.914623 0.648446 0.573458 0.106494
C20   C     C_R   0.085301 0.351749 0.423248 0.024042
C21   C     C_R   0.934934 0.229594 0.332419 -0.143873
C22   C     C_R   0.064833 0.771585 0.661663 -0.273733
Cu1   Cu    Cu3+1 0.510010 0.517380 0.684380 0.959926
Cu2   Cu    Cu3+1 0.489990 0.482620 0.315620 0.960224
H1    H     H_    0.762710 0.273737 0.332326 0.150701
H2    H     H_    0.237030 0.727591 0.662870 0.141498
H3    H     H_    0.890679 0.126574 0.272516 0.197280
H4    H     H_    0.108711 0.875242 0.721343 0.134763
H5    H     H_    0.430396 0.377821 0.948416 0.224429
H6    H     H_    0.569606 0.622175 0.051583 0.227786
N1    N     N_2   0.474890 0.456420 0.038520 -0.205104
N2    N     N_2   0.525110 0.543580 0.961480 -0.203700
O1    O     O_R   0.506510 0.286130 0.619770 -0.552161
O2    O     O_R   0.493490 0.713870 0.380230 -0.551132
O3    O     O_R   0.489600 0.256770 0.308360 -0.605675
O4    O     O_R   0.510400 0.743230 0.691640 -0.606774
O5    O     O_R   0.378710 0.514640 0.655720 -0.588530
O6    O     O_R   0.621290 0.485360 0.344280 -0.584192
O7    O     O_R   0.361800 0.485290 0.344300 -0.579256
O8    O     O_R   0.638200 0.514710 0.655700 -0.578789
N3    N     N_3   0.779358 0.776576 0.691779 -0.547794
H7    H     H_    0.728897 0.812375 0.608782 0.218805
H8    H     H_    0.750772 0.740782 0.801121 0.229045
N4    N     N_3   0.221690 0.220505 0.315739 -0.632439
H9    H     H_    0.252239 0.252981 0.206546 0.243121
H10   H     H_    0.270601 0.186172 0.403439 0.192716
C23   C     C_2   0.058971 0.053878 0.298532 0.413372
H11   H     H_    0.116446 0.021589 0.375459 0.093476
O9    O     O_2   0.018791 0.952927 0.176042 -0.563769
C24   C     C_2   0.942417 0.946765 0.699981 0.421220
H12   H     H_    0.974839 0.028819 0.820566 0.093200
O10   O     O_2   0.886666 0.993668 0.600843 -0.546858
N5    N     N_3   0.442103 0.943318 0.258691 -0.562850
H13   H     H_    0.480004 0.958832 0.150489 0.227998
H14   H     H_    0.379240 0.986953 0.238909 0.212358
N6    N     N_3   0.557738 0.056712 0.741427 -0.557346
H15   H     H_    0.519814 0.041109 0.849564 0.224574
H16   H     H_    0.620625 0.013204 0.761295 0.221984

loop_
_geom_bond_atom_site_label_1
_geom_bond_atom_site_label_2
_ccdc_geom_bond_type
C24   O10   D    
Cu1   Cu2   S    
C6    N6    S    
N6    H16   S    
C4    C22   A    
N3    H7    S    
N3    H8    S    
C9    N3    S    
N1    N2    D    
C12   C14   A    
C9    C11   A    
C16   C22   A    
Cu1   N2    S    
C2    O2    A    
N5    H14   S    
C24   H12   S    
C7    O5    A    
Cu2   N1    S    
C1    O1    A    
C3    C20   A    
C23   O9    D    
C16   C18   A    
C22   H4    S    
N5    H13   S    
N6    H15   S    
H6    N2    S    
C11   C13   A    
C13   H1    S    
C2    C6    S    
C10   C12   A    
C8    O6    A    
C8    C11   S    
C1    C5    S    
C3    C23   S    
C17   C19   A    
N4    H10   S    
C17   C18   A    
C18   C20   A    
C13   C15   A    
C21   H3    S    
C5    C6    D    
C14   C16   A    
C7    C12   S    
C3    C21   A    
Cu2   O3    S    
C2    O4    A    
Cu1   O8    S    
C15   C21   A    
Cu2   O7    S    
N4    H9    S    
C1    O3    A    
H5    N1    S    
Cu1   O4    S    
C10   C20   A    
C15   C17   A    
C7    O7    A    
C5    N5    S    
C8    O8    A    
Cu1   O5    S    
C4    C19   A    
C10   N4    S    
C9    C19   A    
Cu2   O6    S    
C14   H2    S    
C23   H11   S    
C4    C24   S    
Cu1   O1    S    
Cu2   O2    S    
