data_mof_unit_6357.cif
_audit_creation_date              2012-12-10T17:22:09-0500
_audit_creation_method            fapswitch 2.2
_symmetry_space_group_name_H-M    P1
_symmetry_Int_Tables_number       1
_space_group_crystal_system       triclinic
_cell_length_a                    16.02789
_cell_length_b                    10.8015
_cell_length_c                    9.70412
_cell_angle_alpha                 91.467477
_cell_angle_beta                  92.115409
_cell_angle_gamma                 97.352052
_cell_volume                      1664.30051661

loop_
_atom_site_label
_atom_site_type_symbol
_atom_type_description
_atom_site_fract_x
_atom_site_fract_y
_atom_site_fract_z
_atom_type_partial_charge
C1    C     C_R   0.503612 0.262016 0.498422 0.772363
C2    C     C_3   0.950289 0.405457 0.632843 -0.135575
C3    C     C_3   0.916190 0.474882 0.498948 -0.061644
C4    C     C_3   0.965339 0.615241 0.495198 -0.150630
C5    C     C_3   0.062247 0.605686 0.521452 -0.234301
C6    C     C_1   0.823506 0.481592 0.504849 -0.065703
C7    C     C_1   0.175592 0.471523 0.486146 -0.024509
C8    C     C_1   0.251072 0.481002 0.490497 -0.061475
C9    C     C_R   0.560224 0.115807 0.740205 0.005504
C10   C     C_R   0.545809 0.061807 0.867742 -0.171632
C11   C     C_R   0.486514 0.956887 0.877262 -0.200059
C12   C     C_R   0.340609 0.494137 0.497399 0.797471
C13   C     C_R   0.452094 0.892679 0.757422 -0.035353
C14   C     C_R   0.477248 0.936965 0.627030 0.038639
C15   C     C_R   0.515093 0.061469 0.619868 0.041091
C16   C     C_R   0.504048 0.124533 0.494654 -0.155538
C17   C     C_R   0.475142 0.052637 0.372957 -0.061628
C18   C     C_R   0.456161 0.922734 0.378392 -0.077954
C19   C     C_R   0.467106 0.863606 0.503648 -0.162009
C20   C     C_R   0.640306 0.644660 0.146456 -0.091137
C21   C     C_R   0.715856 0.671342 0.075151 -0.170359
C22   C     C_R   0.716444 0.636020 0.936593 -0.119705
C23   C     C_R   0.486568 0.733142 0.501103 0.855316
C24   C     C_R   0.639111 0.621695 0.865325 -0.046779
C25   C     C_R   0.567429 0.563824 0.930470 0.065157
C26   C     C_R   0.567578 0.568213 0.079583 0.157404
C27   C     C_R   0.436429 0.436310 0.069042 0.029950
C28   C     C_R   0.436642 0.434350 0.920916 0.057262
C29   C     C_R   0.659570 0.498132 0.501932 0.875242
C30   C     C_3   0.047393 0.381782 0.611168 -0.149257
C31   C     C_3   0.037612 0.416499 0.344898 -0.186815
C32   C     C_3   0.936295 0.398078 0.360225 -0.149692
C33   C     C_1   0.748750 0.489405 0.505325 -0.099260
C34   C     C_3   0.082779 0.467795 0.488395 0.016063
Cu1   Cu    Cu3+1 0.499990 0.499990 0.640660 0.966504
Cu2   Cu    Cu3+1 0.500010 0.500010 0.359340 0.991313
H1    H     H_    0.579851 0.102007 0.960142 0.176688
H2    H     H_    0.471330 0.921704 0.977672 0.171836
H3    H     H_    0.076070 0.619498 0.634046 0.093257
N1    N     N_R   0.500800 0.501210 0.147910 -0.226806
N2    N     N_R   0.500820 0.501290 0.852040 -0.238170
O1    O     O_R   0.499990 0.319640 0.618810 -0.616505
O2    O     O_R   0.500000 0.319660 0.381240 -0.571172
O3    O     O_R   0.379430 0.499990 0.618840 -0.587199
O4    O     O_R   0.379440 0.500020 0.381260 -0.579868
O5    O     O_R   0.500000 0.680340 0.618760 -0.595815
O6    O     O_R   0.500010 0.680360 0.381190 -0.579076
O7    O     O_R   0.620560 0.499980 0.618740 -0.560813
O8    O     O_R   0.620570 0.500010 0.381160 -0.585287
C35   C     C_2   0.892008 0.288663 0.669116 0.498688
H4    H     H_    0.833602 0.259696 0.611328 0.118676
O9    O     O_2   0.907074 0.229467 0.770955 -0.432151
C36   C     C_1   0.100489 0.415604 0.739986 0.290812
N3    N     N_1   0.140929 0.442680 0.840052 -0.149567
C37   C     C_1   0.946730 0.484128 0.759962 0.245845
N4    N     N_1   0.947695 0.541535 0.862351 -0.182461
C38   C     C_2   0.943197 0.676614 0.360947 0.431462
H5    H     H_    0.877235 0.674869 0.333388 0.083916
O10   O     O_2   0.994643 0.733818 0.288737 -0.496380
C39   C     C_1   0.468356 0.107893 0.239407 0.301696
N5    N     N_1   0.463211 0.150411 0.131863 -0.318948
C40   C     C_1   0.630499 0.213118 0.734724 0.312261
N6    N     N_1   0.687536 0.290207 0.732898 -0.292151
C41   C     C_1   0.385785 0.790323 0.771249 0.285448
N7    N     N_1   0.332248 0.709142 0.783330 -0.226293
C42   C     C_1   0.418211 0.850579 0.258234 0.295710
N8    N     N_1   0.387382 0.792298 0.163674 -0.250313
C43   C     C_1   0.368655 0.364914 0.137859 0.441574
N9    N     N_1   0.313962 0.306845 0.191393 -0.245452
C44   C     C_2   0.064660 0.246914 0.583984 0.382841
H6    H     H_    0.127948 0.231039 0.558419 0.087820
O11   O     O_2   0.012641 0.155180 0.593718 -0.498508
C45   C     C_1   0.640942 0.723793 0.268788 0.334084
N10   N     N_1   0.649143 0.792279 0.363657 -0.221128
C46   C     C_1   0.784838 0.761914 0.131449 0.345087
N11   N     N_1   0.838196 0.837235 0.173638 -0.151450
C47   C     C_2   0.792934 0.654287 0.855101 0.560043
H7    H     H_    0.794444 0.597775 0.761970 0.090217
O12   O     O_2   0.851935 0.734533 0.885775 -0.487606
C48   C     C_2   0.630362 0.730761 0.780799 0.473302
H8    H     H_    0.585795 0.791921 0.809636 0.066105
O13   O     O_2   0.675231 0.756965 0.683894 -0.510829
C49   C     C_2   0.368837 0.353176 0.841347 0.413357
H9    H     H_    0.382185 0.300739 0.750853 0.111282
O14   O     O_2   0.295963 0.344076 0.875831 -0.541160
C50   C     C_1   0.065270 0.503289 0.234522 0.463199
N12   N     N_1   0.087336 0.568502 0.146415 -0.125917
C51   C     C_1   0.069227 0.300601 0.295386 0.206884
N13   N     N_1   0.094134 0.210652 0.255968 -0.183918
C52   C     C_2   0.898548 0.260407 0.367544 0.412404
H10   H     H_    0.937113 0.186247 0.378992 0.151618
O15   O     O_2   0.822279 0.229944 0.358719 -0.538765
C53   C     C_2   0.890473 0.436924 0.229395 0.447062
H11   H     H_    0.836791 0.488024 0.235476 0.061425
O16   O     O_2   0.907322 0.398521 0.115505 -0.494780
C54   C     C_2   0.120409 0.716962 0.470850 0.491601
H12   H     H_    0.114812 0.809305 0.513490 0.087841
O17   O     O_2   0.172535 0.706831 0.384113 -0.512105
C55   C     C_2   0.938085 0.705370 0.604123 0.361210
H13   H     H_    0.978959 0.737258 0.693035 0.130324
O18   O     O_2   0.870638 0.746539 0.592164 -0.483254

loop_
_geom_bond_atom_site_label_1
_geom_bond_atom_site_label_2
_ccdc_geom_bond_type
C37   N4    T    
C53   H11   S    
C45   N10   T    
Cu1   Cu2   S    
C3    C6    S    
C38   H5    S    
C7    C8    T    
C29   O8    A    
C36   N3    T    
C10   H1    S    
C2    C37   S    
C48   H8    S    
C38   O10   D    
C15   C16   A    
C29   C33   S    
C28   N2    A    
Cu2   O6    S    
C18   C19   A    
Cu1   O1    S    
C27   C43   S    
C2    C35   S    
C24   C48   S    
C32   C52   S    
C31   C32   S    
C43   N9    T    
C54   O17   D    
C4    C38   S    
C35   O9    D    
C44   H6    S    
C9    C10   A    
C32   C53   S    
C53   O16   D    
C31   C50   S    
C21   C22   A    
C54   H12   S    
C28   C49   S    
Cu1   O7    S    
C30   C44   S    
C1    O2    A    
C35   H4    S    
C47   O12   D    
C30   C36   S    
C23   O6    A    
C30   C34   S    
C29   O7    A    
C9    C40   S    
Cu2   N1    S    
C24   C25   A    
C48   O13   D    
C25   N2    A    
C50   N12   T    
C16   C17   A    
C25   C26   A    
C47   H7    S    
C39   N5    T    
C11   H2    S    
C19   C23   S    
C46   N11   T    
C40   N6    T    
C52   O15   D    
C49   H9    S    
C27   N1    A    
C8    C12   S    
C5    C34   S    
C17   C18   A    
C31   C34   S    
Cu2   O4    S    
C1    C16   S    
C20   C21   A    
Cu1   O3    S    
C49   O14   D    
C5    H3    S    
C7    C34   S    
C22   C24   A    
C3    C4    S    
C5    C54   S    
C31   C51   S    
C55   O18   D    
C14   C19   A    
C22   C47   S    
C12   O4    A    
C18   C42   S    
C21   C46   S    
C6    C33   T    
C2    C30   S    
C41   N7    T    
C2    C3    S    
C9    C15   A    
C12   O3    A    
C55   H13   S    
C11   C13   A    
C26   N1    A    
C52   H10   S    
C13   C41   S    
C20   C26   A    
C20   C45   S    
C42   N8    T    
C3    C32   S    
Cu1   N2    S    
C10   C11   A    
C17   C39   S    
C1    O1    A    
C4    C5    S    
C51   N13   T    
C4    C55   S    
C27   C28   A    
C23   O5    A    
C14   C15   A    
Cu2   O2    S    
C44   O11   D    
C13   C14   A    
Cu1   O5    S    
Cu2   O8    S    
