data_mof_unit_68011.cif
_audit_creation_date              2013-03-05T15:40:24-0500
_audit_creation_method            fapswitch 2.2
_symmetry_space_group_name_H-M    P1
_symmetry_Int_Tables_number       1
_space_group_crystal_system       triclinic
_cell_length_a                    7.257763
_cell_length_b                    12.00808
_cell_length_c                    12.792294
_cell_angle_alpha                 89.998902
_cell_angle_beta                  89.997761
_cell_angle_gamma                 89.997823
_cell_volume                      1114.87143006

loop_
_atom_site_label
_atom_site_type_symbol
_atom_site_description
_atom_site_fract_x
_atom_site_fract_y
_atom_site_fract_z
_atom_type_partial_charge
O1    O     O_R   0.563540 0.856420 0.141290 -0.539501
O2    O     O_R   0.436460 0.143580 0.858710 -0.535599
O3    O     O_R   0.436460 0.143580 0.641290 -0.539520
O4    O     O_R   0.563540 0.856420 0.358710 -0.535616
O5    O     O_R   0.063540 0.643580 0.358710 -0.539532
O6    O     O_R   0.936460 0.356420 0.641290 -0.535619
O7    O     O_R   0.936460 0.356420 0.858710 -0.539503
O8    O     O_R   0.063540 0.643580 0.141290 -0.535675
O9    O     O_R   0.233730 0.870400 0.357990 -0.551120
O10   O     O_R   0.766270 0.129600 0.642010 -0.552686
O11   O     O_R   0.766270 0.129600 0.857990 -0.551117
O12   O     O_R   0.233730 0.870400 0.142010 -0.552695
O13   O     O_R   0.733730 0.629600 0.142010 -0.551164
O14   O     O_R   0.266270 0.370400 0.857990 -0.552701
O15   O     O_R   0.266270 0.370400 0.642010 -0.551157
O16   O     O_R   0.733730 0.629600 0.357990 -0.552695
C1    C     C_R   0.404807 0.904009 0.386079 0.730324
C2    C     C_R   0.596655 0.109145 0.602063 0.694006
C3    C     C_R   0.595192 0.096002 0.886090 0.730447
C4    C     C_R   0.403347 0.890853 0.102062 0.694037
C5    C     C_R   0.904821 0.595980 0.113937 0.730538
C6    C     C_R   0.096652 0.390875 0.897918 0.694086
C7    C     C_R   0.095194 0.403995 0.613908 0.730321
C8    C     C_R   0.903347 0.609141 0.397933 0.694083
O17   O     O_3   0.396920 0.675570 0.250000 -0.389332
O18   O     O_3   0.603080 0.324430 0.750000 -0.389221
O19   O     O_3   0.896920 0.824430 0.250000 -0.389218
O20   O     O_3   0.103080 0.175570 0.750000 -0.389220
V1    V     V_3+5 0.122110 0.763800 0.250000 1.328026
V2    V     V_3+5 0.877890 0.236200 0.750000 1.328168
V3    V     V_3+5 0.622110 0.736200 0.250000 1.328026
V4    V     V_3+5 0.377890 0.263800 0.750000 1.328113
C9    C     C_2   0.915192 0.538480 0.496524 -0.104942
C10   C     C_2   0.080853 0.502444 0.539389 -0.122094
C11   C     C_2   0.084844 0.461561 0.996485 -0.104879
C12   C     C_2   0.919194 0.497524 0.039429 -0.122165
C13   C     C_2   0.415183 0.961506 0.003465 -0.104922
C14   C     C_2   0.580842 0.997525 0.960583 -0.122196
C15   C     C_2   0.584821 0.038488 0.503468 -0.104885
C16   C     C_2   0.419160 0.002474 0.460586 -0.122080
C17   C     C_3   0.740994 0.533176 0.563138 -0.333532
C18   C     C_3   0.768152 0.594086 0.668883 -0.282455
C19   C     C_3   0.623910 0.564735 0.751798 -0.681254
H1    H     H_    0.501424 0.522759 0.720287 0.242641
H2    H     H_    0.687135 0.509685 0.810395 0.226199
H3    H     H_    0.576862 0.639326 0.794464 0.174425
H4    H     H_    0.903965 0.574113 0.703601 0.180842
H5    H     H_    0.768162 0.685402 0.654727 0.164099
H6    H     H_    0.629773 0.576947 0.522275 0.159194
H7    H     H_    0.689002 0.447036 0.571837 0.202708
C20   C     C_3   0.250144 0.576997 0.533904 -0.352955
C21   C     C_3   0.213190 0.690741 0.584565 -0.277776
C22   C     C_3   0.387476 0.760467 0.595043 -0.784249
H8    H     H_    0.456978 0.742359 0.669407 0.223522
H9    H     H_    0.483712 0.746342 0.529303 0.234983
H10   H     H_    0.350779 0.849393 0.597766 0.210207
H11   H     H_    0.110892 0.738152 0.537883 0.198475
H12   H     H_    0.156005 0.678102 0.664102 0.166188
H13   H     H_    0.361760 0.538366 0.577271 0.175598
H14   H     H_    0.307742 0.585918 0.454837 0.195910
C23   C     C_3   0.259135 0.466943 0.063009 -0.333218
C24   C     C_3   0.232317 0.405634 0.168585 -0.282672
C25   C     C_3   0.376031 0.435293 0.251695 -0.681176
H15   H     H_    0.498582 0.477340 0.220340 0.242657
H16   H     H_    0.312269 0.490368 0.310093 0.226394
H17   H     H_    0.423080 0.360822 0.294533 0.174459
H18   H     H_    0.096194 0.425031 0.203257 0.180669
H19   H     H_    0.233250 0.314339 0.154189 0.164190
H20   H     H_    0.370525 0.423496 0.021964 0.158899
H21   H     H_    0.310874 0.553116 0.071903 0.202822
C26   C     C_3   0.749954 0.422922 0.034005 -0.353156
C27   C     C_3   0.786955 0.309188 0.084663 -0.277618
C28   C     C_3   0.612663 0.239461 0.095226 -0.783716
H22   H     H_    0.543581 0.257342 0.169800 0.223203
H23   H     H_    0.516069 0.253800 0.029679 0.234857
H24   H     H_    0.649354 0.150513 0.097667 0.210118
H25   H     H_    0.889277 0.261787 0.037969 0.198335
H26   H     H_    0.844131 0.321838 0.164197 0.166075
H27   H     H_    0.638386 0.461527 0.077424 0.175754
H28   H     H_    0.692299 0.413973 0.954959 0.195879
C29   C     C_3   0.240980 0.966810 0.936859 -0.333484
C30   C     C_3   0.268136 0.905865 0.831130 -0.282510
C31   C     C_3   0.123956 0.935224 0.748193 -0.681451
H29   H     H_    0.001379 0.977119 0.779681 0.242592
H30   H     H_    0.187184 0.990339 0.689660 0.226305
H31   H     H_    0.077052 0.860648 0.705471 0.174478
H32   H     H_    0.403963 0.925807 0.796416 0.180875
H33   H     H_    0.268097 0.814553 0.845307 0.164127
H34   H     H_    0.129742 0.923064 0.977739 0.159159
H35   H     H_    0.189000 0.052953 0.928136 0.202736
C32   C     C_3   0.750117 0.922946 0.966036 -0.353041
C33   C     C_3   0.713149 0.809202 0.915386 -0.277782
C34   C     C_3   0.887445 0.739478 0.904880 -0.784237
H36   H     H_    0.956913 0.757591 0.830498 0.223521
H37   H     H_    0.983709 0.753609 0.970607 0.234948
H38   H     H_    0.850762 0.650548 0.902164 0.210221
H39   H     H_    0.610881 0.761795 0.962094 0.198468
H40   H     H_    0.655934 0.821836 0.835860 0.166210
H41   H     H_    0.861728 0.961573 0.922662 0.175619
H42   H     H_    0.807723 0.913997 0.045091 0.195904
C35   C     C_3   0.759040 0.033171 0.436868 -0.333475
C36   C     C_3   0.731916 0.094105 0.331131 -0.282605
C37   C     C_3   0.876110 0.064732 0.248200 -0.681213
H43   H     H_    0.998623 0.022763 0.279687 0.242630
H44   H     H_    0.812845 0.009672 0.189635 0.226227
H45   H     H_    0.923128 0.139305 0.205504 0.174473
H46   H     H_    0.596100 0.074156 0.296419 0.180874
H47   H     H_    0.731953 0.185418 0.345289 0.164102
H48   H     H_    0.870270 0.076920 0.477743 0.159152
H49   H     H_    0.811010 0.947026 0.428159 0.202736
C38   C     C_3   0.249895 0.077063 0.466035 -0.353015
C39   C     C_3   0.286892 0.190812 0.415390 -0.277760
C40   C     C_3   0.112588 0.260528 0.404849 -0.784081
H50   H     H_    0.043182 0.242435 0.330439 0.223480
H51   H     H_    0.016269 0.246379 0.470555 0.234912
H52   H     H_    0.149261 0.349465 0.402157 0.210131
H53   H     H_    0.389123 0.238222 0.462122 0.198435
H54   H     H_    0.344177 0.178189 0.335873 0.166180
H55   H     H_    0.138293 0.038446 0.422651 0.175631
H56   H     H_    0.192270 0.086005 0.545091 0.195882

loop_
_geom_bond_atom_site_label_1
_geom_bond_atom_site_label_2
_geom_bond_distance
_ccdc_geom_bond_type
C23   H21   1.106681 S    
O17   V3    1.789226 S    
C25   H16   1.099810 S    
O18   V4    1.789226 S    
C35   C36   1.550386 S    
O12   V1    2.050155 S    
O19   V1    1.789175 S    
C17   C18   1.550392 S    
C11   C12   1.390540 D    
C19   H1    1.098585 S    
C26   H27   1.085823 S    
C29   C30   1.550391 S    
C33   H40   1.109242 S    
O15   V4    2.050159 S    
C5    C12   1.522209 S    
C22   H8    1.098501 S    
O16   V3    2.050158 S    
C6    C11   1.522394 S    
O11   C3    1.354127 A    
C10   C20   1.521872 S    
C34   H36   1.098568 S    
C24   H18   1.107688 S    
O8    V1    2.049095 S    
O2    V4    2.049034 S    
C13   C14   1.390513 D    
C39   H53   1.109989 S    
C35   H48   1.095977 S    
C30   H32   1.107399 S    
O1    V3    2.049034 S    
O3    C2    1.332102 A    
C38   H55   1.085904 S    
C28   H22   1.098869 S    
C26   H28   1.099621 S    
C27   H26   1.109263 S    
C27   H25   1.110052 S    
C38   C39   1.535422 S    
O11   V2    2.050154 S    
C36   H47   1.111348 S    
C32   H42   1.099588 S    
C23   C24   1.550441 S    
C12   C26   1.521894 S    
O9    V1    2.050230 S    
C40   H52   1.101175 S    
C29   H34   1.095995 S    
O15   C7    1.354106 A    
C25   H17   1.102977 S    
C34   H37   1.106309 S    
O7    V2    2.049094 S    
C28   H23   1.106442 S    
C13   C29   1.525982 S    
C36   C37   1.531337 S    
C17   H6    1.095947 S    
C39   C40   1.522928 S    
C33   H39   1.109936 S    
C15   C35   1.525992 S    
C16   C38   1.521891 S    
O5    V1    2.049034 S    
C22   H9    1.106253 S    
C20   C21   1.535403 S    
C37   H44   1.099680 S    
C32   C33   1.535387 S    
C35   H49   1.106677 S    
C14   C32   1.521894 S    
C38   H56   1.099614 S    
C1    C16   1.522277 S    
C2    C15   1.522519 S    
C24   C25   1.531407 S    
C3    C14   1.522245 S    
O10   V2    2.050231 S    
C31   H29   1.098517 S    
C7    C10   1.522194 S    
O12   C4    1.355320 A    
O8    C5    1.332742 A    
O13   C5    1.354180 A    
C36   H46   1.107368 S    
C11   C23   1.525976 S    
C18   H5    1.111382 S    
C19   H2    1.099731 S    
C21   H12   1.109270 S    
C29   H35   1.106678 S    
O9    C1    1.354154 A    
O6    V2    2.049035 S    
C34   H38   1.101126 S    
C28   H24   1.101223 S    
C20   H13   1.085901 S    
C18   C19   1.531376 S    
O4    C1    1.332772 A    
C17   H7    1.106678 S    
C15   C16   1.390555 D    
C21   C22   1.522870 S    
C40   H50   1.098662 S    
C22   H10   1.101080 S    
C23   H20   1.096085 S    
O1    C4    1.332113 A    
C31   H30   1.099649 S    
O2    C3    1.332764 A    
O13   V3    2.050150 S    
O14   V4    2.050149 S    
C27   C28   1.522998 S    
O7    C6    1.332128 A    
C8    C9    1.522479 S    
C24   H19   1.111668 S    
C9    C17   1.525954 S    
O14   C6    1.355266 A    
O20   V2    1.789176 S    
C26   C27   1.535325 S    
C39   H54   1.109292 S    
C4    C13   1.522488 S    
O5    C8    1.332101 A    
O10   C2    1.355345 A    
C30   H33   1.111370 S    
O6    C7    1.332781 A    
C33   C34   1.522887 S    
C9    C10   1.390515 D    
C37   H45   1.103011 S    
C18   H4    1.107422 S    
O3    V4    2.049050 S    
C19   H3    1.103057 S    
O4    V3    2.049048 S    
C21   H11   1.109934 S    
C25   H15   1.098602 S    
C31   H31   1.102984 S    
O16   C8    1.355334 A    
C30   C31   1.531325 S    
C37   H43   1.098560 S    
C20   H14   1.099645 S    
C32   H41   1.085895 S    
C40   H51   1.106344 S    
