data_mof_unit_25908.cif
_audit_creation_date              2012-12-10T17:12:41-0500
_audit_creation_method            fapswitch 2.2
_symmetry_space_group_name_H-M    P1
_symmetry_Int_Tables_number       1
_space_group_crystal_system       triclinic
_cell_length_a                    23.343007
_cell_length_b                    10.628807
_cell_length_c                    10.069911
_cell_angle_alpha                 88.696192
_cell_angle_beta                  89.344428
_cell_angle_gamma                 89.719156
_cell_volume                      2497.59139949

loop_
_atom_site_label
_atom_site_type_symbol
_atom_type_description
_atom_site_fract_x
_atom_site_fract_y
_atom_site_fract_z
_atom_type_partial_charge
C1    C     C_R   0.503233 0.262599 0.501754 0.943789
C2    C     C_R   0.966323 0.339490 0.652271 0.424162
C3    C     C_R   0.026038 0.341213 0.668868 0.086458
C4    C     C_R   0.058643 0.441796 0.609630 -0.088583
C5    C     C_R   0.029534 0.546543 0.550577 -0.091663
C6    C     C_R   0.060714 0.649660 0.495487 -0.215330
C7    C     C_R   0.031390 0.759501 0.450862 0.439319
C8    C     C_R   0.971903 0.760512 0.444707 0.443189
C9    C     C_R   0.119229 0.441198 0.601990 0.552441
C10   C     C_R   0.120258 0.638020 0.482767 0.556820
C11   C     C_R   0.242433 0.614375 0.590240 -0.098348
C12   C     C_R   0.389600 0.500936 0.500842 0.849558
C13   C     C_R   0.301640 0.609537 0.578403 0.391233
C14   C     C_R   0.327527 0.511992 0.504026 -0.283886
C15   C     C_R   0.292907 0.424372 0.437497 0.386211
C16   C     C_R   0.233638 0.436028 0.446421 -0.077438
C17   C     C_R   0.208570 0.528861 0.524230 0.114616
C18   C     C_R   0.765515 0.475152 0.402049 0.184337
C19   C     C_R   0.705962 0.464185 0.399281 -0.242301
C20   C     C_R   0.672216 0.517202 0.498898 -0.097468
C21   C     C_R   0.697297 0.586699 0.598768 -0.226337
C22   C     C_R   0.756457 0.600990 0.602876 0.182325
C23   C     C_R   0.502025 0.737300 0.498160 0.894322
C24   C     C_R   0.790752 0.542752 0.505441 0.246093
C25   C     C_2   0.542695 0.934026 0.415860 0.204784
C26   C     C_2   0.504028 0.870202 0.491504 -0.342674
C27   C     C_2   0.535304 0.069820 0.404808 -0.175590
C28   C     C_2   0.515449 0.131597 0.509420 -0.354361
C29   C     C_2   0.524554 0.416724 0.929052 0.546307
C30   C     C_2   0.511556 0.404886 0.076336 -0.268090
C31   C     C_R   0.610456 0.502561 0.499327 0.876964
C32   C     C_R   0.881375 0.642994 0.462774 0.522734
C33   C     C_R   0.877510 0.448887 0.586026 0.516755
C34   C     C_R   0.937572 0.443770 0.593675 -0.112586
C35   C     C_R   0.969227 0.547801 0.543809 -0.111048
C36   C     C_R   0.940561 0.651918 0.483489 -0.198040
H1    H     H_    0.686064 0.410998 0.321763 0.163448
H2    H     H_    0.670643 0.630906 0.673456 0.165699
H3    H     H_    0.469189 0.916398 0.543878 0.132698
H4    H     H_    0.545915 0.118157 0.311511 0.163058
H5    H     H_    0.511289 0.086093 0.606852 0.168412
H6    H     H_    0.513301 0.312506 0.124105 0.166350
H7    H     H_    0.514461 0.585991 0.108011 0.164561
H8    H     H_    0.222392 0.686752 0.649216 0.177837
H9    H     H_    0.206716 0.370197 0.395626 0.182464
N1    N     N_R   0.851539 0.544736 0.517372 -0.354281
N2    N     N_R   0.147703 0.536341 0.536910 -0.329402
N3    N     N_2   0.500610 0.501330 0.852150 -0.095665
N4    N     N_2   0.500630 0.501360 0.147810 -0.194744
O1    O     O_R   0.499990 0.319060 0.613040 -0.566973
O2    O     O_2   0.844756 0.360065 0.646895 -0.534083
O3    O     O_2   0.150254 0.345973 0.655126 -0.570416
O4    O     O_2   0.150756 0.724415 0.412016 -0.516272
O5    O     O_R   0.500010 0.319100 0.386900 -0.619514
O6    O     O_R   0.416150 0.499940 0.613100 -0.615029
O7    O     O_R   0.416160 0.499980 0.386960 -0.584475
O8    O     O_R   0.499990 0.680900 0.613100 -0.633726
O9    O     O_R   0.500010 0.680940 0.386960 -0.615282
O10   O     O_R   0.583840 0.500020 0.613040 -0.572821
O11   O     O_R   0.583850 0.500060 0.386900 -0.630127
O12   O     O_2   0.853526 0.730095 0.387962 -0.544025
Zn1   Zn    Zn3+2 0.499990 0.499970 0.650990 0.986903
Zn2   Zn    Zn3+2 0.500010 0.500030 0.349010 0.945071
O13   O     O_3   0.937173 0.231891 0.690608 -0.727408
H10   H     H_    0.916406 0.203617 0.611312 0.362994
C37   C     C_3   0.781650 0.677936 0.712443 -0.400781
C38   C     C_3   0.777631 0.608230 0.846259 -0.822432
H11   H     H_    0.732237 0.589650 0.874127 0.256330
H12   H     H_    0.801344 0.517567 0.842230 0.294960
H13   H     H_    0.796902 0.666623 0.923949 0.256750
H14   H     H_    0.827203 0.701544 0.692657 0.213164
H15   H     H_    0.758186 0.768933 0.718475 0.210022
C39   C     C_3   0.592542 0.874315 0.341255 -0.398235
C40   C     C_3   0.649820 0.920153 0.393141 -0.834810
H16   H     H_    0.653982 0.023499 0.377440 0.262607
H17   H     H_    0.653528 0.896545 0.500784 0.259991
H18   H     H_    0.685449 0.873212 0.339196 0.263408
H19   H     H_    0.593126 0.770348 0.350368 0.224062
H20   H     H_    0.589267 0.899363 0.233871 0.200245
O14   O     O_3   0.561633 0.332204 0.870982 -0.737639
H21   H     H_    0.576558 0.274770 0.941558 0.307250
C41   C     C_3   0.446994 0.563661 0.891255 -0.256864
C42   C     C_3   0.397811 0.470501 0.915995 -0.748844
H22   H     H_    0.398806 0.395001 0.841648 0.266517
H23   H     H_    0.400384 0.426741 0.016750 0.251331
H24   H     H_    0.356161 0.521036 0.908877 0.258472
H25   H     H_    0.451136 0.628660 0.974082 0.146954
H26   H     H_    0.434194 0.627824 0.808657 0.246953
C43   C     C_3   0.052151 0.231561 0.747910 -0.289721
C44   C     C_3   0.068835 0.122985 0.657956 -0.716816
H27   H     H_    0.029969 0.082687 0.612969 0.269359
H28   H     H_    0.098231 0.154780 0.576763 0.286058
H29   H     H_    0.090449 0.047823 0.717432 0.237991
H30   H     H_    0.088278 0.261412 0.809905 0.237502
H31   H     H_    0.021052 0.194967 0.823569 0.234432
O15   O     O_3   0.059226 0.870373 0.418625 -0.671392
H32   H     H_    0.088353 0.883763 0.487706 0.348242
O16   O     O_3   0.945833 0.872168 0.406932 -0.671547
H33   H     H_    0.914066 0.887324 0.470855 0.349888
O17   O     O_3   0.332178 0.702224 0.640106 -0.751188
H34   H     H_    0.370185 0.711533 0.596653 0.332270
O18   O     O_3   0.314466 0.324835 0.366086 -0.733860
H35   H     H_    0.355172 0.310353 0.387840 0.341427
C45   C     C_3   0.800953 0.411305 0.296097 -0.387481
C46   C     C_3   0.795920 0.481108 0.162755 -0.828081
H36   H     H_    0.822958 0.433498 0.087452 0.264696
H37   H     H_    0.750856 0.481602 0.128529 0.254591
H38   H     H_    0.810863 0.579614 0.171387 0.290245
H39   H     H_    0.846951 0.405919 0.322133 0.215198
H40   H     H_    0.786098 0.312813 0.286001 0.214851

loop_
_geom_bond_atom_site_label_1
_geom_bond_atom_site_label_2
_ccdc_geom_bond_type
C23   O9    A    
N4    Zn2   S    
C39   C40   S    
C35   C36   A    
C7    C8    A    
C7    O15   S    
C46   H37   S    
C40   H17   S    
O11   Zn2   S    
C18   C24   A    
C32   C36   A    
C32   O12   S    
C18   C19   A    
C5    C6    A    
C26   H3    S    
O5    Zn2   S    
C41   H25   S    
O16   H33   S    
O6    Zn1   S    
C28   H5    S    
C34   C35   A    
C8    C36   A    
C23   C26   S    
C31   O10   A    
C43   H30   S    
C10   O4    S    
C8    O16   S    
C22   C37   S    
C19   H1    S    
C44   H28   S    
C37   H15   S    
C21   H2    S    
C42   H22   S    
C16   C17   A    
C40   H18   S    
C1    C28   S    
C39   H19   S    
C1    O1    A    
C2    C34   A    
C37   C38   S    
C21   C22   A    
C33   N1    A    
C9    O3    S    
C45   C46   S    
C2    O13   S    
C46   H38   S    
C40   H16   S    
C29   N3    D    
C38   H11   S    
O8    Zn1   S    
C4    C5    A    
C25   C26   D    
C38   H12   S    
C31   O11   A    
C43   H31   S    
C1    O5    A    
C29   C30   S    
N3    Zn1   S    
C37   H14   S    
C27   H4    S    
O15   H32   S    
C33   C34   A    
C39   H20   S    
O7    Zn2   S    
C11   H8    S    
C18   C45   S    
C12   O7    A    
C42   H23   S    
C30   N4    D    
C12   C14   S    
C9    N2    A    
O1    Zn1   S    
C22   C24   A    
C33   O2    S    
C3    C4    A    
C10   N2    A    
C44   H29   S    
O9    Zn2   S    
C23   O8    A    
C11   C17   A    
O10   Zn1   S    
C32   N1    A    
H7    N4    S    
C17   N2    S    
O14   H21   S    
C16   H9    S    
C6    C10   A    
C6    C7    A    
C25   C27   S    
C46   H36   S    
C3    C43   S    
C38   H13   S    
C24   N1    S    
O13   H10   S    
C19   C20   A    
C2    C3    A    
C4    C9    A    
C45   H40   S    
C11   C13   A    
C44   H27   S    
C45   H39   S    
C29   O14   S    
C13   O17   S    
C41   H26   S    
C5    C35   A    
O17   H34   S    
N3    C41   S    
C25   C39   S    
C15   O18   S    
O18   H35   S    
C12   O6    A    
C42   H24   S    
C20   C21   A    
C41   C42   S    
C27   C28   D    
C14   C15   A    
C30   H6    S    
C43   C44   S    
C13   C14   A    
C15   C16   A    
C20   C31   S    
