data_mof_unit_41103.cif
_audit_creation_date              2013-03-05T15:42:11-0500
_audit_creation_method            fapswitch 2.2
_symmetry_space_group_name_H-M    P1
_symmetry_Int_Tables_number       1
_space_group_crystal_system       triclinic
_cell_length_a                    7.818605
_cell_length_b                    8.569968
_cell_length_c                    16.690982
_cell_angle_alpha                 91.666559
_cell_angle_beta                  82.833484
_cell_angle_gamma                 93.088128
_cell_volume                      1107.75179841

loop_
_atom_site_label
_atom_site_type_symbol
_atom_site_description
_atom_site_fract_x
_atom_site_fract_y
_atom_site_fract_z
_atom_type_partial_charge
O1    O     O_R   0.388470 0.738640 0.505270 -0.619535
O2    O     O_R   0.611530 0.261360 0.494730 -0.614899
O3    O     O_R   0.679650 0.711510 0.491500 -0.608842
O4    O     O_R   0.320350 0.288490 0.508500 -0.587339
C1    C     C_R   0.545457 0.794302 0.497959 0.934896
C2    C     C_R   0.454545 0.205701 0.501951 0.956838
O5    O     O_R   0.337210 0.515200 0.623500 -0.578761
O6    O     O_R   0.662790 0.484800 0.376500 -0.585325
O7    O     O_R   0.628380 0.488060 0.609730 -0.598847
O8    O     O_R   0.371620 0.511940 0.390270 -0.598782
C3    C     C_R   0.480483 0.502778 0.654110 0.862278
C4    C     C_R   0.521181 0.510629 0.346590 0.875627
Zn1   Zn    Zn3+2 0.305580 0.518120 0.509190 1.103484
Zn2   Zn    Zn3+2 0.694420 0.481880 0.490810 1.097187
C5    C     C_R   0.477406 0.512164 0.741494 -0.075254
C6    C     C_R   0.533033 0.570438 0.265052 -0.082537
C7    C     C_R   0.629801 0.554816 0.773896 -0.186942
C8    C     C_R   0.395258 0.651732 0.243029 -0.200137
C9    C     C_R   0.634064 0.563776 0.856636 0.007580
C10   C     C_R   0.403214 0.714945 0.166544 -0.031348
C11   C     C_R   0.477319 0.541349 0.908083 0.099779
C12   C     C_R   0.554547 0.697274 0.112384 0.069519
C13   C     C_R   0.324849 0.495258 0.875965 -0.171699
C14   C     C_R   0.698460 0.630861 0.137241 -0.096145
C15   C     C_R   0.324537 0.480842 0.792833 -0.139465
C16   C     C_R   0.687219 0.565887 0.212929 -0.128103
C17   C     C_2   0.466174 0.570467 0.994896 -0.171891
C18   C     C_2   0.546418 0.695458 0.026146 -0.102802
H1    H     H_    0.746637 0.580984 0.734752 0.255645
H2    H     H_    0.281413 0.667360 0.285718 0.233441
H3    H     H_    0.797280 0.508849 0.229695 0.217624
H4    H     H_    0.205176 0.446925 0.768855 0.212867
H5    H     H_    0.622032 0.782036 0.988662 0.169564
H6    H     H_    0.389272 0.487413 0.034401 0.167993
H7    H     H_    0.205135 0.474593 0.915295 0.182816
H8    H     H_    0.814627 0.617027 0.095536 0.201033
C19   C     C_2   0.569532 0.957565 0.496664 -0.335801
C20   C     C_2   0.430469 0.042411 0.503010 -0.336287
H9    H     H_    0.701315 0.007453 0.490554 0.207398
H10   H     H_    0.298687 0.992520 0.509089 0.208075
N1    N     N_2   0.953500 0.457650 0.478520 0.042894
N2    N     N_2   0.046500 0.542350 0.521480 0.041517
C21   C     C_2   0.251174 0.793101 0.143507 0.920127
O9    O     O_2   0.110666 0.776935 0.184578 -0.613532
O10   O     O_R   0.268480 0.887243 0.075612 -0.791791
H11   H     H_    0.155891 0.933254 0.066468 0.352839
C22   C     C_2   0.804918 0.590114 0.886052 0.875966
O11   O     O_2   0.838475 0.519787 0.944359 -0.651537
O12   O     O_R   0.929550 0.692209 0.845268 -0.767180
H12   H     H_    0.039572 0.703061 0.871690 0.349110
N3    N     N_R   0.034450 0.420049 0.402449 0.303388
O13   O     O_R   0.017170 0.508197 0.342243 -0.401007
O14   O     O_R   0.086359 0.279344 0.387607 -0.374304
N4    N     N_R   0.972576 0.563344 0.600233 0.295943
O15   O     O_R   0.968384 0.447458 0.649251 -0.409462
O16   O     O_R   0.963314 0.704956 0.630051 -0.385875

loop_
_geom_bond_atom_site_label_1
_geom_bond_atom_site_label_2
_geom_bond_distance
_ccdc_geom_bond_type
C20   H10   1.087983 S    
O7    Zn2   1.987544 S    
C2    C20   1.402239 S    
C19   C20   1.331938 D    
C8    H2    1.080270 S    
C1    C19   1.402115 S    
C22   O12   1.398486 S    
C7    H1    1.071996 S    
N1    N2    1.269928 D    
C8    C10   1.394228 A    
C22   O11   1.222312 D    
O6    C4    1.301854 A    
C21   O9    1.223608 D    
C15   H4    1.082964 S    
C13   C15   1.389749 A    
C11   C17   1.455771 S    
C16   H3    1.082181 S    
C19   H9    1.087970 S    
C12   C18   1.448288 S    
O10   H11   1.013955 S    
N2    N4    1.379185 S    
O5    C3    1.298465 A    
C21   O10   1.398794 S    
O7    C3    1.303191 A    
C14   H8    1.082870 S    
O3    Zn2   1.977123 S    
O8    C4    1.298947 A    
Zn2   N1    2.031648 S    
O1    C1    1.285273 A    
C12   C14   1.400492 A    
O4    C2    1.289684 A    
Zn1   N2    2.031648 S    
C7    C9    1.385364 A    
C14   C16   1.386241 A    
C18   H5    1.085779 S    
C13   H7    1.083504 S    
C11   C13   1.400324 A    
C17   H6    1.088660 S    
C6    C16   1.397521 A    
O2    Zn2   1.964809 S    
N4    O16   1.300435 A    
C5    C15   1.399347 A    
O1    Zn1   1.964810 S    
N3    O14   1.300150 A    
N3    O13   1.299140 A    
C4    C6    1.458599 S    
O5    Zn1   1.955306 S    
C10   C21   1.491429 S    
C6    C8    1.405500 A    
O12   H12   1.013284 S    
C9    C22   1.483646 S    
C17   C18   1.337852 D    
C5    C7    1.395765 A    
N4    O15   1.301481 A    
O6    Zn2   1.955304 S    
C9    C11   1.413460 A    
C3    C5    1.455669 S    
N1    N3    1.383562 S    
O2    C2    1.285268 A    
O4    Zn1   1.977123 S    
C10   C12   1.408751 A    
O3    C1    1.289731 A    
O8    Zn1   1.987542 S    
