data_mof_unit_50911.cif
_audit_creation_date              2012-12-10T19:09:06-0500
_audit_creation_method            fapswitch 2.2
_symmetry_space_group_name_H-M    P1
_symmetry_Int_Tables_number       1
_space_group_crystal_system       triclinic
_cell_length_a                    17.700782
_cell_length_b                    10.87216
_cell_length_c                    9.551016
_cell_angle_alpha                 91.073849
_cell_angle_beta                  89.946147
_cell_angle_gamma                 90.481006
_cell_volume                      1837.66414525

loop_
_atom_site_label
_atom_site_type_symbol
_atom_type_description
_atom_site_fract_x
_atom_site_fract_y
_atom_site_fract_z
_atom_type_partial_charge
C1    C     C_R   0.499318 0.262112 0.498071 0.793751
C2    C     C_R   0.884578 0.488009 0.496036 0.123937
C3    C     C_1   0.965244 0.487345 0.497364 -0.006753
C4    C     C_1   0.032988 0.487967 0.500222 0.037798
C5    C     C_R   0.154006 0.489612 0.633268 0.033198
C6    C     C_R   0.233119 0.493187 0.629407 -0.282446
C7    C     C_R   0.272317 0.496763 0.501520 -0.025762
C8    C     C_R   0.231572 0.496730 0.375769 -0.176320
C9    C     C_R   0.152970 0.493388 0.377779 -0.193321
C10   C     C_R   0.113877 0.489854 0.505082 0.114293
C11   C     C_R   0.500145 0.066485 0.620542 0.091993
C12   C     C_R   0.355478 0.499321 0.500227 0.787198
C13   C     C_R   0.494066 0.128233 0.494038 -0.171030
C14   C     C_R   0.478205 0.057697 0.369656 0.010038
C15   C     C_R   0.475008 0.929376 0.376931 -0.180506
C16   C     C_R   0.492916 0.869785 0.501282 -0.084628
C17   C     C_R   0.503052 0.940291 0.622940 0.116276
C18   C     C_3   0.562502 0.941508 0.735257 -0.218514
C19   C     C_3   0.557101 0.081356 0.735290 -0.467002
C20   C     C_R   0.531446 0.596065 0.076236 0.164807
C21   C     C_R   0.459632 0.415084 0.072606 -0.062924
C22   C     C_R   0.459589 0.415061 0.923721 -0.029222
C23   C     C_R   0.498977 0.737313 0.500956 0.883288
C24   C     C_R   0.534262 0.593122 0.929147 0.217346
C25   C     C_3   0.615954 0.633151 0.931176 -0.322537
C26   C     C_3   0.610109 0.644016 0.090287 -0.259363
C27   C     C_R   0.644255 0.499026 0.499731 0.830657
C28   C     C_R   0.844137 0.420147 0.594417 -0.114056
C29   C     C_R   0.765406 0.423373 0.595359 -0.227968
C30   C     C_R   0.726859 0.495203 0.498580 -0.044711
C31   C     C_R   0.767807 0.561746 0.399076 -0.128928
C32   C     C_R   0.846486 0.558452 0.398089 -0.153073
Cu1   Cu    Cu3+1 0.500000 0.499980 0.640670 0.977213
Cu2   Cu    Cu3+1 0.500000 0.500020 0.359330 0.966467
H1    H     H_    0.873416 0.365024 0.670226 0.163064
H2    H     H_    0.464064 0.875866 0.282045 0.178202
H3    H     H_    0.541985 0.900596 0.834197 0.127290
H4    H     H_    0.531423 0.119945 0.832742 0.209111
H5    H     H_    0.609043 0.130592 0.700473 0.201280
H6    H     H_    0.427447 0.345854 0.126868 0.147998
H7    H     H_    0.427936 0.344990 0.866606 0.139032
H8    H     H_    0.625376 0.721671 0.878363 0.102410
H9    H     H_    0.647725 0.581456 0.148064 0.205896
H10   H     H_    0.734621 0.368831 0.670374 0.177156
H11   H     H_    0.739141 0.617903 0.323979 0.181074
H12   H     H_    0.877568 0.611403 0.321829 0.144527
H13   H     H_    0.264272 0.492890 0.727063 0.146493
H14   H     H_    0.260348 0.499283 0.275726 0.155183
H15   H     H_    0.122478 0.493722 0.279403 0.146920
N1    N     N_R   0.500470 0.500930 0.147930 -0.183228
N2    N     N_R   0.500480 0.500890 0.852020 -0.167460
O1    O     O_R   0.500000 0.319640 0.618810 -0.568879
O2    O     O_R   0.500010 0.319680 0.381230 -0.606514
O3    O     O_R   0.391250 0.499990 0.618840 -0.591744
O4    O     O_R   0.391260 0.500020 0.381250 -0.590338
O5    O     O_R   0.499990 0.680320 0.618770 -0.589575
O6    O     O_R   0.500000 0.680360 0.381190 -0.583822
O7    O     O_R   0.608740 0.499980 0.618750 -0.565196
O8    O     O_R   0.608750 0.500010 0.381160 -0.576215
C33   C     C_2   0.640345 0.898829 0.692035 0.381626
H16   H     H_    0.687302 0.915361 0.763024 0.071928
O9    O     O_2   0.651838 0.846106 0.580169 -0.512633
C34   C     C_2   0.671911 0.536132 0.887523 0.463570
H17   H     H_    0.723644 0.563885 0.835648 0.070839
O10   O     O_2   0.661536 0.427875 0.914600 -0.551288
C35   C     C_2   0.611594 0.774931 0.144001 0.378909
H18   H     H_    0.576279 0.843732 0.096225 0.058264
O11   O     O_2   0.652371 0.804864 0.241958 -0.508942
C36   C     C_2   0.117062 0.485764 0.773222 0.349080
H19   H     H_    0.151693 0.487096 0.867033 0.063761
O12   O     O_2   0.048546 0.480853 0.786759 -0.543899
C37   C     C_2   0.471433 0.110261 0.228290 0.337436
H20   H     H_    0.511103 0.179373 0.192919 0.109374
O13   O     O_2   0.423266 0.071838 0.146722 -0.569883

loop_
_geom_bond_atom_site_label_1
_geom_bond_atom_site_label_2
_ccdc_geom_bond_type
C35   O11   D    
C34   O10   D    
Cu1   O7    S    
C7    C8    A    
Cu1   O1    S    
C11   C19   S    
C33   O9    D    
C28   C29   A    
C18   H3    S    
C5    C6    A    
C22   H7    S    
C15   C16   A    
C2    C32   A    
C18   C19   S    
C25   C34   S    
C36   O12   D    
C1    O2    A    
C20   N1    A    
C20   C24   A    
C28   H1    S    
C16   C17   A    
Cu2   O6    S    
C5    C36   S    
C9    C10   A    
C24   N2    A    
C35   H18   S    
Cu2   O4    S    
C13   C14   A    
C27   C30   S    
C14   C37   S    
C21   N1    A    
C26   H9    S    
Cu1   Cu2   S    
C7    C12   S    
Cu2   N1    S    
C6    H13   S    
C26   C35   S    
C23   O5    A    
C9    H15   S    
C24   C25   S    
C37   O13   D    
C8    C9    A    
C25   C26   S    
C33   H16   S    
C8    H14   S    
C29   C30   A    
C19   H4    S    
C31   C32   A    
C17   C18   S    
C19   H5    S    
C18   C33   S    
C16   C23   S    
C29   H10   S    
Cu2   O8    S    
C1    C13   S    
C4    C10   S    
C3    C4    T    
C15   H2    S    
Cu1   O3    S    
C23   O6    A    
C11   C17   A    
C32   H12   S    
C37   H20   S    
C27   O7    A    
C25   H8    S    
C6    C7    A    
Cu1   N2    S    
C2    C3    S    
C5    C10   A    
C27   O8    A    
C11   C13   A    
C30   C31   A    
C21   H6    S    
C20   C26   S    
Cu1   O5    S    
C36   H19   S    
C1    O1    A    
C12   O4    A    
C34   H17   S    
Cu2   O2    S    
C31   H11   S    
C14   C15   A    
C2    C28   A    
C21   C22   A    
C12   O3    A    
C22   N2    A    
