data_mof_unit_64356.cif
_audit_creation_date              2013-03-05T16:43:27-0500
_audit_creation_method            fapswitch 2.2
_symmetry_space_group_name_H-M    P1
_symmetry_Int_Tables_number       1
_space_group_crystal_system       triclinic
_cell_length_a                    16.453276
_cell_length_b                    17.124064
_cell_length_c                    17.739721
_cell_angle_alpha                 89.40188
_cell_angle_beta                  89.608692
_cell_angle_gamma                 93.833759
_cell_volume                      4986.5141037

loop_
_atom_site_label
_atom_site_type_symbol
_atom_site_description
_atom_site_fract_x
_atom_site_fract_y
_atom_site_fract_z
_atom_type_partial_charge
O1    O     O_R   0.432070 0.499990 0.608760 -0.550214
O2    O     O_R   0.567930 0.500010 0.391240 -0.538416
O3    O     O_R   0.567880 0.500000 0.608730 -0.584718
O4    O     O_R   0.432120 0.500000 0.391270 -0.593219
C1    C     C_R   0.499698 0.501413 0.644685 0.859452
C2    C     C_R   0.500289 0.498574 0.355314 0.859190
O5    O     O_R   0.424660 0.386070 0.500710 -0.587194
O6    O     O_R   0.575340 0.613930 0.499290 -0.595405
O7    O     O_R   0.560480 0.386080 0.500680 -0.582287
O8    O     O_R   0.439520 0.613920 0.499320 -0.573714
C3    C     C_R   0.490041 0.348836 0.500975 0.818362
C4    C     C_R   0.509972 0.651163 0.499037 0.819271
Cu1   Cu    Cu3+1 0.419580 0.500000 0.500020 0.991971
Cu2   Cu    Cu3+1 0.580420 0.500000 0.499980 0.995136
C5    C     C_R   0.484712 0.263066 0.501309 -0.045369
C6    C     C_R   0.515366 0.736933 0.498745 -0.046448
C7    C     C_R   0.556198 0.222797 0.500724 -0.192004
C8    C     C_R   0.443926 0.777247 0.499818 -0.190207
C9    C     C_R   0.551854 0.141506 0.500652 -0.124839
C10   C     C_R   0.448333 0.858535 0.499914 -0.126359
C11   C     C_R   0.475427 0.098882 0.501177 0.375560
C12   C     C_R   0.524785 0.901121 0.498920 0.374826
C13   C     C_R   0.404309 0.139204 0.501989 -0.156886
C14   C     C_R   0.595868 0.860751 0.497662 -0.153983
C15   C     C_R   0.408663 0.220729 0.502037 -0.189248
C16   C     C_R   0.591448 0.779222 0.497582 -0.188833
N1    N     N_2   0.467170 0.015948 0.500900 -0.244001
N2    N     N_2   0.533081 0.984058 0.499187 -0.243841
H1    H     H_    0.384435 0.746051 0.500701 0.185195
H2    H     H_    0.615673 0.254030 0.500219 0.181992
H3    H     H_    0.391903 0.887610 0.500823 0.172760
H4    H     H_    0.608305 0.112458 0.500141 0.172838
H5    H     H_    0.345260 0.107180 0.502473 0.165339
H6    H     H_    0.654936 0.892739 0.496830 0.166566
H7    H     H_    0.352612 0.250486 0.502581 0.179378
H8    H     H_    0.647473 0.749424 0.496654 0.177603
C17   C     C_R   0.436043 0.536615 0.155208 0.361120
C18   C     C_R   0.563424 0.462730 0.844822 0.360271
C19   C     C_R   0.437672 0.533084 0.234169 -0.273075
C20   C     C_R   0.561976 0.466445 0.765858 -0.270726
H9    H     H_    0.390327 0.559214 0.266125 0.199695
H10   H     H_    0.609235 0.440166 0.733916 0.203060
C21   C     C_R   0.500797 0.498486 0.272410 -0.168220
C22   C     C_R   0.499104 0.501399 0.727587 -0.169284
C23   C     C_R   0.562854 0.465188 0.230598 0.272196
C24   C     C_R   0.437117 0.534847 0.769366 0.269490
C25   C     C_R   0.561188 0.468035 0.152153 -0.173122
C26   C     C_R   0.438624 0.531839 0.847809 -0.170185
H11   H     H_    0.608447 0.441512 0.120335 0.217788
H12   H     H_    0.391442 0.558504 0.879603 0.218501
C27   C     C_R   0.498798 0.503279 0.114366 -0.064790
C28   C     C_R   0.500772 0.496263 0.885628 -0.065177
C29   C     C_1   0.499272 0.500942 0.033763 0.123648
C30   C     C_1   0.500234 0.498541 0.966233 0.123791
C31   C     C_R   0.174339 0.541098 0.445387 0.169370
C32   C     C_R   0.824799 0.445150 0.541879 0.170041
C33   C     C_R   0.259895 0.540140 0.445887 0.031595
C34   C     C_R   0.739206 0.445590 0.540946 0.041256
H13   H     H_    0.295428 0.571781 0.402524 0.160908
H14   H     H_    0.702880 0.401977 0.573255 0.157141
N3    N     N_R   0.298780 0.499980 0.500030 -0.216549
N4    N     N_R   0.701220 0.500020 0.499970 -0.212632
C35   C     C_R   0.254599 0.460190 0.555191 0.033186
C36   C     C_R   0.746320 0.555371 0.459064 0.028202
H15   H     H_    0.286586 0.428919 0.597794 0.182344
H16   H     H_    0.714979 0.598139 0.427086 0.172157
C37   C     C_R   0.168562 0.460496 0.558728 0.212461
C38   C     C_R   0.832603 0.558961 0.459019 0.213108
C39   C     C_R   0.127031 0.501255 0.502267 -0.087501
C40   C     C_R   0.873166 0.502330 0.500895 -0.079801
C41   C     C_1   0.037303 0.501161 0.501325 0.186914
C42   C     C_1   0.962835 0.501456 0.500931 0.191706
N5    N     N_R   0.125415 0.419737 0.619829 0.153248
O9    O     O_R   0.156626 0.360691 0.653021 -0.308860
O10   O     O_R   0.059994 0.446636 0.648453 -0.270626
N6    N     N_R   0.877014 0.620309 0.416747 0.146920
O11   O     O_R   0.844054 0.651730 0.358295 -0.302319
O12   O     O_R   0.946091 0.651365 0.441131 -0.291423
N7    N     N_R   0.370676 0.573692 0.118261 0.140571
O13   O     O_R   0.381637 0.607504 0.052611 -0.330166
O14   O     O_R   0.301596 0.579865 0.153176 -0.288727
N8    N     N_R   0.628499 0.425259 0.881815 0.140475
O15   O     O_R   0.617206 0.391300 0.947361 -0.330658
O16   O     O_R   0.697613 0.418874 0.847026 -0.289409
Br1   Br    Br    0.648723 0.410455 0.275982 -0.412437
Br2   Br    Br    0.351573 0.589998 0.723954 -0.414001
Br3   Br    Br    0.125048 0.597350 0.365671 -0.329442
Br4   Br    Br    0.872660 0.365130 0.599727 -0.350284

loop_
_geom_bond_atom_site_label_1
_geom_bond_atom_site_label_2
_geom_bond_distance
_ccdc_geom_bond_type
C34   N4    1.362975 A    
C35   H15   1.081477 S    
N5    O9    1.301484 A    
C25   H11   1.084473 S    
C29   C30   1.199123 T    
O5    C3    1.286645 A    
C17   N7    1.442793 S    
O1    C1    1.285005 A    
C36   C38   1.416853 A    
C9    C11   1.411044 A    
C14   C16   1.393159 A    
C17   C27   1.412134 A    
C32   Br4   1.917516 S    
C18   C28   1.412098 A    
C34   H14   1.081750 S    
Cu2   N4    1.987532 S    
C39   C41   1.476433 S    
O4    Cu1   1.938795 S    
N3    C35   1.363946 A    
N4    C36   1.363752 A    
C3    C5    1.465445 S    
C4    C6    1.465426 S    
C28   C30   1.430846 S    
C13   H5    1.083164 S    
C37   N5    1.439945 S    
C20   C22   1.404703 A    
C26   H12   1.084456 S    
C11   N1    1.417639 S    
C12   N2    1.417716 S    
Cu1   Cu2   2.646340 S    
C18   N8    1.442729 S    
C7    H2    1.083293 S    
N5    O10   1.300909 A    
O2    C2    1.285185 A    
C9    H4    1.082575 S    
C22   C24   1.412162 A    
C24   C26   1.392431 A    
C23   C25   1.392462 A    
C6    C16   1.403544 A    
C35   C37   1.416900 A    
N6    O11   1.301485 A    
O4    C2    1.288282 A    
N7    O14   1.301714 A    
C19   C21   1.404795 A    
C14   H6    1.083162 S    
C27   C29   1.430842 S    
C36   H16   1.081616 S    
C23   Br1   1.923417 S    
O7    Cu2   1.956315 S    
C21   C23   1.412146 A    
C26   C28   1.396755 A    
O6    C4    1.286459 A    
C8    H1    1.083243 S    
O7    C3    1.284895 A    
C31   C39   1.411874 A    
O3    Cu2   1.938797 S    
O8    C4    1.285071 A    
C15   H7    1.083084 S    
C16   H8    1.083143 S    
C1    C22   1.470618 S    
C10   C12   1.411085 A    
C32   C40   1.411980 A    
C2    C21   1.470676 S    
C31   C33   1.408960 A    
C12   C14   1.397954 A    
O1    Cu1   1.941327 S    
C5    C7    1.402653 A    
O6    Cu2   1.958224 S    
N6    O12   1.300906 A    
O3    C1    1.288435 A    
O8    Cu1   1.956311 S    
C25   C27   1.396819 A    
C33   N3    1.363172 A    
C38   N6    1.439882 S    
N8    O16   1.301683 A    
C11   C13   1.397911 A    
C41   C42   1.225649 T    
C17   C19   1.401947 A    
C18   C20   1.402012 A    
C20   H10   1.083645 S    
C7    C9    1.389098 A    
C32   C34   1.409018 A    
C8    C10   1.389029 A    
C13   C15   1.393090 A    
C31   Br3   1.917570 S    
O2    Cu2   1.941327 S    
C33   H13   1.081611 S    
N7    O13   1.301229 A    
O5    Cu1   1.958224 S    
Cu1   N3    1.987533 S    
C19   H9    1.083632 S    
C5    C15   1.403444 A    
C6    C8    1.402520 A    
N8    O15   1.301222 A    
N1    N2    1.246699 D    
C38   C40   1.419842 A    
C40   C42   1.476435 S    
C37   C39   1.419783 A    
C24   Br2   1.923342 S    
C10   H3    1.082573 S    
