data_mof_unit_50145.cif
_audit_creation_date              2012-12-11T18:34:25-0500
_audit_creation_method            fapswitch 2.2
_symmetry_space_group_name_H-M    P1
_symmetry_Int_Tables_number       1
_space_group_crystal_system       triclinic
_cell_length_a                    8.357796
_cell_length_b                    14.385206
_cell_length_c                    22.750504
_cell_angle_alpha                 93.789662
_cell_angle_beta                  89.027181
_cell_angle_gamma                 91.857696
_cell_volume                      2727.54445443

loop_
_atom_site_label
_atom_site_type_symbol
_atom_type_description
_atom_site_fract_x
_atom_site_fract_y
_atom_site_fract_z
_atom_type_partial_charge
Ba1   Ba    Ba6+2 0.846250 0.544220 0.470860 1.620425
Ba2   Ba    Ba6+2 0.343570 0.455860 0.529140 1.648323
C1    C     C_3   0.683936 0.886729 0.314984 -0.181087
C2    C     C_3   0.677887 0.786834 0.335843 0.309300
C3    C     C_3   0.589548 0.275734 0.346845 0.313206
C4    C     C_3   0.700041 0.236507 0.296478 -0.180160
C5    C     C_3   0.130957 0.261226 0.696930 0.354994
C6    C     C_3   0.152512 0.234958 0.759872 -0.321557
C7    C     C_3   0.637308 0.235912 0.725637 0.357164
C8    C     C_3   0.637423 0.219981 0.791637 -0.308292
C9    C     C_R   0.346749 0.513810 0.330989 -0.285374
C10   C     C_R   0.097611 0.575349 0.937855 -0.028881
C11   C     C_R   0.050768 0.571902 0.878156 0.575496
C12   C     C_3   0.135143 0.743514 0.298367 0.338354
C13   C     C_R   0.974696 0.409984 0.881602 0.563741
C14   C     C_R   0.020458 0.411182 0.941258 -0.015400
C15   C     C_R   0.082234 0.494408 0.969486 -0.052073
C16   C     C_R   0.158706 0.658133 0.966830 -0.093749
C17   C     C_R   0.203960 0.660448 0.025829 -0.080437
C18   C     C_R   0.189306 0.580109 0.057970 -0.016413
C19   C     C_R   0.128119 0.496793 0.029678 -0.052844
C20   C     C_R   0.005665 0.330857 0.973405 -0.081697
C21   C     C_R   0.051331 0.333107 0.032372 -0.089499
C22   C     C_R   0.112940 0.415828 0.061286 -0.025312
C23   C     C_3   0.030481 0.715559 0.244843 -0.309814
C24   C     C_R   0.160139 0.419219 0.120938 0.580096
C25   C     C_R   0.233719 0.581593 0.117787 0.572024
C26   C     C_2   0.790615 0.458031 0.773364 -0.081707
C27   C     C_3   0.736713 0.467967 0.711036 0.034891
C28   C     C_1   0.005344 0.517200 0.685014 0.061733
C29   C     C_2   0.052097 0.521045 0.741044 -0.114928
C30   C     C_2   0.940766 0.487761 0.788878 0.217962
C31   C     C_R   0.413875 0.540616 0.229336 -0.128373
C32   C     C_R   0.453866 0.546293 0.289147 -0.005717
C33   C     C_R   0.197936 0.475600 0.314489 0.028546
C34   C     C_3   0.175508 0.741795 0.589452 0.305378
C35   C     C_R   0.153811 0.473184 0.254686 -0.125773
C36   C     C_R   0.262279 0.504734 0.211145 0.210481
C37   C     C_2   0.875176 0.469276 0.668089 -0.292611
C38   C     C_R   0.696271 0.935393 0.531825 -0.044935
C39   C     C_R   0.516857 0.801100 0.496747 0.058746
C40   C     C_R   0.380010 0.769162 0.465973 -0.281179
C41   C     C_R   0.279570 0.831151 0.441644 0.008663
C42   C     C_R   0.321655 0.926143 0.444229 -0.152065
C43   C     C_R   0.461366 0.960002 0.473421 -0.011448
C44   C     C_R   0.559933 0.898022 0.500949 -0.026598
C45   C     C_3   0.184853 0.846992 0.602273 -0.385288
C46   C     C_R   0.633542 0.093192 0.508546 -0.024332
C47   C     C_R   0.735486 0.031651 0.534677 -0.007135
C48   C     C_R   0.672100 0.190221 0.513000 0.062688
C49   C     C_R   0.807972 0.224183 0.543141 -0.292472
C50   C     C_R   0.916412 0.163325 0.564089 -0.004624
C51   C     C_R   0.879177 0.067081 0.560968 -0.136216
C52   C     C_R   0.499200 0.055793 0.477135 -0.032040
C53   C     C_3   0.025969 0.264371 0.420558 0.376863
C54   C     C_3   0.008853 0.158092 0.414621 0.256333
C55   C     C_3   0.631585 0.672920 0.649400 0.304433
C56   C     C_3   0.555031 0.704616 0.708528 0.233349
H1    H     H_    0.793068 0.770358 0.354010 0.130452
H2    H     H_    0.275294 0.865664 0.636635 0.118305
H3    H     H_    0.219317 0.882231 0.561928 0.071585
H4    H     H_    0.066353 0.872123 0.617999 0.121358
H5    H     H_    0.915763 0.293907 0.440610 -0.092431
H6    H     H_    0.126912 0.283321 0.450075 0.066392
H7    H     H_    0.881234 0.138303 0.406339 -0.012741
H8    H     H_    0.037183 0.129934 0.457109 0.002528
H9    H     H_    0.758604 0.656468 0.655929 -0.012771
H10   H     H_    0.566567 0.609590 0.631111 0.069766
H11   H     H_    0.761065 0.930903 0.345436 0.081345
H12   H     H_    0.620715 0.769003 0.725975 0.033425
H13   H     H_    0.428404 0.721549 0.700355 0.041109
H14   H     H_    0.589138 0.784422 0.372472 -0.014209
H15   H     H_    0.562966 0.915433 0.319827 0.088615
H16   H     H_    0.627964 0.348715 0.360318 0.055746
H17   H     H_    0.637490 0.177512 0.271696 0.096842
H18   H     H_    0.804899 0.205424 0.315853 0.126165
H19   H     H_    0.060608 0.645624 0.225907 0.109016
H20   H     H_    0.213625 0.320559 0.688427 0.119970
H21   H     H_    0.006824 0.283815 0.692040 -0.079866
H22   H     H_    0.264408 0.196508 0.763581 0.137002
H23   H     H_    0.160297 0.299052 0.789674 0.115172
H24   H     H_    0.049946 0.190000 0.773584 0.112702
H25   H     H_    0.752718 0.270196 0.713773 -0.023029
H26   H     H_    0.752754 0.191275 0.804125 0.120827
H27   H     H_    0.538093 0.171090 0.803321 0.087061
H28   H     H_    0.156297 0.677611 0.319463 0.018051
H29   H     H_    0.620722 0.286528 0.818054 0.131800
H30   H     H_    0.037725 0.269653 0.055344 0.114532
H31   H     H_    0.958618 0.265689 0.953014 0.115693
H32   H     H_    0.250455 0.725716 0.046262 0.117442
H33   H     H_    0.499047 0.566076 0.197332 0.113275
H34   H     H_    0.172203 0.721601 0.943875 0.114749
H35   H     H_    0.171914 0.546342 0.752404 0.119988
H36   H     H_    0.704360 0.437613 0.806503 0.074139
H37   H     H_    0.036520 0.447398 0.241631 0.102607
H38   H     H_    0.380425 0.517598 0.376829 0.086776
H39   H     H_    0.878672 0.419562 0.630128 0.058078
H40   H     H_    0.345926 0.695796 0.463982 0.065396
H41   H     H_    0.242748 0.973842 0.425238 0.106214
H42   H     H_    0.963666 0.020100 0.577602 0.076348
H43   H     H_    0.838759 0.297935 0.544353 0.060039
H44   H     H_    0.774185 0.890891 0.553759 0.108976
H45   H     H_    0.420574 0.100470 0.455592 0.132130
H46   H     H_    0.904648 0.712392 0.258052 0.163786
H47   H     H_    0.041839 0.763626 0.208943 0.104220
H48   H     H_    0.295932 0.717216 0.576825 -0.014516
H49   H     H_    0.091262 0.725379 0.552713 0.074152
N1    N     N_R   0.990939 0.489607 0.850326 -0.423386
N2    N     N_R   0.217754 0.501882 0.149098 -0.420266
O1    O     O_2   0.901900 0.448470 0.362340 -0.463561
O2    O     O_3   0.625745 0.748452 0.613692 -0.681564
O3    O     O_3   0.058966 0.810176 0.336981 -0.630174
O4    O     O_2   0.287790 0.551560 0.637690 -0.465323
O5    O     O_3   0.047460 0.550640 0.566640 -0.489719
O6    O     O_3   0.544140 0.380990 0.608030 -0.462049
O7    O     O_3   0.122136 0.700679 0.640506 -0.630207
O8    O     O_3   0.640350 0.387150 0.474440 -0.468791
O9    O     O_3   0.136890 0.332750 0.580830 -0.495376
O10   O     O_2   0.246995 0.165270 0.547599 -0.482677
O11   O     O_3   0.165243 0.184524 0.657964 -0.596063
O12   O     O_3   0.142240 0.449440 0.433360 -0.492846
O13   O     O_3   0.549340 0.612930 0.525560 -0.488709
O14   O     O_2   0.396530 0.270940 0.479440 -0.466930
O15   O     O_3   0.603935 0.216469 0.392906 -0.673929
O16   O     O_2   0.412525 0.453156 0.704940 -0.467696
O17   O     O_3   0.504483 0.289636 0.714999 -0.608378
O18   O     O_2   0.060757 0.642716 0.851301 -0.609766
O19   O     O_2   0.920948 0.337640 0.857440 -0.639012
O20   O     O_2   0.152089 0.348085 0.147512 -0.621136
O21   O     O_2   0.285451 0.654395 0.142064 -0.625699
O22   O     O_3   0.645560 0.619080 0.391970 -0.482181
O23   O     O_2   0.789805 0.562868 0.290534 -0.506899
O24   O     O_3   0.053893 0.298922 0.364921 -0.641493
O25   O     O_3   0.637480 0.720756 0.289697 -0.647903
O26   O     O_2   0.793170 0.729090 0.520590 -0.463204
O27   O     O_3   0.052800 0.667320 0.419180 -0.475554
O28   O     O_2   0.947645 0.836319 0.445307 -0.506135
P1    P     P_3+3 0.074990 0.420800 0.372080 0.970600
P2    P     P_3+3 0.618830 0.715330 0.538180 0.964522
P3    P     P_3+3 0.086388 0.786806 0.411333 0.902060
P4    P     P_3+3 0.114710 0.579280 0.627920 0.998356
P5    P     P_3+3 0.115490 0.211531 0.586890 0.940151
P6    P     P_3+3 0.635393 0.608518 0.315337 0.918465
P7    P     P_3+3 0.580443 0.269069 0.464362 0.945888
P8    P     P_3+3 0.558350 0.395723 0.685000 0.951813
O29   O     O_3   0.120954 0.122111 0.372456 -0.653342
C57   C     C_3   0.049734 0.061391 0.328321 0.265567
H50   H     H_    0.917500 0.059656 0.328486 0.022293
H51   H     H_    0.086326 0.989625 0.334683 0.098888
C58   C     C_3   0.107521 0.089700 0.268078 -0.360122
H52   H     H_    0.065094 0.160110 0.260497 0.140901
H53   H     H_    0.240142 0.090181 0.265221 0.116669
H54   H     H_    0.059402 0.039874 0.232997 0.071106
O30   O     O_3   0.561979 0.634571 0.748863 -0.659075
C59   C     C_3   0.483159 0.664844 0.801828 0.274872
H55   H     H_    0.354209 0.675811 0.794018 0.080011
H56   H     H_    0.539673 0.730814 0.821244 0.035190
C60   C     C_3   0.494358 0.591261 0.846437 -0.309680
H57   H     H_    0.621495 0.582267 0.857544 0.119845
H58   H     H_    0.428512 0.613696 0.887409 0.069942
H59   H     H_    0.441015 0.523851 0.828348 0.122475
C61   C     C_3   0.412347 0.270313 0.329411 -0.203387
C62   C     C_3   0.374463 0.288341 0.265659 -0.448180
H60   H     H_    0.431551 0.354132 0.252704 0.127266
H61   H     H_    0.412482 0.230199 0.234745 0.138566
H62   H     H_    0.243234 0.292685 0.261222 0.171424
H63   H     H_    0.362964 0.199887 0.337308 0.190352
H64   H     H_    0.350483 0.320418 0.359840 0.086787
C63   C     C_3   0.765577 0.309802 0.255295 -0.220970
C64   C     C_3   0.773899 0.271574 0.191147 -0.414023
H65   H     H_    0.851160 0.210029 0.186685 0.144745
H66   H     H_    0.652459 0.251203 0.174939 0.133574
H67   H     H_    0.825153 0.326146 0.163417 0.157678
H68   H     H_    0.695126 0.373952 0.258493 0.118742
H69   H     H_    0.888577 0.329899 0.269041 0.148896
C65   C     C_3   0.745549 0.893655 0.251052 -0.173397
C66   C     C_3   0.706167 0.986069 0.226006 -0.465168
H70   H     H_    0.577049 0.000472 0.231045 0.134726
H71   H     H_    0.774761 0.044342 0.248276 0.129710
H72   H     H_    0.738767 0.983690 0.178428 0.133268
H73   H     H_    0.877174 0.886607 0.249673 0.124254
H74   H     H_    0.690836 0.837470 0.221399 0.167145
C67   C     C_3   0.618244 0.142718 0.688623 -0.167056
C68   C     C_3   0.750690 0.074714 0.698442 -0.504654
H75   H     H_    0.870055 0.107882 0.690573 0.150548
H76   H     H_    0.744129 0.050960 0.743855 0.139308
H77   H     H_    0.735391 0.012113 0.667597 0.145727
H78   H     H_    0.500578 0.108606 0.698761 0.136598
H79   H     H_    0.618163 0.157365 0.641348 0.112052
C69   C     C_3   0.297273 0.782584 0.278346 -0.156428
C70   C     C_3   0.292613 0.877465 0.251667 -0.352910
H80   H     H_    0.388861 0.882132 0.217817 0.129921
H81   H     H_    0.312500 0.933926 0.286474 0.107935
H82   H     H_    0.178289 0.889623 0.230230 0.122440
H83   H     H_    0.371347 0.790284 0.317897 0.064889
H84   H     H_    0.353356 0.731678 0.246265 0.151476

loop_
_geom_bond_atom_site_label_1
_geom_bond_atom_site_label_2
_ccdc_geom_bond_type
C9    H38   S    
O12   P1    S    
C53   C54   S    
C8    H27   S    
C69   C70   S    
C59   H56   S    
C63   C64   S    
O3    P3    S    
C17   C18   A    
C57   H50   S    
O27   P3    S    
C45   H4    S    
Ba2   O9    S    
O2    P2    S    
C5    C6    S    
C55   O2    S    
Ba2   O14   S    
C42   C43   A    
C12   O3    S    
C3    O15   S    
C61   C62   S    
C28   P4    S    
C23   H19   S    
C5    H21   S    
C26   C27   S    
C62   H61   S    
C22   C24   A    
O13   P2    S    
Ba1   Ba2   S    
C31   H33   S    
C33   P1    S    
C27   P8    S    
C28   C29   D    
Ba2   O4    S    
C54   H8    S    
C56   H13   S    
C37   H39   S    
C64   H65   S    
C38   C47   A    
C68   H75   S    
C35   H37   S    
C34   C45   S    
C26   H36   S    
C16   C17   A    
C39   C40   A    
C8    H26   S    
C3    H16   S    
Ba1   O13   S    
C39   C44   A    
C56   O30   S    
C60   H59   S    
O25   P6    S    
Ba2   O8    S    
C62   H60   S    
C68   H76   S    
C14   C15   A    
C66   H71   S    
C58   H54   S    
C53   H5    S    
O14   P7    D    
C21   C22   A    
Ba1   O27   S    
C7    C8    S    
Ba1   P2    S    
C69   H84   S    
C1    H11   S    
O23   P6    D    
C46   C48   A    
C45   H2    S    
O24   P1    S    
C59   C60   S    
C60   H58   S    
C55   H9    S    
C11   N1    Am   
C62   H62   S    
C67   H79   S    
O17   P8    S    
C48   P7    S    
C48   C49   A    
Ba1   O12   S    
Ba2   O13   S    
C51   H42   S    
C65   H73   S    
C8    H29   S    
O28   P3    D    
C32   P6    S    
C23   H47   S    
C6    H23   S    
O5    P4    S    
C52   H45   S    
O1    P1    D    
O8    P7    S    
O11   P5    S    
C12   H28   S    
C61   H63   S    
C56   H12   S    
Ba1   O22   S    
C53   O24   S    
C34   H48   S    
C50   P5    S    
C70   H80   S    
C11   O18   D    
C13   N1    Am   
C10   C15   A    
C46   C52   A    
C67   C68   S    
C70   H81   S    
C35   C36   A    
C7    C67   S    
Ba1   O1    S    
Ba2   O6    S    
C29   C30   S    
C26   C30   D    
C63   H68   S    
C66   H72   S    
C53   H6    S    
C27   C37   S    
C31   C32   A    
C63   H69   S    
C41   P3    S    
Ba1   O8    S    
C10   C11   A    
C36   N2    S    
C24   N2    Am   
O30   C59   S    
C24   O20   D    
C69   H83   S    
C7    H25   S    
C5    H20   S    
C61   H64   S    
C65   C66   S    
C43   C52   A    
C21   H30   S    
C41   C42   A    
C30   N1    S    
C60   H57   S    
C6    H24   S    
Ba1   O5    S    
C38   C44   A    
C55   H10   S    
C1    C2    S    
C34   O7    S    
C57   C58   S    
C2    H14   S    
O22   P6    S    
C50   C51   A    
C33   C35   A    
C2    O25   S    
O29   C57   S    
Ba2   O12   S    
C54   H7    S    
C25   O21   D    
O6    P8    S    
C46   C47   A    
C14   C20   A    
C57   H51   S    
C20   C21   A    
C5    O11   S    
C9    C32   A    
C31   C36   A    
O9    P5    S    
C45   H3    S    
C23   H46   S    
C4    H18   S    
C18   C25   A    
C49   H43   S    
O26   P2    D    
C7    O17   S    
C68   H77   S    
C13   O19   D    
C16   H34   S    
C3    C61   S    
C40   H40   S    
C70   H82   S    
C49   C50   A    
C17   H32   S    
C29   H35   S    
C67   H78   S    
Ba2   O5    S    
C55   C56   S    
C3    C4    S    
C64   H66   S    
C47   C51   A    
Ba2   P4    S    
C2    H1    S    
C9    C33   A    
C42   H41   S    
C20   H31   S    
O4    P4    D    
C28   C37   D    
C58   H53   S    
C12   C23   S    
C54   O29   S    
C1    H15   S    
C15   C19   A    
C39   P2    S    
C65   H74   S    
C38   H44   S    
O7    P4    S    
C12   C69   S    
C43   C44   A    
C1    C65   S    
C18   C19   A    
C25   N2    Am   
C66   H70   S    
C40   C41   A    
C19   C22   A    
C10   C16   A    
C59   H55   S    
C6    H22   S    
O10   P5    D    
C58   H52   S    
O15   P7    S    
O16   P8    D    
Ba1   O26   S    
C64   H67   S    
Ba1   P1    S    
C13   C14   A    
C34   H49   S    
C4    C63   S    
C4    H17   S    
