data_mof_unit_9932.cif
_audit_creation_date              2012-12-10T20:30:08-0500
_audit_creation_method            fapswitch 2.2
_symmetry_space_group_name_H-M    P1
_symmetry_Int_Tables_number       1
_space_group_crystal_system       triclinic
_cell_length_a                    9.898298
_cell_length_b                    10.649624
_cell_length_c                    13.103697
_cell_angle_alpha                 90.451824
_cell_angle_beta                  69.449768
_cell_angle_gamma                 89.640822
_cell_volume                      1293.30211581

loop_
_atom_site_label
_atom_site_type_symbol
_atom_type_description
_atom_site_fract_x
_atom_site_fract_y
_atom_site_fract_z
_atom_type_partial_charge
C1    C     C_R   0.501375 0.739549 0.496004 0.953404
C2    C     C_R   0.437518 0.484595 0.983004 0.102460
C3    C     C_R   0.462969 0.443864 0.875301 0.047135
C4    C     C_R   0.549174 0.469875 0.026084 0.078648
C5    C     C_R   0.675307 0.399112 0.968209 0.140297
C6    C     C_R   0.691374 0.347610 0.866680 -0.192538
C7    C     C_R   0.586292 0.368812 0.821127 -0.172569
C8    C     C_R   0.537269 0.521519 0.126726 -0.221767
C9    C     C_R   0.757680 0.417745 0.121182 -0.224969
C10   C     C_R   0.364023 0.478419 0.824259 -0.153402
C11   C     C_R   0.378015 0.936929 0.543529 0.037247
C12   C     C_R   0.418787 0.491852 0.704685 0.864249
C13   C     C_R   0.503446 0.871390 0.484245 -0.070779
C14   C     C_R   0.625329 0.935808 0.414214 -0.018522
C15   C     C_R   0.624406 0.066297 0.420930 -0.269151
C16   C     C_R   0.503036 0.128957 0.492092 -0.026883
C17   C     C_R   0.377801 0.064763 0.547446 -0.023189
C18   C     C_3   0.283274 0.070256 0.665669 -0.048759
C19   C     C_3   0.283683 0.926718 0.661006 -0.435462
C20   C     C_R   0.890019 0.555826 0.583139 0.111817
C21   C     C_R   0.962022 0.434243 0.424094 -0.090520
C22   C     C_R   0.105882 0.431956 0.423902 -0.012737
C23   C     C_R   0.500634 0.260530 0.499445 0.842255
C24   C     C_R   0.032264 0.556353 0.582878 0.266454
C25   C     C_3   0.020890 0.691219 0.616422 -0.586860
C26   C     C_3   0.866685 0.690430 0.616955 -0.235602
C27   C     C_R   0.580838 0.500017 0.295596 0.911873
C28   C     C_R   0.780734 0.376598 0.015089 -0.159542
C29   C     C_R   0.632370 0.486345 0.177969 -0.032100
C30   C     C_R   0.222487 0.518418 0.889714 0.010401
C31   C     C_R   0.193213 0.546712 0.999338 -0.215520
C32   C     C_R   0.299803 0.534452 0.044693 -0.117093
H1    H     H_    0.717387 0.118992 0.371234 0.144740
H2    H     H_    0.339668 0.879553 0.710707 0.228181
H3    H     H_    0.933711 0.382618 0.363080 0.177291
H4    H     H_    0.029760 0.703684 0.698099 0.192953
H5    H     H_    0.093671 0.751476 0.551664 0.218558
H6    H     H_    0.850006 0.751425 0.553716 0.202011
H7    H     H_    0.876405 0.321204 0.972283 0.195241
H8    H     H_    0.449681 0.584146 0.170490 0.149055
H9    H     H_    0.267674 0.557546 0.130193 0.158257
H10   H     H_    0.600843 0.322850 0.744023 0.196587
N1    N     N_R   0.856940 0.500860 0.500710 -0.128504
N2    N     N_R   0.142580 0.500820 0.500710 -0.144723
O1    O     O_R   0.385310 0.683210 0.499990 -0.628383
O2    O     O_R   0.614650 0.683240 0.500000 -0.574846
O3    O     O_R   0.328390 0.499940 0.653610 -0.563537
O4    O     O_R   0.557730 0.499980 0.653620 -0.616679
O5    O     O_R   0.385350 0.316760 0.500000 -0.670143
O6    O     O_R   0.614690 0.316790 0.500010 -0.615730
O7    O     O_R   0.442270 0.500020 0.346380 -0.651437
O8    O     O_R   0.671610 0.500060 0.346390 -0.587066
Zn1   Zn    Zn3+2 0.346870 0.499980 0.499990 0.950728
Zn2   Zn    Zn3+2 0.653130 0.500020 0.500010 0.980596
H11   H     H_    0.832796 0.390217 0.160533 0.167284
C33   C     C_2   0.355039 0.125176 0.740452 0.423754
H12   H     H_    0.304345 0.202910 0.794768 0.082938
O9    O     O_2   0.470805 0.084236 0.740046 -0.538246
C34   C     C_2   0.138265 0.129386 0.682189 0.382455
H13   H     H_    0.125182 0.193513 0.622193 0.094452
O10   O     O_2   0.035158 0.108359 0.764609 -0.558515
H14   H     H_    0.177263 0.886053 0.670331 0.195073
C35   C     C_2   0.211977 0.352493 0.339946 0.395752
H15   H     H_    0.306429 0.315047 0.351694 0.135949
O11   O     O_2   0.192857 0.324686 0.255448 -0.603797
C36   C     C_2   0.753906 0.706028 0.728469 0.524105
H16   H     H_    0.759408 0.650525 0.796143 0.055153
O12   O     O_2   0.654629 0.780733 0.743533 -0.536881
H17   H     H_    0.784929 0.290368 0.822560 0.207024
C37   C     C_2   0.099836 0.528021 0.850367 0.383508
H18   H     H_    0.021779 0.604043 0.879489 0.054710
O13   O     O_2   0.077804 0.445762 0.792868 -0.584369
H19   H     H_    0.086467 0.578462 0.050674 0.157325
C38   C     C_2   0.753857 0.873442 0.334079 0.393093
H20   H     H_    0.855562 0.923022 0.304257 0.072181
O14   O     O_2   0.746663 0.769676 0.296283 -0.574374

loop_
_geom_bond_atom_site_label_1
_geom_bond_atom_site_label_2
_ccdc_geom_bond_type
C6    H17   S    
C36   O12   D    
C35   O11   D    
C27   C29   S    
C12   O4    A    
O4    Zn2   S    
C11   C19   S    
O6    Zn2   S    
C38   O14   D    
C8    C29   A    
C14   C38   S    
C3    C7    A    
C30   C31   A    
C1    O2    A    
C31   H19   S    
C19   H14   S    
C15   C16   A    
C33   H12   S    
C2    C32   A    
C18   C19   S    
C7    H10   S    
C4    C8    A    
C25   H5    S    
C22   C35   S    
C21   N1    A    
N2    Zn1   S    
C22   N2    A    
C20   C24   A    
C27   O7    A    
C16   C17   A    
C32   H9    S    
C37   H18   S    
C9    H11   S    
C9    C29   A    
O3    Zn1   S    
C36   H16   S    
O1    Zn1   S    
C34   H13   S    
C21   C22   A    
C12   O3    A    
C30   C37   S    
O8    Zn2   S    
C34   O10   D    
C38   H20   S    
C26   C36   S    
C24   C25   S    
C26   H6    S    
C23   O6    A    
C28   H7    S    
C25   C26   S    
O7    Zn1   S    
C2    C4    A    
C5    C28   A    
C10   C30   A    
N1    Zn2   S    
C31   C32   A    
O2    Zn2   S    
C17   C18   S    
C10   C12   S    
C16   C23   S    
C24   N2    A    
C1    C13   S    
C20   N1    A    
C27   O8    A    
C11   C17   A    
C4    C5    A    
C19   H2    S    
C6    C7    A    
C21   H3    S    
C18   C33   S    
C2    C3    A    
C3    C10   A    
C11   C13   A    
C1    O1    A    
C5    C6    A    
C20   C26   S    
O5    Zn1   S    
C33   O9    D    
C23   O5    A    
C25   H4    S    
C35   H15   S    
C18   C34   S    
C14   C15   A    
C37   O13   D    
C8    H8    S    
C13   C14   A    
C15   H1    S    
C9    C28   A    
