data_mof_unit_25406.cif
_audit_creation_date              2012-12-10T19:11:19-0500
_audit_creation_method            fapswitch 2.2
_symmetry_space_group_name_H-M    P1
_symmetry_Int_Tables_number       1
_space_group_crystal_system       triclinic
_cell_length_a                    15.951126
_cell_length_b                    9.052018
_cell_length_c                    8.004488
_cell_angle_alpha                 90.0069
_cell_angle_beta                  89.958624
_cell_angle_gamma                 89.998807
_cell_volume                      1155.76674916

loop_
_atom_site_label
_atom_site_type_symbol
_atom_type_description
_atom_site_fract_x
_atom_site_fract_y
_atom_site_fract_z
_atom_type_partial_charge
C1    C     C_R   0.499998 0.220954 0.499994 0.815994
C2    C     C_3   0.051625 0.455188 0.335655 -0.295390
C3    C     C_3   0.948549 0.439428 0.656175 -0.293023
C4    C     C_3   0.954264 0.429725 0.347490 -0.242362
C5    C     C_1   0.748388 0.505847 0.499264 -0.002355
C6    C     C_1   0.251603 0.505555 0.500946 0.004337
C7    C     C_3   0.084059 0.522891 0.505437 -0.030686
C8    C     C_3   0.916096 0.523387 0.496638 -0.035387
C9    C     C_3   0.949190 0.693808 0.491566 -0.203540
C10   C     C_3   0.050851 0.691636 0.531962 -0.196084
C11   C     C_2   0.074788 0.741865 0.709934 0.880897
C12   C     C_1   0.823524 0.512835 0.497175 0.128414
C13   C     C_2   0.100682 0.809892 0.434405 0.915597
C14   C     C_2   0.900562 0.800794 0.606716 0.902868
C15   C     C_2   0.923321 0.762010 0.321689 0.900953
C16   C     C_2   0.087944 0.534628 0.187547 1.004238
C17   C     C_2   0.093228 0.379426 0.802844 0.980311
C18   C     C_2   0.903599 0.399612 0.191348 0.906413
C19   C     C_2   0.912015 0.504086 0.811372 0.999119
C20   C     C_1   0.176480 0.512227 0.503826 0.118662
C21   C     C_R   0.340651 0.500388 0.500104 0.788781
C22   C     C_R   0.659349 0.500416 0.499908 0.786743
C23   C     C_1   0.499997 0.934348 0.500008 -0.135121
C24   C     C_1   0.499997 0.065654 0.499992 -0.142967
C25   C     C_R   0.499999 0.779052 0.500006 0.836173
C26   C     C_3   0.045990 0.415896 0.643681 -0.241112
Cu1   Cu    Cu3+1 0.500000 0.500010 0.669080 1.058944
Cu2   Cu    Cu3+1 0.500000 0.500010 0.330920 1.054379
H1    H     H_    0.070578 0.905829 0.883343 0.349436
H2    H     H_    0.206210 0.333583 0.905908 0.360862
H3    H     H_    0.784865 0.391744 0.104276 0.362254
H4    H     H_    0.916276 0.663129 0.983063 0.391072
H5    H     H_    0.119688 0.028046 0.392428 0.334883
H6    H     H_    0.879501 0.013746 0.672347 0.343424
H7    H     H_    0.937898 0.922016 0.147255 0.364073
H8    H     H_    0.921300 0.325532 0.655610 0.150659
H9    H     H_    0.950324 0.313178 0.392381 0.148146
H10   H     H_    0.052092 0.303096 0.588922 0.136254
H11   H     H_    0.079261 0.342023 0.323920 0.153247
H12   H     H_    0.096087 0.725992 0.065919 0.383637
N1    N     N_1   0.500000 0.499970 0.076820 -0.029055
N2    N     N_1   0.500000 0.499970 0.923180 -0.028482
O1    O     O_R   0.500000 0.288400 0.642760 -0.576256
O2    O     O_R   0.040349 0.870023 0.779804 -0.687485
O3    O     O_2   0.162613 0.778539 0.351732 -0.608821
O4    O     O_R   0.081180 0.959663 0.457139 -0.667981
O5    O     O_2   0.842503 0.759598 0.694607 -0.583928
O6    O     O_R   0.916720 0.952844 0.596088 -0.670943
O7    O     O_2   0.856295 0.727600 0.259126 -0.566092
O8    O     O_R   0.965083 0.883620 0.253222 -0.682686
O9    O     O_2   0.155403 0.493682 0.132060 -0.562042
O10   O     O_R   0.054447 0.666466 0.132595 -0.733349
O11   O     O_2   0.056874 0.313950 0.914306 -0.553952
O12   O     O_R   0.500000 0.288400 0.357240 -0.577554
O13   O     O_R   0.180575 0.390783 0.809852 -0.718372
O14   O     O_2   0.926330 0.300753 0.097988 -0.541682
O15   O     O_R   0.823263 0.458226 0.171489 -0.700782
O16   O     O_2   0.839141 0.475518 0.845225 -0.565773
O17   O     O_R   0.954458 0.609759 0.902358 -0.731928
O18   O     O_R   0.379440 0.500020 0.642850 -0.556381
O19   O     O_R   0.379440 0.500020 0.357150 -0.565543
O20   O     O_R   0.620560 0.500020 0.642850 -0.559528
O21   O     O_R   0.620560 0.500020 0.357150 -0.564301
O22   O     O_R   0.500000 0.711620 0.642810 -0.570052
O23   O     O_R   0.500000 0.711620 0.357190 -0.568140
O24   O     O_2   0.134547 0.685353 0.780687 -0.571635

loop_
_geom_bond_atom_site_label_1
_geom_bond_atom_site_label_2
_ccdc_geom_bond_type
C7    C10   S    
C2    C4    S    
C23   C24   T    
C16   O9    D    
C3    C19   S    
C14   O5    D    
Cu1   O20   S    
Cu1   O1    S    
C8    C12   S    
C22   O20   A    
C2    C16   S    
C9    C10   S    
C17   O13   S    
C18   O15   S    
C21   O19   A    
C2    C7    S    
C11   O24   D    
C18   O14   D    
C9    C14   S    
C4    C18   S    
Cu2   O19   S    
H3    O15   S    
H7    O8    S    
C15   O7    D    
Cu2   O23   S    
C9    C15   S    
C25   O23   A    
C11   O2    S    
C19   O16   D    
C10   C13   S    
C13   O3    D    
H5    O4    S    
H2    O13   S    
Cu1   N2    S    
C7    C26   S    
C3    H8    S    
C21   O18   A    
C1    O12   A    
C17   C26   S    
C7    C20   S    
Cu1   O18   S    
C23   C25   S    
H1    O2    S    
C13   O4    S    
H6    O6    S    
C10   C11   S    
Cu2   O21   S    
C17   O11   D    
Cu2   N1    S    
C6    C20   T    
C4    H9    S    
C1    C24   S    
C19   O17   S    
C3    C8    S    
N1    N2    T    
C15   O8    S    
Cu1   Cu2   S    
Cu1   O22   S    
Cu2   O12   S    
C26   H10   S    
C14   O6    S    
H4    O17   S    
C4    C8    S    
C22   O21   A    
H12   O10   S    
C6    C21   S    
C2    H11   S    
C1    O1    A    
C3    C26   S    
C5    C22   S    
C16   O10   S    
C8    C9    S    
C25   O22   A    
C5    C12   T    
