data_mof_unit_61280.cif
_audit_creation_date              2013-03-05T16:36:58-0500
_audit_creation_method            fapswitch 2.2
_symmetry_space_group_name_H-M    P1
_symmetry_Int_Tables_number       1
_space_group_crystal_system       triclinic
_cell_length_a                    35.492076
_cell_length_b                    35.533007
_cell_length_c                    35.492061
_cell_angle_alpha                 90.124191
_cell_angle_beta                  89.998139
_cell_angle_gamma                 89.999471
_cell_volume                      44760.3592007

loop_
_atom_site_label
_atom_site_type_symbol
_atom_site_description
_atom_site_fract_x
_atom_site_fract_y
_atom_site_fract_z
_atom_type_partial_charge
O1    O     O_R   0.968750 0.500050 0.555400 -0.605267
O2    O     O_R   0.968750 0.444600 0.500050 -0.605228
O3    O     O_R   0.968750 0.499950 0.444600 -0.605261
O4    O     O_R   0.968750 0.555400 0.499950 -0.605230
O5    O     O_R   0.031250 0.499950 0.555400 -0.605309
O6    O     O_R   0.031250 0.555400 0.500050 -0.605223
O7    O     O_R   0.031250 0.500050 0.444600 -0.605313
O8    O     O_R   0.031250 0.444600 0.499950 -0.605223
O9    O     O_R   0.500050 0.444600 0.031250 -0.613655
O10   O     O_R   0.444600 0.499950 0.031250 -0.603680
O11   O     O_R   0.499950 0.555400 0.031250 -0.614753
O12   O     O_R   0.555400 0.500050 0.031250 -0.604698
O13   O     O_R   0.499950 0.444600 0.968750 -0.614763
O14   O     O_R   0.555400 0.499950 0.968750 -0.604598
O15   O     O_R   0.500050 0.555400 0.968750 -0.613696
O16   O     O_R   0.444600 0.500050 0.968750 -0.603757
O17   O     O_R   0.444600 0.968750 0.499950 -0.605106
O18   O     O_R   0.499950 0.968750 0.555400 -0.604898
O19   O     O_R   0.555400 0.968750 0.500050 -0.605069
O20   O     O_R   0.500050 0.968750 0.444600 -0.605046
O21   O     O_R   0.444600 0.031250 0.500050 -0.605106
O22   O     O_R   0.499950 0.031250 0.444600 -0.604900
O23   O     O_R   0.555400 0.031250 0.499950 -0.605067
O24   O     O_R   0.500050 0.031250 0.555400 -0.605048
O25   O     O_R   0.468750 0.000050 0.055400 -0.604279
O26   O     O_R   0.468750 0.944600 0.000050 -0.613863
O27   O     O_R   0.468750 0.999950 0.944600 -0.604272
O28   O     O_R   0.468750 0.055400 0.999950 -0.613869
O29   O     O_R   0.531250 0.999950 0.055400 -0.604099
O30   O     O_R   0.531250 0.055400 0.000050 -0.614573
O31   O     O_R   0.531250 0.000050 0.944600 -0.604084
O32   O     O_R   0.531250 0.944600 0.999950 -0.614580
O33   O     O_R   0.000050 0.944600 0.531250 -0.605125
O34   O     O_R   0.944600 0.999950 0.531250 -0.605272
O35   O     O_R   0.999950 0.055400 0.531250 -0.605325
O36   O     O_R   0.055400 0.000050 0.531250 -0.605301
O37   O     O_R   0.999950 0.944600 0.468750 -0.605326
O38   O     O_R   0.055400 0.999950 0.468750 -0.605307
O39   O     O_R   0.000050 0.055400 0.468750 -0.605127
O40   O     O_R   0.944600 0.000050 0.468750 -0.605268
O41   O     O_R   0.944600 0.468750 0.999950 -0.604987
O42   O     O_R   0.999950 0.468750 0.055400 -0.604986
O43   O     O_R   0.055400 0.468750 0.000050 -0.604964
O44   O     O_R   0.000050 0.468750 0.944600 -0.605186
O45   O     O_R   0.944600 0.531250 0.000050 -0.604985
O46   O     O_R   0.999950 0.531250 0.944600 -0.604985
O47   O     O_R   0.055400 0.531250 0.999950 -0.604959
O48   O     O_R   0.000050 0.531250 0.055400 -0.605187
C1    C     C_R   0.999999 0.499999 0.573264 0.899391
C2    C     C_R   0.000000 0.426731 0.500001 0.898861
C3    C     C_R   0.000000 0.500001 0.426736 0.899388
C4    C     C_R   1.000000 0.573269 0.499999 0.898863
C5    C     C_R   0.500076 0.426591 0.999937 0.912307
C6    C     C_R   0.426731 0.500000 0.000000 0.908639
C7    C     C_R   0.500081 0.573409 0.000063 0.912349
C8    C     C_R   0.573267 0.500000 0.999999 0.906704
C9    C     C_R   0.426750 0.000000 0.500000 0.898325
C10   C     C_R   0.500003 0.000038 0.573247 0.898279
C11   C     C_R   0.573250 1.000000 0.500000 0.898322
C12   C     C_R   0.500003 0.999962 0.426753 0.898276
C13   C     C_R   0.499999 0.999995 0.073268 0.907658
C14   C     C_R   0.500026 0.926591 0.000088 0.912342
C15   C     C_R   0.500001 0.000005 0.926732 0.907686
C16   C     C_R   0.500025 0.073409 0.999914 0.912330
C17   C     C_R   0.999996 0.926731 0.499962 0.898859
C18   C     C_R   0.926736 1.000000 0.500001 0.899366
C19   C     C_R   0.999996 0.073269 0.500037 0.898863
C20   C     C_R   0.073264 1.000000 0.499999 0.899413
C21   C     C_R   0.926752 0.500000 0.000000 0.898359
C22   C     C_R   0.000004 0.500038 0.073250 0.898323
C23   C     C_R   0.073246 0.500000 1.000000 0.898197
C24   C     C_R   0.000004 0.499962 0.926750 0.898321
Zn1   Zn    Zn3+2 0.958250 0.500000 0.500000 1.070996
Zn2   Zn    Zn3+2 0.041750 0.500000 0.500000 1.070907
Zn3   Zn    Zn3+2 0.500000 0.500000 0.041750 1.068052
Zn4   Zn    Zn3+2 0.500000 0.500000 0.958250 1.068016
Zn5   Zn    Zn3+2 0.500000 0.958250 0.500000 1.070995
Zn6   Zn    Zn3+2 0.500000 0.041750 0.500000 1.070990
Zn7   Zn    Zn3+2 0.458250 0.000000 0.000000 1.067821
Zn8   Zn    Zn3+2 0.541750 0.000000 0.000000 1.068249
Zn9   Zn    Zn3+2 1.000000 0.000000 0.541750 1.070954
Zn10  Zn    Zn3+2 1.000000 0.000000 0.458250 1.070951
Zn11  Zn    Zn3+2 0.000000 0.458250 0.000000 1.070990
Zn12  Zn    Zn3+2 0.000000 0.541750 0.000000 1.070993
C25   C     C_R   0.025128 0.173081 0.523879 0.303277
C26   C     C_R   0.025406 0.476717 0.173020 0.303608
C27   C     C_R   0.025127 0.826919 0.476120 0.303280
C28   C     C_R   0.025402 0.523283 0.826977 0.303603
C29   C     C_R   0.974740 0.826976 0.523456 0.303206
C30   C     C_R   0.974739 0.523721 0.173079 0.303579
C31   C     C_R   0.974742 0.173025 0.476545 0.303204
C32   C     C_R   0.974735 0.476281 0.826924 0.303584
C33   C     C_R   0.173033 0.476747 0.974387 0.303175
C34   C     C_R   0.466381 0.826111 0.005316 0.297395
C35   C     C_R   0.826961 0.523305 0.974534 0.303195
C36   C     C_R   0.535595 0.173137 0.996791 0.305472
C37   C     C_R   0.826959 0.476695 0.025463 0.303186
C38   C     C_R   0.535601 0.826869 0.003356 0.305363
C39   C     C_R   0.173031 0.523250 0.025616 0.303185
C40   C     C_R   0.466384 0.173883 0.994562 0.297247
C41   C     C_R   0.476128 0.025116 0.827007 0.302351
C42   C     C_R   0.826933 0.025225 0.523670 0.303525
C43   C     C_R   0.523927 0.024787 0.173166 0.301901
C44   C     C_R   0.173068 0.025180 0.476390 0.303536
C45   C     C_R   0.476121 0.974886 0.172994 0.302361
C46   C     C_R   0.826934 0.974771 0.476337 0.303522
C47   C     C_R   0.523934 0.975215 0.826833 0.301917
C48   C     C_R   0.173068 0.974818 0.523603 0.303534
C49   C     C_R   0.503296 0.673158 0.035820 0.305445
C50   C     C_R   0.525609 0.976952 0.673011 0.303132
C51   C     C_R   0.502638 0.326833 0.964162 0.305556
C52   C     C_R   0.525605 0.023047 0.326986 0.303124
C53   C     C_R   0.505519 0.326111 0.033347 0.297220
C54   C     C_R   0.474530 0.023510 0.673062 0.303239
C55   C     C_R   0.504921 0.673902 0.966593 0.297386
C56   C     C_R   0.474525 0.976491 0.326940 0.303246
C57   C     C_R   0.673050 0.976465 0.474648 0.303575
C58   C     C_R   0.976313 0.326865 0.474943 0.303252
C59   C     C_R   0.326952 0.023472 0.474687 0.303612
C60   C     C_R   0.023647 0.672969 0.474671 0.303232
C61   C     C_R   0.326949 0.976529 0.525309 0.303606
C62   C     C_R   0.023648 0.327031 0.525328 0.303228
C63   C     C_R   0.673047 0.023532 0.525357 0.303576
C64   C     C_R   0.976310 0.673135 0.525057 0.303255
C65   C     C_R   0.976390 0.525346 0.327018 0.303496
C66   C     C_R   0.326915 0.524906 0.024003 0.301916
C67   C     C_R   0.023659 0.525062 0.673150 0.303560
C68   C     C_R   0.673078 0.524990 0.976190 0.302356
C69   C     C_R   0.976383 0.474657 0.672983 0.303498
C70   C     C_R   0.326917 0.475088 0.976003 0.301907
C71   C     C_R   0.023665 0.474939 0.326849 0.303563
C72   C     C_R   0.673077 0.475007 0.023804 0.302343
C73   C     C_R   0.023924 0.133777 0.524445 -0.216462
C74   C     C_R   0.024174 0.476032 0.133692 -0.216663
C75   C     C_R   0.023924 0.866223 0.475554 -0.216461
C76   C     C_R   0.024171 0.523968 0.866305 -0.216656
C77   C     C_R   0.975976 0.866278 0.524134 -0.216389
C78   C     C_R   0.975933 0.524286 0.133748 -0.216642
C79   C     C_R   0.975977 0.133723 0.475867 -0.216390
C80   C     C_R   0.975930 0.475715 0.866254 -0.216646
C81   C     C_R   0.133705 0.476106 0.975596 -0.216924
C82   C     C_R   0.466385 0.865375 0.003146 -0.208548
C83   C     C_R   0.866289 0.523942 0.975746 -0.216743
C84   C     C_R   0.534615 0.133958 0.998927 -0.211392
C85   C     C_R   0.866288 0.476059 0.024252 -0.216737
C86   C     C_R   0.534622 0.866048 0.001215 -0.211250
C87   C     C_R   0.133703 0.523892 0.024406 -0.216927
C88   C     C_R   0.466387 0.134619 0.996733 -0.208522
C89   C     C_R   0.475502 0.023827 0.866331 -0.215946
C90   C     C_R   0.866262 0.024012 0.524289 -0.216666
C91   C     C_R   0.524521 0.023634 0.133833 -0.215024
C92   C     C_R   0.133738 0.023966 0.475769 -0.216716
C93   C     C_R   0.475498 0.976175 0.133670 -0.215980
C94   C     C_R   0.866264 0.975986 0.475716 -0.216664
C95   C     C_R   0.524526 0.976367 0.866166 -0.215002
C96   C     C_R   0.133738 0.976033 0.524225 -0.216713
C97   C     C_R   0.501252 0.633966 0.034777 -0.211405
C98   C     C_R   0.524378 0.976247 0.633683 -0.216818
C99   C     C_R   0.500614 0.366025 0.965229 -0.211553
C100  C     C_R   0.524376 0.023753 0.366314 -0.216818
C101  C     C_R   0.503437 0.365384 0.033431 -0.208396
C102  C     C_R   0.475720 0.024082 0.633732 -0.216842
C103  C     C_R   0.502855 0.634629 0.966533 -0.208363
C104  C     C_R   0.475717 0.975919 0.366270 -0.216850
C105  C     C_R   0.633721 0.975841 0.475860 -0.216609
C106  C     C_R   0.975704 0.366172 0.476104 -0.216380
C107  C     C_R   0.366280 0.024098 0.475902 -0.216693
C108  C     C_R   0.024282 0.633670 0.475950 -0.216472
C109  C     C_R   0.366278 0.975903 0.524096 -0.216686
C110  C     C_R   0.024282 0.366329 0.524049 -0.216472
C111  C     C_R   0.633718 0.024157 0.524143 -0.216613
C112  C     C_R   0.975701 0.633828 0.523896 -0.216379
C113  C     C_R   0.975753 0.524069 0.366342 -0.216716
C114  C     C_R   0.366244 0.523685 0.024607 -0.215145
C115  C     C_R   0.024265 0.523909 0.633817 -0.216661
C116  C     C_R   0.633749 0.523771 0.975578 -0.215834
C117  C     C_R   0.975748 0.475933 0.633659 -0.216718
C118  C     C_R   0.366246 0.476311 0.975398 -0.215160
C119  C     C_R   0.024270 0.476092 0.366182 -0.216665
C120  C     C_R   0.633748 0.476227 0.024418 -0.215809
H1    H     H_    0.042908 0.118330 0.542662 0.197741
H2    H     H_    0.043247 0.457901 0.118178 0.197504
H3    H     H_    0.042909 0.881669 0.457336 0.197739
H4    H     H_    0.043246 0.542098 0.881817 0.197507
H5    H     H_    0.957004 0.881766 0.542397 0.197777
H6    H     H_    0.956845 0.542370 0.118277 0.197525
H7    H     H_    0.957005 0.118235 0.457604 0.197779
H8    H     H_    0.956843 0.457632 0.881727 0.197523
H9    H     H_    0.118209 0.458186 0.956304 0.197271
H10   H     H_    0.439804 0.880348 0.003569 0.214629
H11   H     H_    0.881784 0.541902 0.956568 0.197455
H12   H     H_    0.560907 0.118530 0.000145 0.214837
H13   H     H_    0.881781 0.458099 0.043432 0.197457
H14   H     H_    0.560916 0.881481 0.000099 0.214856
H15   H     H_    0.118205 0.541813 0.043698 0.197269
H16   H     H_    0.439812 0.119640 0.996201 0.214645
H17   H     H_    0.457087 0.042593 0.881884 0.197834
H18   H     H_    0.881753 0.043011 0.542520 0.197646
H19   H     H_    0.542930 0.042448 0.118413 0.198696
H20   H     H_    0.118248 0.042931 0.457584 0.197675
H21   H     H_    0.457083 0.957409 0.118117 0.197827
H22   H     H_    0.881756 0.956987 0.457484 0.197647
H23   H     H_    0.542935 0.957552 0.881585 0.198699
H24   H     H_    0.118248 0.957068 0.542412 0.197676
H25   H     H_    0.500302 0.618534 0.061046 0.214814
H26   H     H_    0.543606 0.958280 0.618169 0.197382
H27   H     H_    0.499177 0.381448 0.938978 0.214749
H28   H     H_    0.543605 0.041719 0.381826 0.197382
H29   H     H_    0.504257 0.380371 0.060025 0.214665
H30   H     H_    0.456478 0.041997 0.618255 0.197346
H31   H     H_    0.503181 0.619653 0.939920 0.214675
H32   H     H_    0.456475 0.958005 0.381749 0.197345
H33   H     H_    0.618229 0.957710 0.456763 0.197519
H34   H     H_    0.957466 0.381576 0.457105 0.197748
H35   H     H_    0.381774 0.042182 0.456838 0.197512
H36   H     H_    0.042527 0.618140 0.456993 0.197772
H37   H     H_    0.381769 0.957819 0.543160 0.197515
H38   H     H_    0.042526 0.381860 0.543006 0.197774
H39   H     H_    0.618224 0.042288 0.543240 0.197518
H40   H     H_    0.957463 0.618425 0.542895 0.197746
H41   H     H_    0.957539 0.543029 0.381897 0.197684
H42   H     H_    0.381728 0.542444 0.043092 0.198749
H43   H     H_    0.042472 0.542913 0.618390 0.197642
H44   H     H_    0.618262 0.542592 0.957239 0.197795
H45   H     H_    0.957535 0.456974 0.618104 0.197684
H46   H     H_    0.381732 0.457553 0.956912 0.198732
H47   H     H_    0.042475 0.457088 0.381609 0.197640
H48   H     H_    0.618260 0.457406 0.042757 0.197779
C121  C     C_R   0.999965 0.114211 0.500121 -0.140382
C122  C     C_R   0.000037 0.500122 0.114189 -0.139820
C123  C     C_R   0.999964 0.885789 0.499879 -0.140381
C124  C     C_R   0.000036 0.499878 0.885811 -0.139821
C125  C     C_R   0.114177 0.499999 0.000000 -0.139401
C126  C     C_R   0.500277 0.885405 0.001175 -0.162038
C127  C     C_R   0.885818 0.500000 1.000000 -0.139651
C128  C     C_R   0.500275 0.114595 0.998834 -0.162017
C129  C     C_R   0.500004 0.000061 0.885786 -0.141758
C130  C     C_R   0.885796 0.999999 0.500002 -0.140289
C131  C     C_R   0.500001 0.999940 0.114214 -0.141750
C132  C     C_R   0.114205 1.000000 0.499998 -0.140340
C133  C     C_R   0.501100 0.614600 0.000396 -0.162065
C134  C     C_R   0.500033 0.000124 0.614180 -0.139527
C135  C     C_R   0.501077 0.385401 0.999600 -0.161988
C136  C     C_R   0.500031 0.999876 0.385820 -0.139527
C137  C     C_R   0.614188 0.999999 0.500001 -0.139815
C138  C     C_R   1.000000 0.385789 0.500047 -0.140384
C139  C     C_R   0.385811 0.000000 0.499999 -0.139828
C140  C     C_R   0.999999 0.614211 0.499953 -0.140381
C141  C     C_R   0.000003 0.500049 0.385795 -0.140316
C142  C     C_R   0.385783 0.499999 0.000002 -0.142230
C143  C     C_R   0.999999 0.499952 0.614205 -0.140317
C144  C     C_R   0.614212 0.499999 0.999998 -0.141270
C145  C     C_R   0.999933 0.192821 0.500232 -0.142001
C146  C     C_R   0.000076 0.500240 0.192812 -0.142091
C147  C     C_R   0.999932 0.807179 0.499768 -0.142000
C148  C     C_R   0.000071 0.499761 0.807188 -0.142091
C149  C     C_R   0.192795 0.499998 0.000002 -0.142279
C150  C     C_R   0.501245 0.806872 0.004968 -0.129371
C151  C     C_R   0.807197 0.500000 0.999998 -0.142163
C152  C     C_R   0.501241 0.193128 0.995050 -0.129388
C153  C     C_R   0.500040 0.000199 0.807158 -0.142567
C154  C     C_R   0.807171 0.999998 0.500004 -0.142058
C155  C     C_R   0.500032 0.999803 0.192842 -0.142566
C156  C     C_R   0.192830 0.999999 0.499996 -0.142079
C157  C     C_R   0.504692 0.693151 0.001492 -0.129454
C158  C     C_R   0.500073 0.000257 0.692799 -0.142217
C159  C     C_R   0.504658 0.306851 0.998464 -0.129497
C160  C     C_R   0.500068 0.999745 0.307201 -0.142221
C161  C     C_R   0.692811 0.999998 0.500003 -0.142085
C162  C     C_R   0.999972 0.307180 0.500166 -0.142001
C163  C     C_R   0.307188 0.000000 0.499997 -0.142096
C164  C     C_R   0.999971 0.692820 0.499834 -0.142000
C165  C     C_R   0.000037 0.500174 0.307171 -0.142068
C166  C     C_R   0.307154 0.499997 0.000003 -0.142596
C167  C     C_R   0.000030 0.499828 0.692829 -0.142068
C168  C     C_R   0.692839 0.499999 0.999997 -0.142542
C169  C     C_1   0.999950 0.233134 0.500239 0.185567
C170  C     C_1   0.000061 0.500250 0.233121 0.185812
C171  C     C_1   0.999948 0.766866 0.499760 0.185568
C172  C     C_1   0.000054 0.499752 0.766879 0.185812
C173  C     C_1   0.233104 0.499997 0.000003 0.184931
C174  C     C_1   0.501872 0.766798 0.003316 0.207907
C175  C     C_1   0.766889 0.499999 0.999997 0.185238
C176  C     C_1   0.501856 0.233203 0.996694 0.207925
C177  C     C_1   0.500049 0.000253 0.766849 0.184968
C178  C     C_1   0.766861 0.999998 0.500004 0.185789
C179  C     C_1   0.500041 0.999749 0.233151 0.184967
C180  C     C_1   0.233139 1.000000 0.499996 0.185798
C181  C     C_1   0.502994 0.733220 0.002187 0.207771
C182  C     C_1   0.500059 0.000272 0.733108 0.185089
C183  C     C_1   0.502970 0.266782 0.997806 0.207777
C184  C     C_1   0.500052 0.999729 0.266892 0.185085
C185  C     C_1   0.733121 0.999998 0.500004 0.185801
C186  C     C_1   0.999962 0.266866 0.500217 0.185567
C187  C     C_1   0.266879 0.000000 0.499996 0.185825
C188  C     C_1   0.999960 0.733133 0.499783 0.185568
C189  C     C_1   0.000049 0.500227 0.266862 0.185793
C190  C     C_1   0.266844 0.499997 0.000003 0.184880
C191  C     C_1   0.000041 0.499775 0.733138 0.185793
C192  C     C_1   0.733148 0.499999 0.999997 0.185049
N1    N     N_R   0.052426 0.192341 0.546831 0.240746
O49   O     O_R   0.062174 0.178509 0.579322 -0.292355
O50   O     O_R   0.071871 0.220082 0.532946 -0.295658
N2    N     N_R   0.052848 0.454001 0.192255 0.240908
O51   O     O_R   0.062797 0.421576 0.178339 -0.292832
O52   O     O_R   0.072198 0.468043 0.220067 -0.296031
N3    N     N_R   0.052426 0.807657 0.453167 0.240746
O53   O     O_R   0.062176 0.821489 0.420676 -0.292361
O54   O     O_R   0.071870 0.779916 0.467051 -0.295658
N4    N     N_R   0.052843 0.545998 0.807740 0.240911
O55   O     O_R   0.062792 0.578423 0.821655 -0.292811
O56   O     O_R   0.072192 0.531956 0.779926 -0.296017
N5    N     N_R   0.947420 0.807771 0.546346 0.240821
O57   O     O_R   0.937666 0.821663 0.578872 -0.292245
O58   O     O_R   0.927963 0.780020 0.532379 -0.295615
N6    N     N_R   0.947323 0.546502 0.192371 0.240853
O59   O     O_R   0.937378 0.578892 0.178512 -0.292670
O60   O     O_R   0.927986 0.532548 0.220178 -0.295920
N7    N     N_R   0.947423 0.192230 0.453655 0.240822
O61   O     O_R   0.937670 0.178339 0.421130 -0.292242
O62   O     O_R   0.927965 0.219982 0.467624 -0.295616
N8    N     N_R   0.947317 0.453500 0.807634 0.240851
O63   O     O_R   0.937372 0.421110 0.821494 -0.292681
O64   O     O_R   0.927980 0.467455 0.779830 -0.295930
N9    N     N_R   0.192298 0.454278 0.946680 0.240956
O65   O     O_R   0.178422 0.421964 0.936349 -0.291673
O66   O     O_R   0.220084 0.468486 0.927488 -0.295787
N10   N     N_R   0.430922 0.806433 0.007635 0.228410
O67   O     O_R   0.400565 0.821384 0.993546 -0.307916
O68   O     O_R   0.427849 0.775631 0.027164 -0.321280
N11   N     N_R   0.807698 0.545836 0.946975 0.240991
O69   O     O_R   0.821580 0.578169 0.936850 -0.291458
O70   O     O_R   0.779902 0.531677 0.927699 -0.295822
N12   N     N_R   0.571566 0.192006 0.996678 0.233352
O71   O     O_R   0.600432 0.176776 0.013354 -0.301530
O72   O     O_R   0.576828 0.222104 0.976529 -0.299174
N13   N     N_R   0.807694 0.454164 0.053022 0.240994
O73   O     O_R   0.821575 0.421831 0.063146 -0.291432
O74   O     O_R   0.779896 0.468322 0.072297 -0.295802
N14   N     N_R   0.571576 0.808009 0.003599 0.233010
O75   O     O_R   0.600498 0.823243 0.987024 -0.301842
O76   O     O_R   0.576772 0.777913 0.023769 -0.298453
N15   N     N_R   0.192293 0.545717 0.053324 0.240956
O77   O     O_R   0.178417 0.578032 0.063654 -0.291686
O78   O     O_R   0.220077 0.531508 0.072518 -0.295824
N16   N     N_R   0.430931 0.193554 0.992090 0.228283
O79   O     O_R   0.400513 0.178589 0.006031 -0.308103
O80   O     O_R   0.427939 0.224360 0.972555 -0.320728
N17   N     N_R   0.452956 0.052204 0.807838 0.241098
O81   O     O_R   0.420364 0.061639 0.821752 -0.290087
O82   O     O_R   0.466691 0.071773 0.780105 -0.295325
N18   N     N_R   0.807668 0.052547 0.546594 0.240884
O83   O     O_R   0.821553 0.062374 0.579094 -0.292500
O84   O     O_R   0.779861 0.071917 0.532684 -0.295968
N19   N     N_R   0.547109 0.051813 0.192525 0.241170
O85   O     O_R   0.579711 0.061261 0.178684 -0.288708
O86   O     O_R   0.533370 0.071332 0.220376 -0.296145
N20   N     N_R   0.192332 0.052457 0.453530 0.240857
O87   O     O_R   0.178444 0.062222 0.421055 -0.292769
O88   O     O_R   0.220142 0.071850 0.467483 -0.296099
N21   N     N_R   0.452948 0.947799 0.192163 0.241083
O89   O     O_R   0.420356 0.938365 0.178250 -0.290175
O90   O     O_R   0.466682 0.928231 0.219897 -0.295349
N22   N     N_R   0.807671 0.947448 0.453414 0.240886
O91   O     O_R   0.821558 0.937621 0.420914 -0.292489
O92   O     O_R   0.779865 0.928079 0.467326 -0.295967
N23   N     N_R   0.547117 0.948189 0.807473 0.241170
O93   O     O_R   0.579719 0.938740 0.821313 -0.288757
O94   O     O_R   0.533379 0.928670 0.779622 -0.296108
N24   N     N_R   0.192331 0.947541 0.546462 0.240860
O95   O     O_R   0.178444 0.937775 0.578937 -0.292749
O96   O     O_R   0.220143 0.928148 0.532507 -0.296100
N25   N     N_R   0.503667 0.692030 0.071829 0.233047
O97   O     O_R   0.487298 0.676712 0.100811 -0.301972
O98   O     O_R   0.523759 0.722240 0.076976 -0.298387
N26   N     N_R   0.553255 0.954490 0.692249 0.241006
O99   O     O_R   0.563484 0.922145 0.678348 -0.291605
O100  O     O_R   0.572499 0.968723 0.720038 -0.295665
N27   N     N_R   0.502356 0.307948 0.928161 0.233369
O101  O     O_R   0.485436 0.323240 0.899485 -0.301558
O102  O     O_R   0.522374 0.277751 0.922651 -0.299054
N28   N     N_R   0.553250 0.045510 0.307746 0.241005
O103  O     O_R   0.563480 0.077854 0.321645 -0.291601
O104  O     O_R   0.572493 0.031276 0.279955 -0.295650
N29   N     N_R   0.508290 0.306448 0.068742 0.228264
O105  O     O_R   0.494658 0.321481 0.099313 -0.307968
O106  O     O_R   0.527814 0.275577 0.071504 -0.320897
N30   N     N_R   0.446911 0.046048 0.692352 0.240946
O107  O     O_R   0.436685 0.078351 0.678495 -0.291507
O108  O     O_R   0.427686 0.031916 0.720145 -0.295946
N31   N     N_R   0.507014 0.693578 0.931159 0.228345
O109  O     O_R   0.492757 0.678577 0.900858 -0.307884
O110  O     O_R   0.526506 0.724433 0.928030 -0.321458
N32   N     N_R   0.446904 0.953956 0.307654 0.240944
O111  O     O_R   0.436678 0.921653 0.321512 -0.291533
O112  O     O_R   0.427679 0.968088 0.279862 -0.295971
N33   N     N_R   0.692315 0.953682 0.447198 0.240900
O113  O     O_R   0.678429 0.921262 0.437223 -0.292576
O114  O     O_R   0.720123 0.967658 0.427866 -0.295869
N34   N     N_R   0.953388 0.307541 0.447662 0.240797
O115  O     O_R   0.920878 0.321370 0.437901 -0.292218
O116  O     O_R   0.967314 0.279734 0.428236 -0.295787
N35   N     N_R   0.307689 0.046188 0.447280 0.240861
O117  O     O_R   0.321578 0.078583 0.437364 -0.292924
O118  O     O_R   0.279879 0.032169 0.427925 -0.296083
N36   N     N_R   0.046566 0.692110 0.447336 0.240772
O119  O     O_R   0.079073 0.678215 0.437597 -0.292384
O120  O     O_R   0.032641 0.719796 0.427858 -0.295490
N37   N     N_R   0.307684 0.953812 0.552714 0.240864
O121  O     O_R   0.321572 0.921417 0.562630 -0.292902
O122  O     O_R   0.279872 0.967832 0.572069 -0.296073
N38   N     N_R   0.046566 0.307889 0.552662 0.240771
O123  O     O_R   0.079072 0.321784 0.562401 -0.292379
O124  O     O_R   0.032641 0.280203 0.572140 -0.295488
N39   N     N_R   0.692309 0.046314 0.552808 0.240899
O125  O     O_R   0.678422 0.078735 0.562783 -0.292586
O126  O     O_R   0.720115 0.032338 0.572141 -0.295874
N40   N     N_R   0.953384 0.692460 0.552339 0.240795
O127  O     O_R   0.920873 0.678631 0.562101 -0.292223
O128  O     O_R   0.967309 0.720266 0.571764 -0.295785
N41   N     N_R   0.953503 0.552673 0.307847 0.240872
O129  O     O_R   0.921016 0.562456 0.321766 -0.292596
O130  O     O_R   0.967436 0.572082 0.280100 -0.295878
N42   N     N_R   0.307649 0.551924 0.047285 0.241129
O131  O     O_R   0.321521 0.561304 0.079921 -0.288945
O132  O     O_R   0.279864 0.571497 0.033620 -0.295934
N43   N     N_R   0.046556 0.552333 0.692506 0.240874
O133  O     O_R   0.079046 0.562138 0.678651 -0.292642
O134  O     O_R   0.032624 0.571688 0.720376 -0.296191
N44   N     N_R   0.692342 0.552085 0.953116 0.241121
O135  O     O_R   0.678461 0.561586 0.920559 -0.290018
O136  O     O_R   0.720140 0.571599 0.966923 -0.295536
N45   N     N_R   0.953495 0.447331 0.692155 0.240869
O137  O     O_R   0.921008 0.437549 0.678236 -0.292610
O138  O     O_R   0.967426 0.427921 0.719902 -0.295875
N46   N     N_R   0.307654 0.448070 0.952722 0.241137
O139  O     O_R   0.321528 0.438689 0.920085 -0.288824
O140  O     O_R   0.279868 0.428497 0.966387 -0.295953
N47   N     N_R   0.046563 0.447668 0.307492 0.240870
O141  O     O_R   0.079052 0.437862 0.321346 -0.292663
O142  O     O_R   0.032633 0.428314 0.279622 -0.296192
N48   N     N_R   0.692341 0.447912 0.046878 0.241135
O143  O     O_R   0.678458 0.438411 0.079435 -0.289910
O144  O     O_R   0.720140 0.428398 0.033070 -0.295515

loop_
_geom_bond_atom_site_label_1
_geom_bond_atom_site_label_2
_geom_bond_distance
_ccdc_geom_bond_type
C57   N33   1.438240 S    
N43   O133  1.301388 A    
C86   C126  1.399612 A    
C14   C126  1.464096 S    
C59   C107  1.396711 A    
N8    O64   1.301121 A    
C114  H42   1.083932 S    
C9    C139  1.452999 S    
C66   N42   1.438222 S    
N13   O73   1.301388 A    
C33   C81   1.396702 A    
C65   C165  1.413428 A    
N1    O49   1.301382 A    
C63   N39   1.438241 S    
N35   O118  1.301125 A    
C71   C165  1.413438 A    
N33   O114  1.301125 A    
O22   C12   1.278347 A    
O10   C6    1.277645 A    
C72   C168  1.413416 A    
C92   H20   1.083935 S    
O5    Zn2   2.001257 S    
C47   N23   1.438213 S    
C26   C74   1.396682 A    
C62   C110  1.397403 A    
C89   C129  1.395966 A    
C42   C154  1.413434 A    
O34   Zn9   2.001277 S    
C160  C184  1.430645 S    
C52   C160  1.413430 A    
O46   C24   1.278394 A    
C66   C114  1.396704 A    
C38   C150  1.412538 A    
C157  C181  1.425203 S    
O5    C1    1.277569 A    
C102  C134  1.395798 A    
C55   N31   1.442135 S    
C4    C140  1.454786 S    
C152  C176  1.425204 S    
C167  C191  1.430658 S    
C93   H21   1.083940 S    
C150  C174  1.425203 S    
N4    O56   1.301131 A    
C155  C179  1.430651 S    
C93   C131  1.395969 A    
C41   C89   1.396730 A    
O45   C21   1.278388 A    
C13   C131  1.453292 S    
N27   O101  1.301571 A    
C97   H25   1.083181 S    
N14   O75   1.301615 A    
O22   Zn6   2.000551 S    
C20   C132  1.453074 S    
C67   C167  1.413438 A    
C102  H30   1.083946 S    
N6    O59   1.301384 A    
O14   Zn4   2.001279 S    
C53   C159  1.413658 A    
C15   C129  1.453292 S    
O40   Zn10  2.001253 S    
O32   Zn8   2.003494 S    
N19   O85   1.301385 A    
C118  C142  1.395959 A    
C45   C155  1.413404 A    
N18   O83   1.301384 A    
O8    Zn2   2.003494 S    
C47   C153  1.413403 A    
O47   C23   1.278357 A    
C61   N37   1.438246 S    
O46   Zn12  2.000551 S    
N34   O116  1.301114 A    
C28   N4    1.438242 S    
C58   N34   1.438156 S    
N36   O120  1.301116 A    
C86   H14   1.083185 S    
O8    C2    1.278020 A    
N46   O139  1.301388 A    
C60   C108  1.397403 A    
N44   O136  1.301126 A    
O41   C21   1.278384 A    
C48   N24   1.438243 S    
C39   C87   1.396700 A    
O43   C23   1.278355 A    
C52   C100  1.396668 A    
C37   C85   1.396702 A    
O42   Zn11  2.000551 S    
O48   C22   1.278459 A    
C173  C190  1.197517 T    
C116  C144  1.395929 A    
C57   C161  1.413440 A    
O36   C20   1.277566 A    
C99   H27   1.083164 S    
C59   C163  1.413439 A    
C52   N28   1.438221 S    
C60   C164  1.413679 A    
C30   N6    1.438243 S    
C113  C141  1.395885 A    
C44   C92   1.396712 A    
C42   N18   1.438239 S    
C38   N14   1.442030 S    
O29   Zn8   2.001257 S    
C104  H32   1.083942 S    
N38   O124  1.301116 A    
O44   C24   1.278458 A    
C64   N40   1.438153 S    
C55   C103  1.397401 A    
O16   C6    1.277640 A    
C101  C135  1.399455 A    
N32   O111  1.301385 A    
C43   N19   1.438214 S    
C19   C121  1.454782 S    
C81   C125  1.395767 A    
O12   Zn3   2.001255 S    
C72   N48   1.438235 S    
C83   H11   1.083941 S    
C110  C138  1.396141 A    
C44   C156  1.413431 A    
O6    C4    1.278016 A    
N37   O121  1.301385 A    
C2    C138  1.454783 S    
C69   N45   1.438252 S    
C47   C95   1.396679 A    
N29   O106  1.301357 A    
C45   C93   1.396726 A    
N7    O62   1.301119 A    
N17   O81   1.301386 A    
O43   Zn11  2.001349 S    
C107  H35   1.083939 S    
O44   Zn11  2.002140 S    
C49   C97   1.394893 A    
O34   C18   1.277571 A    
N24   O95   1.301387 A    
O23   C11   1.278424 A    
N43   O134  1.301125 A    
C111  C137  1.395841 A    
N38   O123  1.301383 A    
C54   C158  1.413456 A    
N5    O58   1.301119 A    
C162  C186  1.432469 S    
C46   C154  1.413432 A    
N22   O91   1.301385 A    
C98   C134  1.395776 A    
C10   C134  1.452790 S    
O2    C2    1.278018 A    
N16   O80   1.301359 A    
N30   O107  1.301385 A    
O37   C17   1.278057 A    
N39   O126  1.301128 A    
C48   C156  1.413431 A    
C112  H40   1.083914 S    
N2    O52   1.301131 A    
C66   C166  1.413391 A    
C18   C130  1.453049 S    
C149  C173  1.430654 S    
C54   N30   1.438225 S    
C74   H2    1.083939 S    
C95   H23   1.083936 S    
C30   C78   1.396750 A    
N26   O100  1.301128 A    
N40   O128  1.301118 A    
C77   H5    1.083918 S    
O29   C13   1.277620 A    
C40   N16   1.442155 S    
C34   C82   1.397474 A    
O31   C15   1.277623 A    
C78   C122  1.395852 A    
C49   C157  1.412565 A    
N12   O71   1.301606 A    
C31   C145  1.413669 A    
O19   C11   1.278422 A    
C53   C101  1.397425 A    
O15   C7    1.281223 A    
C100  H28   1.083947 S    
N11   O70   1.301125 A    
O10   Zn3   2.001277 S    
C115  C143  1.395849 A    
O35   C19   1.278058 A    
O36   Zn9   2.001255 S    
C56   C104  1.396734 A    
C25   N1    1.438164 S    
C79   C121  1.396118 A    
C100  C136  1.395776 A    
N20   O88   1.301128 A    
C163  C187  1.430643 S    
O4    Zn1   2.003501 S    
O2    Zn1   2.003494 S    
C145  C169  1.432467 S    
C72   C120  1.396700 A    
C105  H33   1.083940 S    
N42   O131  1.301386 A    
N19   O86   1.301122 A    
N15   O78   1.301124 A    
O20   C12   1.278399 A    
N13   O74   1.301125 A    
C50   N26   1.438222 S    
C73   H1    1.083912 S    
N31   O110  1.301347 A    
C64   C164  1.413696 A    
C115  H43   1.083936 S    
C116  H44   1.083938 S    
C154  C178  1.430668 S    
O16   Zn4   2.001253 S    
C161  C185  1.430668 S    
C5    C135  1.464058 S    
O39   Zn10  2.002700 S    
N34   O115  1.301384 A    
C56   C160  1.413459 A    
C26   C146  1.413421 A    
C94   C130  1.395862 A    
C44   N20   1.438245 S    
C108  H36   1.083916 S    
C21   C127  1.452850 S    
C39   N15   1.438215 S    
O11   Zn3   2.004288 S    
N33   O113  1.301383 A    
C120  C144  1.395930 A    
C41   N17   1.438245 S    
C34   C150  1.413685 A    
C29   N5    1.438166 S    
C103  C133  1.399492 A    
C56   N32   1.438225 S    
C74   C122  1.395839 A    
C119  H47   1.083935 S    
O3    Zn1   2.001250 S    
C165  C189  1.430658 S    
C35   N11   1.438230 S    
C25   C73   1.397431 A    
C179  C184  1.197518 T    
O40   C18   1.277566 A    
N48   O143  1.301388 A    
C59   N35   1.438245 S    
C111  H39   1.083940 S    
C58   C162  1.413692 A    
C109  H37   1.083938 S    
C35   C83   1.396700 A    
N28   O103  1.301383 A    
O30   C16   1.279714 A    
C65   N41   1.438253 S    
C113  H41   1.083938 S    
O31   Zn8   2.001281 S    
N21   O90   1.301123 A    
N41   O129  1.301389 A    
C46   N22   1.438240 S    
O20   Zn5   2.002140 S    
C78   H6    1.083934 S    
N14   O76   1.301314 A    
C16   C128  1.464096 S    
N25   O98   1.301313 A    
C54   C102  1.396736 A    
C39   C149  1.413445 A    
C82   H10   1.083165 S    
N6    O60   1.301125 A    
O28   Zn7   2.003501 S    
C51   C99   1.394859 A    
C70   C118  1.396706 A    
C94   H22   1.083936 S    
C31   N7    1.438167 S    
C158  C182  1.430648 S    
C169  C186  1.198601 T    
N35   O117  1.301385 A    
C57   C105  1.396717 A    
N45   O138  1.301124 A    
N18   O84   1.301124 A    
O21   Zn6   2.001350 S    
C75   H3    1.083913 S    
C70   C166  1.413394 A    
C24   C124  1.452989 S    
C61   C163  1.413437 A    
C153  C177  1.430655 S    
C50   C98   1.396666 A    
C43   C91   1.396680 A    
C63   C161  1.413441 A    
C27   C147  1.413706 A    
N8    O63   1.301384 A    
C75   C123  1.396130 A    
O38   Zn10  2.001279 S    
N47   O142  1.301126 A    
C71   N47   1.438230 S    
C99   C135  1.399587 A    
C168  C192  1.430647 S    
N46   O140  1.301125 A    
O6    Zn2   2.003487 S    
O7    Zn2   2.001281 S    
C32   N8    1.438240 S    
N1    O50   1.301115 A    
C67   C115  1.396701 A    
C12   C136  1.452790 S    
C68   C116  1.396705 A    
C84   C128  1.399603 A    
N3    O53   1.301385 A    
C98   H26   1.083946 S    
C27   C75   1.397429 A    
C53   N29   1.442135 S    
C81   H9    1.083948 S    
C28   C76   1.396676 A    
O3    C3    1.277566 A    
N10   O67   1.301646 A    
C84   H12   1.083178 S    
C69   C117  1.396728 A    
C120  H48   1.083944 S    
C80   H8    1.083940 S    
N47   O141  1.301386 A    
O13   C5    1.279743 A    
C48   C96   1.396707 A    
C36   C152  1.412525 A    
C76   H4    1.083942 S    
O17   Zn5   2.001344 S    
C6    C142  1.453340 S    
C11   C137  1.452978 S    
O25   C13   1.277629 A    
O47   Zn12  2.001342 S    
N32   O112  1.301119 A    
C42   C90   1.396719 A    
C31   C79   1.397350 A    
O28   C16   1.281267 A    
O24   Zn6   2.002140 S    
O38   C20   1.277565 A    
C80   C124  1.395853 A    
C29   C77   1.397351 A    
C85   C127  1.395807 A    
O37   Zn10  2.004288 S    
C69   C167  1.413425 A    
O9    C5    1.281231 A    
C67   N43   1.438229 S    
C32   C80   1.396748 A    
C50   C158  1.413432 A    
O11   C7    1.279760 A    
N29   O105  1.301589 A    
N4    O55   1.301385 A    
C7    C133  1.464098 S    
C25   C145  1.413705 A    
N24   O96   1.301125 A    
C91   C131  1.395922 A    
C36   N12   1.442049 S    
O26   Zn7   2.003494 S    
O1    Zn1   2.001273 S    
C159  C183  1.425192 S    
O7    C3    1.277573 A    
N11   O69   1.301387 A    
C146  C170  1.430656 S    
N5    O57   1.301387 A    
C101  H29   1.083138 S    
O18   Zn5   2.000551 S    
C107  C139  1.395849 A    
C8    C144  1.453237 S    
N22   O92   1.301127 A    
O23   Zn6   2.001342 S    
N9    O65   1.301385 A    
C73   C121  1.396131 A    
C62   C162  1.413681 A    
C106  C138  1.396104 A    
N7    O61   1.301384 A    
C1    C143  1.453064 S    
C95   C129  1.395923 A    
N30   O108  1.301121 A    
C88   C128  1.399506 A    
C172  C191  1.197522 T    
N36   O119  1.301383 A    
O15   Zn4   2.002700 S    
C45   N21   1.438244 S    
C90   H18   1.083934 S    
C63   C111  1.396715 A    
C55   C157  1.413680 A    
O17   C9    1.278423 A    
O41   Zn11  2.001344 S    
O14   C8    1.277607 A    
N15   O77   1.301381 A    
C40   C152  1.413673 A    
C41   C153  1.413401 A    
N23   O93   1.301386 A    
O42   C22   1.278389 A    
C77   C123  1.396116 A    
C65   C113  1.396728 A    
O35   Zn9   2.004288 S    
O33   C17   1.277979 A    
N31   O109  1.301662 A    
C28   C148  1.413424 A    
C96   C132  1.395874 A    
C35   C151  1.413440 A    
C76   C124  1.395837 A    
C70   N46   1.438222 S    
O4    C4    1.278016 A    
O27   Zn7   2.001250 S    
C166  C190  1.430661 S    
C119  C141  1.395849 A    
N12   O72   1.301322 A    
N27   O102  1.301314 A    
C170  C189  1.197522 T    
C36   C84   1.394829 A    
C61   C109  1.396709 A    
C112  C140  1.396105 A    
C27   N3    1.438166 S    
C171  C188  1.198601 T    
C117  C143  1.395885 A    
N9    O66   1.301123 A    
C180  C187  1.197513 T    
C83   C127  1.395806 A    
O19   Zn5   2.001349 S    
C97   C133  1.399640 A    
N44   O135  1.301388 A    
C68   C168  1.413410 A    
C175  C192  1.197510 T    
C88   H16   1.083150 S    
C176  C183  1.194385 T    
C90   C130  1.395866 A    
C64   C112  1.397377 A    
C87   H15   1.083947 S    
N37   O122  1.301126 A    
C46   C94   1.396717 A    
C68   N44   1.438234 S    
O30   Zn8   2.003487 S    
C23   C125  1.452726 S    
N17   O82   1.301126 A    
C62   N38   1.438177 S    
C79   H7    1.083916 S    
O24   C10   1.278400 A    
C91   H19   1.083939 S    
C105  C137  1.395842 A    
N10   O68   1.301352 A    
C71   C119  1.396700 A    
C114  C142  1.395962 A    
C38   C86   1.394822 A    
C117  H45   1.083939 S    
C177  C182  1.197515 T    
C58   C106  1.397377 A    
O48   Zn12  2.002140 S    
C178  C185  1.197527 T    
N3    O54   1.301115 A    
C22   C122  1.452989 S    
O21   C9    1.278427 A    
C174  C181  1.194378 T    
N39   O125  1.301385 A    
C92   C132  1.395871 A    
O13   Zn4   2.004288 S    
C49   N25   1.442052 S    
C85   H13   1.083942 S    
C109  C139  1.395848 A    
C51   C159  1.412515 A    
O12   C8    1.277609 A    
O27   C15   1.277629 A    
C106  H34   1.083913 S    
C87   C125  1.395770 A    
N2    O51   1.301387 A    
C108  C140  1.396139 A    
C164  C188  1.432469 S    
C34   N10   1.442155 S    
C60   N36   1.438177 S    
C33   C149  1.413446 A    
O45   Zn12  2.001350 S    
C103  H31   1.083178 S    
C156  C180  1.430647 S    
N48   O144  1.301124 A    
C96   H24   1.083939 S    
C32   C148  1.413458 A    
N26   O99   1.301383 A    
C37   C151  1.413440 A    
N40   O127  1.301385 A    
N28   O104  1.301128 A    
C147  C171  1.432467 S    
O25   Zn7   2.001273 S    
O39   C19   1.277974 A    
C148  C172  1.430656 S    
O18   C10   1.278343 A    
C33   N9    1.438212 S    
O9    Zn3   2.002700 S    
N21   O89   1.301388 A    
C26   N2    1.438244 S    
C151  C175  1.430639 S    
O26   C14   1.281271 A    
N25   O97   1.301620 A    
C17   C123  1.454782 S    
N16   O79   1.301623 A    
O1    C1    1.277566 A    
C40   C88   1.397476 A    
N42   O132  1.301123 A    
N23   O94   1.301125 A    
C30   C146  1.413456 A    
N20   O87   1.301384 A    
C3    C141  1.453064 S    
C118  H46   1.083935 S    
C51   N27   1.442011 S    
C82   C126  1.399512 A    
N41   O130  1.301127 A    
N45   O137  1.301389 A    
C29   C147  1.413669 A    
C43   C155  1.413405 A    
O32   C14   1.279714 A    
C37   N13   1.438227 S    
O33   Zn9   2.002700 S    
C89   H17   1.083937 S    
C110  H38   1.083916 S    
C104  C136  1.395800 A    
