data_mof_unit_22461.cif
_audit_creation_date              2012-12-10T20:36:39-0500
_audit_creation_method            fapswitch 2.2
_symmetry_space_group_name_H-M    P1
_symmetry_Int_Tables_number       1
_space_group_crystal_system       triclinic
_cell_length_a                    10.491588
_cell_length_b                    10.705892
_cell_length_c                    9.923244
_cell_angle_alpha                 90.360351
_cell_angle_beta                  89.684668
_cell_angle_gamma                 90.559583
_cell_volume                      1114.50500006

loop_
_atom_site_label
_atom_site_type_symbol
_atom_type_description
_atom_site_fract_x
_atom_site_fract_y
_atom_site_fract_z
_atom_type_partial_charge
Br1   Br    Br    0.746164 0.626844 0.147133 -0.568962
Br2   Br    Br    0.355298 0.217691 0.128317 -0.535725
Br3   Br    Br    0.104895 0.738698 0.678725 -0.534010
C1    C     C_R   0.500856 0.260267 0.499794 0.881393
C2    C     C_R   0.456992 0.936317 0.615069 0.182311
C3    C     C_3   0.512587 0.929967 0.753151 -0.449200
C4    C     C_R   0.257715 0.501990 0.500110 0.920656
C5    C     C_3   0.513792 0.071411 0.753306 -0.469486
C6    C     C_R   0.389543 0.481931 0.070159 0.104202
C7    C     C_R   0.603600 0.541295 0.069210 0.302586
C8    C     C_R   0.604595 0.536244 0.926312 -0.163332
C9    C     C_R   0.389023 0.485907 0.929127 0.186099
C10   C     C_3   0.291269 0.385476 0.916653 -0.502864
C11   C     C_3   0.292908 0.377602 0.070198 0.083826
C12   C     C_3   0.957558 0.608630 0.447347 -0.178968
C13   C     C_R   0.499701 0.739627 0.500134 0.898654
C14   C     C_R   0.742375 0.499199 0.500078 0.891986
C15   C     C_3   0.043057 0.394335 0.554161 -0.269432
C16   C     C_3   0.959770 0.404446 0.427399 0.055051
C17   C     C_3   0.877331 0.499361 0.501131 -0.060791
C18   C     C_3   0.958561 0.490407 0.628892 -0.202350
C19   C     C_3   0.040978 0.598476 0.573881 0.297447
C20   C     C_R   0.910672 0.293265 0.349419 0.134321
C21   C     C_R   0.910785 0.293062 0.207875 -0.096073
C22   C     C_R   0.867707 0.187820 0.136707 -0.107312
C23   C     C_3   0.041917 0.512708 0.372254 -0.185832
C24   C     C_R   0.825625 0.081883 0.206219 -0.094973
C25   C     C_R   0.825433 0.081497 0.347035 -0.127740
C26   C     C_R   0.866044 0.187352 0.418530 -0.170824
C27   C     C_3   0.122938 0.503292 0.499915 -0.052176
C28   C     C_R   0.457787 0.064192 0.615070 0.120183
C29   C     C_R   0.493425 0.128116 0.498671 -0.110361
C30   C     C_R   0.515547 0.063204 0.378258 -0.158596
C31   C     C_R   0.512583 0.934888 0.377583 -0.216571
C32   C     C_R   0.490996 0.871353 0.498605 -0.116449
H1    H     H_    0.609617 0.888997 0.753789 0.208184
H2    H     H_    0.918721 0.696168 0.405291 0.184527
H3    H     H_    0.079553 0.524681 0.268512 0.158129
H4    H     H_    0.544075 0.110639 0.286976 0.217549
H5    H     H_    0.535903 0.886349 0.284644 0.198400
H6    H     H_    0.444444 0.889225 0.827379 0.235300
H7    H     H_    0.943585 0.374002 0.152381 0.137137
H8    H     H_    0.867541 0.188189 0.027636 0.136616
H9    H     H_    0.792923 0.000225 0.151069 0.157108
H10   H     H_    0.793116 0.999374 0.400879 0.151143
H11   H     H_    0.864332 0.186103 0.527643 0.129729
H12   H     H_    0.446697 0.112038 0.828170 0.237666
H13   H     H_    0.611492 0.112741 0.754049 0.206330
H14   H     H_    0.688746 0.565577 0.871085 0.181051
H15   H     H_    0.199943 0.421518 0.876847 0.194131
H16   H     H_    0.328025 0.301993 0.862658 0.228324
H17   H     H_    0.200995 0.404862 0.117053 0.127242
H18   H     H_    0.082721 0.307506 0.597126 0.160902
H19   H     H_    0.921408 0.481865 0.733461 0.170321
N1    N     N_R   0.499140 0.499140 0.142800 -0.112219
N2    N     N_R   0.499140 0.499180 0.857150 -0.118082
O1    O     O_R   0.500020 0.316790 0.614690 -0.629806
O2    O     O_R   0.500000 0.316760 0.385350 -0.576745
O3    O     O_R   0.313960 0.499990 0.614650 -0.600738
O4    O     O_R   0.313940 0.499950 0.385310 -0.623530
O5    O     O_R   0.500000 0.683240 0.614650 -0.609840
O6    O     O_R   0.499980 0.683210 0.385310 -0.604629
O7    O     O_R   0.686060 0.500050 0.614690 -0.644599
O8    O     O_R   0.686040 0.500010 0.385350 -0.569939
Zn1   Zn    Zn3+2 0.500010 0.500020 0.653130 0.964515
Zn2   Zn    Zn3+2 0.499990 0.499980 0.346870 1.019138

loop_
_geom_bond_atom_site_label_1
_geom_bond_atom_site_label_2
_ccdc_geom_bond_type
C1    O1    A    
C14   O7    A    
C16   C20   S    
C6    C11   S    
O7    Zn1   S    
C8    H14   S    
C22   C24   A    
C15   C18   S    
C21   H7    S    
Br3   C19   S    
C28   C29   A    
C26   H11   S    
C20   C21   A    
C23   H3    S    
C29   C30   A    
C22   H8    S    
C5    H13   S    
C30   C31   A    
C5    H12   S    
O4    Zn2   S    
C10   H15   S    
C14   O8    A    
C4    C27   S    
C30   H4    S    
C10   C11   S    
O3    Zn1   S    
C7    N1    A    
C20   C26   A    
C9    N2    A    
C13   O6    A    
C31   C32   A    
C6    N1    A    
C2    C3    S    
C2    C32   A    
C4    O3    A    
C25   C26   A    
C3    H1    S    
C23   C27   S    
O1    Zn1   S    
C13   C32   S    
C10   H16   S    
C18   H19   S    
Br2   C11   S    
C6    C9    A    
C31   H5    S    
C25   H10   S    
C7    C8    A    
O6    Zn2   S    
C15   C27   S    
C1    O2    A    
N2    Zn1   S    
O5    Zn1   S    
C4    O4    A    
C14   C17   S    
C21   C22   A    
C12   C17   S    
C15   C16   S    
C13   O5    A    
C1    C29   S    
C24   C25   A    
C16   C23   S    
C12   H2    S    
C12   C23   S    
C3    C5    S    
C19   C27   S    
C15   H18   S    
C9    C10   S    
C17   C18   S    
C18   C19   S    
C5    C28   S    
C24   H9    S    
O2    Zn2   S    
C12   C19   S    
C11   H17   S    
C8    N2    A    
C16   C17   S    
Br1   C7    S    
N1    Zn2   S    
C2    C28   A    
C3    H6    S    
O8    Zn2   S    
