data_mof_unit_57814.cif
_audit_creation_date              2012-12-10T20:53:11-0500
_audit_creation_method            fapswitch 2.2
_symmetry_space_group_name_H-M    P1
_symmetry_Int_Tables_number       1
_space_group_crystal_system       triclinic
_cell_length_a                    18.336545
_cell_length_b                    18.279278
_cell_length_c                    18.358479
_cell_angle_alpha                 60.023592
_cell_angle_beta                  60.083265
_cell_angle_gamma                 59.964499
_cell_volume                      4353.42852224

loop_
_atom_site_label
_atom_site_type_symbol
_atom_type_description
_atom_site_fract_x
_atom_site_fract_y
_atom_site_fract_z
_atom_type_partial_charge
C1    C     C_R   0.389921 0.107914 0.112435 0.788029
C2    C     C_R   0.339598 0.804760 0.811952 -0.150305
C3    C     C_R   0.984819 0.592873 0.964329 0.061215
C4    C     C_R   0.486397 0.092074 0.965232 0.038201
C5    C     C_R   0.513254 0.905895 0.037188 0.035406
C6    C     C_R   0.948593 0.943206 0.553350 -0.135745
C7    C     C_R   0.051370 0.056725 0.445994 -0.133340
C8    C     C_R   0.966404 0.553892 0.927881 -0.215922
C9    C     C_R   0.034871 0.446393 0.070359 -0.216782
C10   C     C_R   0.553475 0.947129 0.945026 -0.151068
C11   C     C_R   0.446935 0.050672 0.057616 -0.137677
C12   C     C_R   0.163607 0.062088 0.673066 -0.140272
C13   C     C_R   0.834107 0.932842 0.322062 -0.152997
C14   C     C_R   0.193421 0.556663 0.293184 -0.152831
C15   C     C_R   0.806585 0.443658 0.706428 -0.128474
C16   C     C_R   0.613655 0.284562 0.150225 -0.188967
C17   C     C_R   0.386553 0.715302 0.849627 -0.186410
C18   C     C_R   0.251427 0.062205 0.632485 -0.178478
C19   C     C_R   0.745439 0.935500 0.366548 -0.153777
C20   C     C_R   0.100135 0.583260 0.319400 0.134058
C21   C     C_R   0.610057 0.890654 0.889124 0.857762
C22   C     C_R   0.899873 0.416662 0.680781 0.109376
C23   C     C_R   0.589600 0.311261 0.076733 0.109978
C24   C     C_R   0.410391 0.688756 0.923216 0.109588
C25   C     C_R   0.317350 0.004675 0.583290 0.145544
C26   C     C_R   0.683803 0.993968 0.415784 0.119172
C27   C     C_R   0.055407 0.653991 0.258541 0.125406
C28   C     C_R   0.943657 0.346278 0.742792 0.109654
C29   C     C_R   0.614547 0.246379 0.039914 0.176933
C30   C     C_R   0.385333 0.753763 0.959924 0.174491
C31   C     C_R   0.295066 0.945622 0.576299 0.120408
C32   C     C_R   0.107911 0.112421 0.389797 0.781826
C33   C     C_R   0.711980 0.051529 0.418994 0.128442
C34   C     C_R   0.105432 0.695593 0.172146 -0.179833
C35   C     C_R   0.893238 0.306002 0.828991 -0.122410
C36   C     C_R   0.660879 0.156571 0.079289 -0.121408
C37   C     C_R   0.339083 0.843540 0.920367 -0.120186
C38   C     C_R   0.206699 0.945778 0.617581 -0.176013
C39   C     C_R   0.801320 0.048102 0.373507 -0.126624
C40   C     C_R   0.198112 0.667869 0.146773 -0.142461
C41   C     C_R   0.800611 0.334002 0.853762 -0.167273
C42   C     C_R   0.683992 0.131145 0.152525 -0.165875
C43   C     C_R   0.891978 0.887661 0.610138 0.784794
C44   C     C_R   0.316184 0.868818 0.847037 -0.168286
C45   C     C_R   0.141243 0.004101 0.665443 -0.115780
C46   C     C_R   0.862026 0.988935 0.325673 -0.139174
C47   C     C_R   0.994920 0.588799 0.468070 -0.248315
C48   C     C_R   0.005501 0.410865 0.532205 -0.259736
C49   C     C_R   0.591547 0.464128 0.985605 -0.280663
C50   C     C_R   0.408367 0.535955 0.014640 -0.280958
C51   C     C_R   0.465158 0.955856 0.590677 -0.259083
C52   C     C_R   0.534683 0.045877 0.409568 -0.271419
C53   C     C_R   0.944852 0.551837 0.555710 -0.050919
C54   C     C_R   0.102732 0.390148 0.116661 0.801621
C55   C     C_R   0.055422 0.447927 0.444469 -0.048527
C56   C     C_R   0.551901 0.555668 0.946246 -0.055005
C57   C     C_R   0.448051 0.444378 0.053872 -0.056153
C58   C     C_R   0.555064 0.948843 0.552570 -0.055079
C59   C     C_R   0.444943 0.052320 0.447552 -0.037549
C60   C     C_R   0.950793 0.461174 0.588804 -0.008068
C61   C     C_R   0.049569 0.538515 0.411440 0.023085
C62   C     C_R   0.458638 0.592455 0.961709 -0.015171
C63   C     C_R   0.541312 0.407596 0.038406 -0.015577
C64   C     C_R   0.590248 0.995038 0.460815 -0.013323
C65   C     C_R   0.897525 0.609940 0.882910 0.800832
C66   C     C_R   0.409758 0.006397 0.539350 0.028351
C67   C     C_R   0.110853 0.390620 0.389525 0.785425
C68   C     C_R   0.889193 0.609333 0.610502 0.782913
C69   C     C_R   0.390507 0.389709 0.110193 0.797352
C70   C     C_R   0.609484 0.610299 0.889831 0.795554
C71   C     C_R   0.389765 0.108864 0.390368 0.790939
C72   C     C_R   0.610267 0.891361 0.609645 0.800390
C73   C     C_R   0.188748 0.925319 0.445175 -0.156503
C74   C     C_R   0.811654 0.074258 0.545612 -0.163770
C75   C     C_R   0.018954 0.317562 0.073424 -0.117969
C76   C     C_R   0.242093 0.598696 0.207133 -0.123900
C77   C     C_R   0.984518 0.682192 0.922556 -0.119048
C78   C     C_R   0.472165 0.185475 0.929144 -0.128756
C79   C     C_R   0.525166 0.813175 0.072173 -0.135919
C80   C     C_R   0.232598 0.833653 0.469334 -0.226578
C81   C     C_R   0.767700 0.165885 0.520911 -0.218699
C82   C     C_R   0.016891 0.276583 0.028117 -0.206639
C83   C     C_R   0.988454 0.723350 0.966324 -0.204320
C84   C     C_R   0.511324 0.226670 0.839332 -0.172037
C85   C     C_R   0.489409 0.770768 0.162396 -0.196944
C86   C     C_R   0.184157 0.775834 0.522917 -0.117686
C87   C     C_R   0.757281 0.402529 0.792618 -0.126754
C88   C     C_R   0.815822 0.223850 0.472586 -0.117977
C89   C     C_R   0.016512 0.323034 0.940973 -0.140319
C90   C     C_R   0.988838 0.677707 0.053451 -0.135891
C91   C     C_R   0.564549 0.176914 0.782570 -0.180020
C92   C     C_R   0.443391 0.818218 0.220786 -0.106460
C93   C     C_R   0.090998 0.808199 0.552982 0.107979
C94   C     C_R   0.908840 0.191626 0.446864 0.107023
C95   C     C_R   0.008572 0.413658 0.901661 0.170879
C96   C     C_R   0.994672 0.587583 0.094468 0.165919
C97   C     C_R   0.579365 0.084942 0.814658 0.114311
C98   C     C_R   0.660715 0.195083 0.187694 -0.152898
C99   C     C_R   0.430125 0.909436 0.190048 0.115679
C100  C     C_R   0.043336 0.903691 0.527795 0.016987
C101  C     C_R   0.956617 0.096168 0.471214 0.017128
C102  C     C_R   0.996661 0.459365 0.953207 0.045462
C103  C     C_R   0.005443 0.541137 0.044196 0.043282
C104  C     C_R   0.540795 0.040375 0.907702 0.063406
C105  C     C_R   0.462076 0.956648 0.095763 0.028436
C106  C     C_R   0.094256 0.962270 0.472961 0.054642
C107  C     C_R   0.905840 0.037517 0.523522 0.050758
C108  C     C_R   0.017377 0.407305 0.033011 0.059696
H1    H     H_    0.780250 0.295386 0.454262 0.144634
H2    H     H_    0.337388 0.564172 0.024960 0.179661
H3    H     H_    0.438094 0.919845 0.660546 0.177567
H4    H     H_    0.561754 0.081625 0.339611 0.180442
H5    H     H_    0.230379 0.966916 0.404838 0.132925
H6    H     H_    0.770345 0.032560 0.581529 0.146125
H7    H     H_    0.019194 0.279036 0.141135 0.163049
H8    H     H_    0.983887 0.720114 0.854898 0.160341
H9    H     H_    0.430766 0.228344 0.969739 0.137679
H10   H     H_    0.562652 0.771632 0.030452 0.135427
H11   H     H_    0.304837 0.807195 0.446827 0.145943
H12   H     H_    0.219635 0.704281 0.541598 0.143980
H13   H     H_    0.695635 0.192137 0.539413 0.150215
H14   H     H_    0.019940 0.207285 0.059181 0.146519
H15   H     H_    0.986684 0.792280 0.934164 0.144955
H16   H     H_    0.500032 0.297846 0.813552 0.139646
H17   H     H_    0.499263 0.699985 0.187459 0.139829
H18   H     H_    0.235680 0.700291 0.080101 0.135122
H19   H     H_    0.762616 0.302265 0.920519 0.136073
H20   H     H_    0.720041 0.061723 0.182056 0.141646
H21   H     H_    0.280213 0.938222 0.817345 0.141938
H22   H     H_    0.073219 0.004029 0.697002 0.133610
H23   H     H_    0.982657 0.713203 0.089920 0.130067
H24   H     H_    0.930751 0.986925 0.290966 0.135760
H25   H     H_    0.313984 0.577620 0.187232 0.127752
H26   H     H_    0.685415 0.423871 0.812048 0.128787
H27   H     H_    0.678901 0.175243 0.244305 0.141573
H28   H     H_    0.321587 0.824493 0.755256 0.146591
H29   H     H_    0.112853 0.106969 0.710456 0.133612
H30   H     H_    0.881182 0.887484 0.284424 0.124781
H31   H     H_    0.228321 0.503175 0.339469 0.108857
H32   H     H_    0.772154 0.496799 0.659633 0.111840
H33   H     H_    0.595876 0.333352 0.178494 0.130983
H34   H     H_    0.024134 0.288014 0.903100 0.151081
H35   H     H_    0.404433 0.666413 0.821431 0.132272
H36   H     H_    0.267986 0.107590 0.638635 0.130692
H37   H     H_    0.724682 0.891726 0.362889 0.133872
H38   H     H_    0.072712 0.749823 0.124417 0.119668
H39   H     H_    0.925981 0.252350 0.876926 0.130758
H40   H     H_    0.679444 0.106229 0.052622 0.137382
H41   H     H_    0.320435 0.893977 0.946951 0.138382
H42   H     H_    0.188888 0.900275 0.613171 0.148808
H43   H     H_    0.823800 0.091935 0.374786 0.152056
H44   H     H_    0.012660 0.743491 0.577526 0.193945
H45   H     H_    0.418526 0.783263 0.291501 0.137635
H46   H     H_    0.012173 0.745177 0.671768 0.183443
H47   H     H_    0.989223 0.257825 0.333087 0.182002
H48   H     H_    0.985019 0.253168 0.432105 0.198324
H49   H     H_    0.035778 0.513992 0.780837 0.171538
H50   H     H_    0.973924 0.460889 0.793051 0.233321
H51   H     H_    0.027354 0.542673 0.203913 0.242573
H52   H     H_    0.965650 0.489136 0.216469 0.172708
H53   H     H_    0.607344 0.070416 0.700078 0.165352
H54   H     H_    0.697502 0.043683 0.724444 0.193112
H55   H     H_    0.325021 0.994222 0.256444 0.196557
H56   H     H_    0.594418 0.210127 0.712465 0.133658
H57   H     H_    0.429083 0.977166 0.251759 0.190684
H58   H     H_    0.931426 0.716683 0.328088 0.178606
H59   H     H_    0.938982 0.727511 0.229142 0.167083
H60   H     H_    0.059116 0.370269 0.693291 0.200448
H61   H     H_    0.068549 0.285455 0.671741 0.183357
H62   H     H_    0.558331 0.336843 0.940643 0.174027
H63   H     H_    0.653150 0.255067 0.912665 0.168654
H64   H     H_    0.441324 0.663469 0.059388 0.173741
H65   H     H_    0.346548 0.745404 0.087105 0.168837
H66   H     H_    0.362319 0.820292 0.569804 0.174377
H67   H     H_    0.992657 0.657339 0.443555 0.161047
H68   H     H_    0.345227 0.901475 0.474121 0.182830
H69   H     H_    0.589155 0.107717 0.502093 0.181461
H70   H     H_    0.644017 0.178602 0.419566 0.169439
H71   H     H_    0.007775 0.342319 0.556747 0.166004
H72   H     H_    0.662481 0.435970 0.975436 0.179715
N1    N     N_3   0.049727 0.740436 0.608028 -0.496434
N2    N     N_3   0.406672 0.731653 0.035614 -0.458868
N3    N     N_3   0.362453 0.885362 0.527921 -0.475771
N4    N     N_3   0.652350 0.114154 0.466698 -0.493685
N5    N     N_3   0.949809 0.259427 0.397705 -0.492898
N6    N     N_3   0.027005 0.452355 0.806839 -0.470187
N7    N     N_3   0.974889 0.550696 0.189509 -0.451273
N8    N     N_3   0.634194 0.038567 0.751320 -0.464050
N9    N     N_3   0.388298 0.948500 0.258167 -0.502373
N10   N     N_3   0.960014 0.681706 0.284208 -0.457830
N11   N     N_3   0.038667 0.315241 0.720296 -0.489886
N12   N     N_3   0.593070 0.268657 0.964252 -0.456671
O1    O     O_3   0.250000 0.250000 0.250000 -0.480201
O2    O     O_R   0.865800 0.694910 0.573470 -0.646027
O3    O     O_R   0.305090 0.426530 0.134200 -0.639766
O4    O     O_R   0.694910 0.573470 0.865800 -0.639771
O5    O     O_R   0.426530 0.134200 0.305090 -0.643607
O6    O     O_R   0.573470 0.865800 0.694910 -0.641023
O7    O     O_R   0.134190 0.426530 0.134200 -0.647079
O8    O     O_R   0.865810 0.573470 0.865800 -0.646738
O9    O     O_R   0.426530 0.134200 0.134190 -0.638178
O10   O     O_R   0.573470 0.865800 0.865810 -0.634835
O11   O     O_R   0.134200 0.134190 0.426530 -0.636626
O12   O     O_3   0.750000 0.750000 0.750000 -0.481906
O13   O     O_R   0.865800 0.865810 0.573470 -0.635305
O14   O     O_R   0.426530 0.305080 0.134210 -0.628683
O15   O     O_R   0.573470 0.694920 0.865790 -0.631385
O16   O     O_R   0.305080 0.134210 0.426530 -0.634947
O17   O     O_R   0.694920 0.865790 0.573470 -0.629991
O18   O     O_R   0.134210 0.426530 0.305080 -0.648868
O19   O     O_R   0.865790 0.573470 0.694920 -0.653955
O20   O     O_R   0.305080 0.134200 0.134200 -0.637768
O21   O     O_R   0.694920 0.865800 0.865800 -0.626701
O22   O     O_R   0.134200 0.134200 0.305080 -0.655081
O23   O     O_R   0.865800 0.865800 0.694920 -0.652135
O24   O     O_R   0.134200 0.305080 0.134200 -0.645103
O25   O     O_R   0.865800 0.694920 0.865800 -0.648037
O26   O     O_R   0.134200 0.305090 0.426530 -0.648688
Zn1   Zn    Zn3+2 0.206620 0.206630 0.380140 0.955461
Zn2   Zn    Zn3+2 0.793380 0.793370 0.619860 0.966381
Zn3   Zn    Zn3+2 0.206630 0.380140 0.206620 0.954915
Zn4   Zn    Zn3+2 0.793370 0.619860 0.793380 0.949984
Zn5   Zn    Zn3+2 0.380140 0.206620 0.206630 0.970712
Zn6   Zn    Zn3+2 0.619860 0.793380 0.793370 0.983149
Zn7   Zn    Zn3+2 0.206620 0.206620 0.206620 0.944808
Zn8   Zn    Zn3+2 0.793380 0.793380 0.793380 0.954209

loop_
_geom_bond_atom_site_label_1
_geom_bond_atom_site_label_2
_ccdc_geom_bond_type
C25   C31   A    
H68   N3    S    
C65   O25   A    
C79   H10   S    
O13   Zn2   S    
C101  C107  A    
C49   C63   A    
C39   H43   S    
C43   O13   A    
C41   H19   S    
C36   C42   A    
C1    C11   S    
C94   N5    S    
C50   H2    S    
C43   O23   A    
C90   H23   S    
C73   C106  A    
C5    C105  A    
H48   N5    S    
C9    C108  A    
C54   O24   A    
C29   C36   A    
C86   H12   S    
C69   O14   A    
C33   C39   A    
H60   N11   S    
O12   Zn2   S    
C34   C40   A    
C23   C29   A    
C86   C93   A    
H53   N8    S    
C42   C98   A    
C59   C66   A    
C22   C60   S    
C13   C46   A    
C23   C63   S    
C52   H4    S    
C3    C103  A    
C89   H34   S    
C74   H6    S    
H46   N1    S    
H62   N12   S    
C69   O3    A    
C73   H5    S    
C67   O18   A    
C88   H1    S    
H51   N7    S    
C20   C61   S    
C19   C26   A    
O22   Zn7   S    
C26   C64   S    
C38   C45   A    
C80   C86   A    
O21   Zn8   S    
C74   C107  A    
C93   N1    S    
C36   H40   S    
C15   C22   A    
H70   N4    S    
C28   C35   A    
C2    C44   A    
C11   C105  A    
H57   N9    S    
C6    C107  A    
C48   C60   A    
C92   H45   S    
O7    Zn3   S    
C27   N10   S    
C51   H3    S    
C5    C79   A    
C77   H8    S    
C95   C102  A    
C42   H20   S    
O25   Zn8   S    
C47   C53   A    
C49   H72   S    
C32   O22   A    
O16   Zn1   S    
O1    Zn3   S    
C80   H11   S    
C1    O9    A    
C45   H22   S    
C27   C34   A    
O18   Zn3   S    
C22   C28   A    
O12   Zn6   S    
C1    O20   A    
C2    C17   A    
C30   N2    S    
C96   N7    S    
C21   O21   A    
C18   C25   A    
C41   C87   A    
C14   C76   A    
H50   N6    S    
C38   H42   S    
C53   C68   S    
C85   C92   A    
O9    Zn5   S    
C71   O5    A    
C10   C21   S    
C58   C64   A    
C97   N8    S    
C99   C105  A    
C88   C94   A    
C29   N12   S    
C17   C24   A    
C13   C19   A    
C97   C104  A    
C14   C20   A    
C78   H9    S    
H49   N6    S    
C94   C101  A    
C3    C8    A    
C52   C64   A    
O3    Zn3   S    
O2    Zn2   S    
C70   O15   A    
O19   Zn4   S    
C98   H27   S    
C83   C90   A    
C2    H28   S    
C54   O7    A    
C40   C76   A    
C30   C37   A    
C81   H13   S    
H58   N10   S    
C51   C66   A    
C87   H26   S    
C89   C95   A    
O6    Zn6   S    
C4    C78   A    
C52   C59   A    
O10   Zn6   S    
C65   O8    A    
C26   C33   A    
C72   O17   A    
O1    Zn5   S    
O14   Zn5   S    
C9    C103  A    
C40   H18   S    
C33   N4    S    
C53   C60   A    
C7    C106  A    
H55   N9    S    
C51   C58   A    
C19   H37   S    
C91   C97   A    
C4    C11   A    
C102  C108  A    
C82   C89   A    
C93   C100  A    
C39   C46   A    
O20   Zn7   S    
C46   H24   S    
C71   O16   A    
C84   C91   A    
H65   N2    S    
C16   C23   A    
C56   C70   S    
C6    C43   S    
C58   C72   S    
H47   N5    S    
C50   C62   A    
C56   C62   A    
C91   H56   S    
C75   H7    S    
H61   N11   S    
C74   C81   A    
O12   Zn8   S    
C3    C77   A    
C28   N11   S    
C79   C85   A    
C57   C69   S    
C15   C87   A    
C15   H32   S    
C75   C108  A    
O1    Zn1   S    
H59   N10   S    
O15   Zn6   S    
C24   C62   S    
C7    C32   S    
C48   C55   A    
O12   Zn4   S    
C85   H17   S    
C50   C57   A    
C100  C106  A    
C21   O10   A    
C67   O26   A    
C25   C66   S    
C57   C63   A    
C37   H41   S    
C12   C45   A    
O5    Zn5   S    
H66   N3    S    
C47   C61   A    
C55   C67   S    
C76   H25   S    
C75   C82   A    
C90   C96   A    
C20   C27   A    
C84   H16   S    
H69   N4    S    
C99   N9    S    
O24   Zn7   S    
C31   C38   A    
O11   Zn1   S    
C17   H35   S    
O23   Zn8   S    
O8    Zn4   S    
C13   H30   S    
O17   Zn2   S    
C37   C44   A    
C10   C104  A    
C16   H33   S    
C44   H21   S    
O1    Zn7   S    
C5    C10   A    
C49   C56   A    
H54   N8    S    
C34   H38   S    
C16   C98   A    
O26   Zn1   S    
C32   O11   A    
C55   C61   A    
C18   H36   S    
C73   C80   A    
C6    C100  A    
H63   N12   S    
C4    C104  A    
C35   H39   S    
C31   N3    S    
C35   C41   A    
C24   C30   A    
C81   C88   A    
C47   H67   S    
C72   O6    A    
C78   C84   A    
C8    C65   S    
C14   H31   S    
C95   N6    S    
C70   O4    A    
C7    C101  A    
C96   C103  A    
C12   C18   A    
C77   C83   A    
C12   H29   S    
C68   O2    A    
C9    C54   S    
H52   N7    S    
C83   H15   S    
H44   N1    S    
C68   O19   A    
C8    C102  A    
C82   H14   S    
C48   H71   S    
O4    Zn4   S    
C92   C99   A    
C59   C71   S    
H64   N2    S    
