data_mof_unit_40558.cif
_audit_creation_date              2012-12-10T19:15:22-0500
_audit_creation_method            fapswitch 2.2
_symmetry_space_group_name_H-M    P1
_symmetry_Int_Tables_number       1
_space_group_crystal_system       triclinic
_cell_length_a                    10.65335
_cell_length_b                    9.685461
_cell_length_c                    23.438281
_cell_angle_alpha                 89.802868
_cell_angle_beta                  90.440773
_cell_angle_gamma                 89.760996
_cell_volume                      2418.31572651

loop_
_atom_site_label
_atom_site_type_symbol
_atom_type_description
_atom_site_fract_x
_atom_site_fract_y
_atom_site_fract_z
_atom_type_partial_charge
C1    C     C_R   0.257693 0.500003 0.500800 0.877579
C2    C     C_R   0.617363 0.524896 0.119088 0.512229
C3    C     C_R   0.563296 0.619667 0.241127 -0.075403
C4    C     C_R   0.497530 0.500353 0.389283 0.920775
C5    C     C_R   0.559268 0.612112 0.300065 -0.234822
C6    C     C_R   0.496615 0.502981 0.327065 -0.132272
C7    C     C_R   0.436661 0.399805 0.294013 -0.051727
C8    C     C_R   0.445848 0.406289 0.234685 -0.135594
C9    C     C_R   0.506795 0.516923 0.208387 0.275970
C10   C     C_R   0.445691 0.635729 0.757816 -0.066689
C11   C     C_R   0.445686 0.622588 0.698953 -0.249009
C12   C     C_R   0.272947 0.560980 0.971065 -0.150783
C13   C     C_R   0.496682 0.504179 0.673208 -0.120408
C14   C     C_R   0.546897 0.397560 0.707784 0.361907
C15   C     C_R   0.544485 0.410873 0.766803 -0.134091
C16   C     C_R   0.742285 0.499568 0.503952 0.892124
C17   C     C_R   0.495333 0.530035 0.791788 0.229032
C18   C     C_3   0.076835 0.594034 0.552285 -0.426563
C19   C     C_3   0.074437 0.350186 0.514360 -0.438438
C20   C     C_3   0.932327 0.609131 0.550014 -0.168640
C21   C     C_3   0.931556 0.349724 0.519653 -0.198512
C22   C     C_3   0.067929 0.551506 0.445576 -0.381380
C23   C     C_R   0.274789 0.559037 0.030445 -0.151008
C24   C     C_3   0.121683 0.499364 0.503129 0.119766
C25   C     C_3   0.878936 0.498885 0.506930 -0.001348
C26   C     C_3   0.924374 0.541072 0.446267 -0.449665
C27   C     C_3   0.383358 0.081986 0.472492 -0.235181
C28   C     C_3   0.383792 0.919296 0.472061 -0.249570
C29   C     C_3   0.606737 0.081029 0.465927 -0.241116
C30   C     C_3   0.607715 0.918376 0.466581 -0.233719
C31   C     C_3   0.508253 0.080274 0.557340 -0.194130
C32   C     C_3   0.507512 0.918057 0.557448 -0.219821
C33   C     C_R   0.499896 0.500075 0.610840 0.983701
C34   C     C_R   0.389309 0.549358 0.060262 -0.015129
C35   C     C_R   0.610526 0.543430 0.880347 0.519483
C36   C     C_R   0.385996 0.550617 0.880980 0.518289
C37   C     C_R   0.385659 0.554553 0.940544 -0.019204
C38   C     C_R   0.501190 0.548525 0.970120 -0.020531
C39   C     C_R   0.614849 0.543967 0.939900 -0.019833
C40   C     C_2   0.873541 0.613505 0.609066 0.959492
C41   C     C_2   0.892595 0.286733 0.576171 0.946902
C42   C     C_2   0.356680 0.290538 0.318942 0.904842
C43   C     C_R   0.502975 0.544786 0.030055 -0.020047
C44   C     C_R   0.618313 0.534508 0.059605 -0.015805
C45   C     C_R   0.731194 0.532033 0.029111 -0.152294
C46   C     C_R   0.729500 0.537398 0.969749 -0.149613
C47   C     C_R   0.393280 0.542703 0.119754 0.512209
Cl1   Cl    Cl    0.621556 0.250393 0.680343 -0.623999
H1    H     H_    0.183069 0.566357 0.949225 0.194951
H2    H     H_    0.095905 0.660761 0.438257 0.174963
H3    H     H_    0.105496 0.489077 0.409714 0.212848
H4    H     H_    0.883393 0.642298 0.432962 0.180014
H5    H     H_    0.893199 0.463623 0.414167 0.184351
H6    H     H_    0.372899 0.121349 0.428163 0.189599
H7    H     H_    0.374676 0.881492 0.427457 0.160168
H8    H     H_    0.186266 0.563108 0.052821 0.194434
H9    H     H_    0.299893 0.119094 0.496238 0.151372
H10   H     H_    0.299894 0.881290 0.495164 0.151665
H11   H     H_    0.602100 0.118927 0.421098 0.156367
H12   H     H_    0.406275 0.705927 0.673493 0.170713
H13   H     H_    0.605793 0.878990 0.422063 0.150755
H14   H     H_    0.595577 0.116403 0.578080 0.253768
H15   H     H_    0.593752 0.878500 0.579155 0.201051
H16   H     H_    0.429003 0.119461 0.583431 0.167465
H17   H     H_    0.426685 0.880645 0.582903 0.147901
H18   H     H_    0.696769 0.119258 0.483820 0.185823
H19   H     H_    0.697351 0.881194 0.485940 0.160750
H20   H     H_    0.820996 0.525010 0.050942 0.193965
H21   H     H_    0.818049 0.534164 0.947374 0.195512
H22   H     H_    0.609653 0.705889 0.220784 0.156627
H23   H     H_    0.583066 0.329489 0.793578 0.182429
H24   H     H_    0.605516 0.691928 0.324665 0.158572
H25   H     H_    0.400698 0.328827 0.208408 0.181234
H26   H     H_    0.407874 0.728325 0.777072 0.167008
H27   H     H_    0.897200 0.613658 0.694681 0.373559
H28   H     H_    0.913589 0.279402 0.661756 0.384995
H29   H     H_    0.297899 0.092993 0.315461 0.336628
H30   H     H_    0.119161 0.698657 0.548971 0.163993
H31   H     H_    0.101741 0.281853 0.478293 0.184850
H32   H     H_    0.110542 0.548245 0.593199 0.233433
H33   H     H_    0.120859 0.306915 0.553320 0.191696
H34   H     H_    0.911864 0.713007 0.531428 0.122779
H35   H     H_    0.895837 0.279856 0.485465 0.134077
N1    N     N_R   0.497283 0.543651 0.852354 -0.349846
N2    N     N_R   0.505928 0.528399 0.147698 -0.354032
N3    N     N_3   0.499750 0.138610 0.498760 -0.056939
N4    N     N_3   0.499750 0.861390 0.498760 -0.046409
O1    O     O_R   0.314910 0.616040 0.499990 -0.647098
O2    O     O_2   0.276186 0.550757 0.851854 -0.537932
O3    O     O_2   0.285620 0.550765 0.149596 -0.546261
O4    O     O_2   0.726515 0.510296 0.148156 -0.548447
O5    O     O_2   0.760602 0.631265 0.613701 -0.640747
O6    O     O_R   0.948217 0.607432 0.658426 -0.750986
O7    O     O_2   0.820867 0.188755 0.576466 -0.634313
O8    O     O_R   0.945326 0.332410 0.627442 -0.771221
O9    O     O_2   0.286866 0.317103 0.358630 -0.664797
O10   O     O_R   0.356995 0.158307 0.295190 -0.808429
O11   O     O_R   0.314910 0.383960 0.499990 -0.623186
O12   O     O_R   0.500080 0.616070 0.416130 -0.631193
O13   O     O_R   0.500080 0.383930 0.416130 -0.607379
O14   O     O_R   0.685320 0.616040 0.499970 -0.616242
O15   O     O_R   0.685320 0.383960 0.499970 -0.626283
O16   O     O_R   0.500150 0.616010 0.583820 -0.611803
O17   O     O_R   0.500150 0.383990 0.583820 -0.594476
O18   O     O_2   0.718390 0.541893 0.850491 -0.536448
Zn1   Zn    Zn3+2 0.500150 0.654960 0.499970 0.932561
Zn2   Zn    Zn3+2 0.500150 0.345040 0.499970 0.963631

loop_
_geom_bond_atom_site_label_1
_geom_bond_atom_site_label_2
_ccdc_geom_bond_type
C36   O2    S    
C20   H34   S    
C33   O17   A    
C10   H26   S    
N3    Zn2   S    
C40   O6    S    
C12   H1    S    
C27   H6    S    
C7    C8    A    
C41   O8    S    
C45   C46   A    
C12   C23   A    
C29   C30   S    
C3    C9    A    
C47   N2    A    
C36   C37   A    
C19   C21   S    
C5    H24   S    
H28   O8    S    
C38   C39   A    
C20   C40   S    
C20   C25   S    
C10   C17   A    
O14   Zn1   S    
C2    N2    A    
C7    C42   S    
C12   C37   A    
C46   H21   S    
C9    N2    S    
C29   H11   S    
C2    C44   A    
C8    C9    A    
H29   O10   S    
C18   C20   S    
C30   H19   S    
C22   H2    S    
C1    O1    A    
C31   N3    S    
C13   C14   A    
C31   H14   S    
C28   N4    S    
C28   H7    S    
C21   H35   S    
C23   H8    S    
C3    H22   S    
C4    C6    S    
C27   H9    S    
C42   O10   S    
C14   Cl1   S    
C25   C26   S    
C32   N4    S    
O11   Zn2   S    
C27   N3    S    
C35   C39   A    
C43   C44   A    
C13   C33   S    
C37   C38   A    
C35   O18   S    
C26   H4    S    
O1    Zn1   S    
C41   O7    D    
C18   H30   S    
C23   C34   A    
C45   H20   S    
O15   Zn2   S    
C40   O5    D    
C19   H31   S    
C29   N3    S    
C39   C46   A    
C21   C41   S    
C16   O15   A    
C4    O13   A    
C47   O3    S    
C18   C24   S    
C30   H13   S    
C11   H12   S    
C26   H5    S    
C44   C45   A    
H27   O6    S    
C16   C25   S    
C15   C17   A    
O12   Zn1   S    
C21   C25   S    
O13   Zn2   S    
C33   O16   A    
C31   H16   S    
C31   C32   S    
C34   C43   A    
C32   H15   S    
C3    C5    A    
C1    O11   A    
C35   N1    A    
C6    C7    A    
C28   H10   S    
C15   H23   S    
C42   O9    D    
C17   N1    S    
C19   C24   S    
C38   C43   A    
C11   C13   A    
C5    C6    A    
N4    Zn1   S    
C36   N1    A    
C8    H25   S    
O16   Zn1   S    
C22   C24   S    
C2    O4    S    
C10   C11   A    
C29   H18   S    
C16   O14   A    
C1    C24   S    
C18   H32   S    
C22   C26   S    
C4    O12   A    
C27   C28   S    
C14   C15   A    
C32   H17   S    
C34   C47   A    
C30   N4    S    
C19   H33   S    
O17   Zn2   S    
C22   H3    S    
