data_mof_unit_16994.cif
_audit_creation_date              2012-12-11T15:11:42-0500
_audit_creation_method            fapswitch 2.2
_symmetry_space_group_name_H-M    P1
_symmetry_Int_Tables_number       1
_space_group_crystal_system       triclinic
_cell_length_a                    20.153253
_cell_length_b                    7.099997
_cell_length_c                    13.488623
_cell_angle_alpha                 90.000594
_cell_angle_beta                  103.613596
_cell_angle_gamma                 89.999476
_cell_volume                      1875.83585746

loop_
_atom_site_label
_atom_site_type_symbol
_atom_type_description
_atom_site_fract_x
_atom_site_fract_y
_atom_site_fract_z
_atom_type_partial_charge
O1    O     O_R   0.449830 0.506740 0.599960 -0.535941
O2    O     O_R   0.550170 0.006740 0.400040 -0.535940
O3    O     O_R   0.588980 0.179860 0.596720 -0.546691
O4    O     O_R   0.411020 0.679860 0.403280 -0.546691
C1    C     C_R   0.616463 0.344201 0.619130 0.656045
C2    C     C_R   0.383536 0.844201 0.380871 0.656046
O5    O     O_R   0.452740 0.177340 0.612040 -0.539231
O6    O     O_R   0.547260 0.677340 0.387960 -0.539231
O7    O     O_R   0.412960 0.002070 0.415460 -0.540575
O8    O     O_R   0.587040 0.502070 0.584540 -0.540575
C3    C     C_R   0.436666 0.345724 0.638765 0.690609
C4    C     C_R   0.563334 0.845722 0.361234 0.690611
O9    O     O_3   0.487110 0.337570 0.435490 -0.373117
O10   O     O_3   0.512890 0.837570 0.564510 -0.373118
V1    V     V_3+5 0.502390 0.064650 0.511970 1.393544
V2    V     V_3+5 0.497610 0.564650 0.488030 1.393545
C5    C     C_R   0.608441 0.856600 0.106824 -0.162991
C6    C     C_R   0.391558 0.356727 0.893174 -0.162989
H1    H     H_    0.514889 0.852186 0.156694 0.099224
H2    H     H_    0.485111 0.352319 0.843304 0.099223
H3    H     H_    0.691296 0.860375 0.980545 0.117165
H4    H     H_    0.308704 0.360557 0.019453 0.117158
H5    H     H_    0.582006 0.857391 0.026928 0.111611
H6    H     H_    0.417994 0.357579 0.973070 0.111611
C7    C     C_R   0.602984 0.853242 0.283615 -0.027312
C8    C     C_R   0.397016 0.353253 0.716384 -0.027310
C9    C     C_R   0.931971 0.857987 0.318572 -0.169771
C10   C     C_R   0.068029 0.357901 0.681429 -0.169774
C11   C     C_R   0.896666 0.853501 0.395393 -0.122589
C12   C     C_R   0.103333 0.353379 0.604608 -0.122589
C13   C     C_R   0.825530 0.852348 0.371385 -0.164170
C14   C     C_R   0.174469 0.352259 0.628616 -0.164170
C15   C     C_R   0.787514 0.855423 0.268560 0.077762
C16   C     C_R   0.212486 0.355403 0.731441 0.077762
C17   C     C_R   0.824155 0.858385 0.190088 0.072865
C18   C     C_R   0.175845 0.358407 0.809912 0.072863
C19   C     C_R   0.714535 0.855766 0.240991 0.072042
C20   C     C_R   0.285465 0.355775 0.759008 0.072041
C21   C     C_R   0.680091 0.857350 0.135973 0.146498
C22   C     C_R   0.319909 0.357437 0.864026 0.146496
C23   C     C_R   0.717220 0.859321 0.060697 -0.217986
C24   C     C_R   0.282780 0.359446 0.939301 -0.217979
C25   C     C_R   0.788040 0.860150 0.087140 -0.208184
C26   C     C_R   0.211960 0.360241 0.912859 -0.208179
C27   C     C_R   0.674269 0.854425 0.313889 -0.217659
C28   C     C_R   0.325731 0.354393 0.686111 -0.217658
C29   C     C_R   0.570131 0.853981 0.180305 -0.177186
C30   C     C_R   0.429869 0.354075 0.819694 -0.177188
C31   C     C_R   0.896488 0.860213 0.216300 -0.073663
C32   C     C_R   0.103512 0.360201 0.783700 -0.073661
H7    H     H_    0.696385 0.853189 0.394801 0.087422
H8    H     H_    0.303614 0.353099 0.605199 0.087421
H9    H     H_    0.987302 0.859833 0.338899 0.096986
H10   H     H_    0.012698 0.359716 0.661102 0.096986
H11   H     H_    0.802103 0.848903 0.435312 0.101625
H12   H     H_    0.197896 0.348781 0.564689 0.101626
H13   H     H_    0.924671 0.851378 0.474449 0.116700
H14   H     H_    0.075328 0.351201 0.525553 0.116700
H15   H     H_    0.814325 0.861932 0.025804 0.110463
H16   H     H_    0.185675 0.362053 0.974195 0.110459
C33   C     C_3   0.214386 0.652415 0.204949 -0.316287
C34   C     C_3   0.785604 0.152420 0.795085 -0.316292
H17   H     H_    0.179274 0.566441 0.239128 0.137949
H18   H     H_    0.820711 0.066401 0.760920 0.137955
H19   H     H_    0.215914 0.586875 0.130560 0.136241
H20   H     H_    0.784071 0.086930 0.869484 0.136245
C35   C     C_3   0.286618 0.647650 0.276079 -0.310420
C36   C     C_3   0.713371 0.147654 0.723954 -0.310424
H21   H     H_    0.322251 0.578825 0.235465 0.134060
H22   H     H_    0.677735 0.078875 0.764576 0.134056
H23   H     H_    0.285554 0.559637 0.344014 0.134183
H24   H     H_    0.714433 0.059598 0.656031 0.134189
H25   H     H_    0.151912 0.863901 0.329683 0.121728
H26   H     H_    0.848088 0.363787 0.670319 0.121730
H27   H     H_    0.259550 0.858043 0.435267 0.128345
H28   H     H_    0.740450 0.357935 0.564735 0.128343
C37   C     C_3   0.187643 0.943857 0.293840 -0.325840
C38   C     C_3   0.812361 0.443790 0.706149 -0.325842
C39   C     C_3   0.238906 0.971540 0.141457 -0.311378
C40   C     C_3   0.761097 0.471603 0.858528 -0.311386
C41   C     C_3   0.187526 0.857865 0.187861 0.117470
C42   C     C_3   0.812472 0.357866 0.812142 0.117478
H29   H     H_    0.221861 0.120577 0.129135 0.138178
H30   H     H_    0.778149 0.620639 0.870825 0.138176
H31   H     H_    0.240440 0.912416 0.065617 0.136571
H32   H     H_    0.759561 0.412531 0.934378 0.136574
C43   C     C_3   0.312398 0.849855 0.310392 0.118312
C44   C     C_3   0.687601 0.349855 0.689611 0.118315
C45   C     C_3   0.260480 0.939646 0.365166 -0.317645
C46   C     C_3   0.739524 0.439581 0.634824 -0.317637
C47   C     C_3   0.311739 0.966592 0.212862 -0.330117
C48   C     C_3   0.688264 0.466652 0.787124 -0.330120
H33   H     H_    0.348087 0.904306 0.171370 0.123182
H34   H     H_    0.651914 0.404411 0.828625 0.123183
H35   H     H_    0.329038 0.113132 0.234039 0.139316
H36   H     H_    0.670972 0.613189 0.765925 0.139319
H37   H     H_    0.169198 0.092034 0.284774 0.138818
H38   H     H_    0.830813 0.591962 0.715194 0.138810
H39   H     H_    0.276535 0.085774 0.389511 0.133967
H40   H     H_    0.723475 0.585705 0.610458 0.133963
O11   O     O_R   0.912980 0.203550 0.915410 -0.540481
O12   O     O_R   0.087020 0.703550 0.084590 -0.540482
O13   O     O_R   0.047270 0.535570 0.887960 -0.538431
O14   O     O_R   0.952730 0.035570 0.112040 -0.538431
C49   C     C_R   0.063882 0.368203 0.861729 0.688225
C50   C     C_R   0.936117 0.868206 0.138271 0.688223
O15   O     O_R   0.911030 0.532970 0.903270 -0.546169
O16   O     O_R   0.088970 0.032970 0.096730 -0.546168
O17   O     O_R   0.949820 0.708150 0.099970 -0.536134
O18   O     O_R   0.050180 0.208150 0.900030 -0.536133
C51   C     C_R   0.883699 0.364798 0.882109 0.650212
C52   C     C_R   0.116300 0.864797 0.117892 0.650213
O19   O     O_3   0.012900 0.375230 0.064480 -0.372869
O20   O     O_3   0.987100 0.875230 0.935520 -0.372868
V3    V     V_3+5 0.997610 0.648190 0.988040 1.395518
V4    V     V_3+5 0.002390 0.148190 0.011960 1.395522

loop_
_geom_bond_atom_site_label_1
_geom_bond_atom_site_label_2
_ccdc_geom_bond_type
C39   H29   S    
C49   O18   A    
C40   C48   S    
C43   C47   S    
C9    C11   A    
O12   C52   A    
O1    C3    A    
C40   H30   S    
O2    C4    A    
C2    O7    A    
O14   C50   A    
O20   V3    S    
O3    V1    S    
C21   C23   A    
C38   C46   S    
O5    C3    A    
C37   C45   S    
C5    H5    S    
C45   H39   S    
C6    H6    S    
O18   V4    S    
H1    C29   S    
C27   H7    S    
C28   H8    S    
O17   V3    S    
C48   H36   S    
C5    C21   A    
C33   H17   S    
C33   C35   S    
C6    C22   A    
O12   V3    S    
O14   V4    S    
C1    C44   S    
C10   C32   A    
C44   C48   S    
C17   C31   A    
C32   C49   S    
C40   H32   S    
C13   C15   A    
C37   H37   S    
C12   C14   A    
C17   C25   A    
C7    C29   A    
C39   C47   S    
C8    C30   A    
O19   V4    S    
O5    V1    S    
C34   C42   S    
O6    V2    S    
C11   C13   A    
C23   C25   A    
C24   C26   A    
C46   H40   S    
C34   H20   S    
C40   C42   S    
C39   C41   S    
C10   H10   S    
C3    C8    S    
C15   C19   A    
C2    C43   S    
O16   C52   A    
C36   H24   S    
C35   H21   S    
C14   C16   A    
O4    V2    S    
O13   V3    S    
C38   H38   S    
C47   H33   S    
C38   C42   S    
C41   C52   S    
C37   C41   S    
O6    C4    A    
C48   H34   S    
O13   C49   A    
O1    V2    S    
O2    V1    S    
O15   V3    S    
H2    C30   S    
H3    C23   S    
O4    C2    A    
C11   H13   S    
C43   C45   S    
C36   C44   S    
C18   C26   A    
C19   C27   A    
C7    C27   A    
C39   H31   S    
C18   C32   A    
C16   C20   A    
O15   C51   A    
C5    C29   A    
C44   C46   S    
O3    C1    A    
C6    C30   A    
O20   V4    S    
C9    H9    S    
C31   C50   S    
C25   H15   S    
O11   C51   A    
C35   C43   S    
C34   C36   S    
C4    C7    S    
C42   C51   S    
O16   V4    S    
C10   C12   A    
C34   H18   S    
O7    V1    S    
C1    O8    A    
C19   C21   A    
O8    V2    S    
C20   C22   A    
H4    C24   S    
C26   H16   S    
C12   H14   S    
C22   C24   A    
C15   C17   A    
C16   C18   A    
C35   H23   S    
C20   C28   A    
H27   C45   S    
C47   H35   S    
C33   H19   S    
C36   H22   S    
H26   C38   S    
O9    V2    S    
O11   V4    S    
H25   C37   S    
O10   V1    S    
C33   C41   S    
C13   H11   S    
C8    C28   A    
C14   H12   S    
C9    C31   A    
H28   C46   S    
O19   V3    S    
C50   O17   A    
