data_mof_unit_37967.cif
_audit_creation_date              2012-12-10T19:00:43-0500
_audit_creation_method            fapswitch 2.2
_symmetry_space_group_name_H-M    P1
_symmetry_Int_Tables_number       1
_space_group_crystal_system       triclinic
_cell_length_a                    15.077496
_cell_length_b                    10.852094
_cell_length_c                    9.546503
_cell_angle_alpha                 90.809218
_cell_angle_beta                  90.148371
_cell_angle_gamma                 90.597857
_cell_volume                      1561.77510214

loop_
_atom_site_label
_atom_site_type_symbol
_atom_type_description
_atom_site_fract_x
_atom_site_fract_y
_atom_site_fract_z
_atom_type_partial_charge
C1    C     C_R   0.497731 0.262473 0.499035 0.837073
C2    C     C_R   0.906691 0.521361 0.373889 0.074948
C3    C     C_R   0.954042 0.445457 0.745903 -0.204360
C4    C     C_R   0.046435 0.446635 0.745765 -0.214100
C5    C     C_R   0.092951 0.472842 0.622610 0.123047
C6    C     C_R   0.046486 0.497661 0.497589 0.019884
C7    C     C_R   0.092921 0.523397 0.372533 0.089976
C8    C     C_R   0.045627 0.548676 0.248278 0.154216
C9    C     C_R   0.952623 0.546852 0.250274 -0.241752
C10   C     C_R   0.185272 0.474385 0.622601 -0.238895
C11   C     C_R   0.231758 0.499094 0.499187 -0.084672
C12   C     C_R   0.328630 0.499683 0.499816 0.803742
C13   C     C_R   0.185708 0.522913 0.374871 -0.231003
C14   C     C_R   0.479205 0.066272 0.622185 -0.006129
C15   C     C_R   0.487905 0.129667 0.497046 -0.048288
C16   C     C_R   0.483803 0.062617 0.370192 -0.205833
C17   C     C_R   0.484263 0.933982 0.371510 -0.199108
C18   C     C_R   0.489011 0.871245 0.499629 -0.048225
C19   C     C_R   0.479411 0.939383 0.623828 0.017056
C20   C     C_3   0.531336 0.938538 0.757245 -0.505364
C21   C     C_3   0.530766 0.078022 0.755208 0.497793
C22   C     C_R   0.573087 0.538866 0.075170 0.215581
C23   C     C_R   0.498291 0.737911 0.500534 0.796336
C24   C     C_R   0.431466 0.449788 0.073228 -0.077550
C25   C     C_R   0.431350 0.450057 0.924484 -0.074099
C26   C     C_R   0.573933 0.537341 0.927379 0.227693
C27   C     C_3   0.616017 0.663176 0.927840 -0.103866
C28   C     C_3   0.614794 0.663216 0.086509 -0.458083
C29   C     C_R   0.671349 0.498833 0.500003 0.827898
C30   C     C_R   0.814312 0.521061 0.375387 -0.219029
C31   C     C_R   0.768179 0.496629 0.499417 -0.075649
C32   C     C_R   0.814767 0.469687 0.622223 -0.230387
C33   C     C_R   0.907210 0.470393 0.622778 0.123940
C34   C     C_R   0.953492 0.496569 0.498039 0.059536
Cu1   Cu    Cu3+1 0.500000 0.499980 0.640670 0.962283
Cu2   Cu    Cu3+1 0.500000 0.500020 0.359330 0.946212
H1    H     H_    0.778448 0.540707 0.279963 0.147139
H2    H     H_    0.485304 0.884611 0.272249 0.153432
H3    H     H_    0.491443 0.901416 0.845114 0.140887
H4    H     H_    0.598657 0.899392 0.743073 0.230733
H5    H     H_    0.492957 0.121657 0.842194 0.060662
H6    H     H_    0.375335 0.410668 0.127784 0.140792
H7    H     H_    0.375137 0.411136 0.868279 0.133386
H8    H     H_    0.572707 0.732702 0.881640 0.177022
H9    H     H_    0.681450 0.660813 0.136134 0.197998
H10   H     H_    0.779165 0.447187 0.717035 0.159956
H11   H     H_    0.569506 0.733287 0.131563 0.187361
H12   H     H_    0.919237 0.425341 0.842252 0.146494
H13   H     H_    0.081585 0.426860 0.841873 0.156630
H14   H     H_    0.220875 0.455228 0.718582 0.148567
H15   H     H_    0.222611 0.541767 0.280249 0.177992
H16   H     H_    0.915981 0.566118 0.155309 0.141718
H17   H     H_    0.484999 0.108819 0.270373 0.162334
N1    N     N_R   0.500570 0.500930 0.147930 -0.184874
N2    N     N_R   0.500570 0.500890 0.852020 -0.194295
O1    O     O_R   0.500000 0.319640 0.618810 -0.557243
O2    O     O_R   0.500010 0.319680 0.381230 -0.591498
O3    O     O_R   0.370250 0.499950 0.618800 -0.595611
O4    O     O_R   0.370260 0.499990 0.381220 -0.595887
O5    O     O_R   0.499990 0.680320 0.618770 -0.583403
O6    O     O_R   0.500000 0.680360 0.381190 -0.590727
O7    O     O_R   0.629740 0.500010 0.618780 -0.583384
O8    O     O_R   0.629750 0.500050 0.381200 -0.582750
F1    F     F_    0.614650 0.127908 0.734981 -0.636964
N3    N     N_3   0.706511 0.665864 0.872791 -0.562603
H18   H     H_    0.703077 0.669075 0.763682 0.244141
H19   H     H_    0.739863 0.585608 0.900192 0.216906
N4    N     N_3   0.091995 0.576212 0.120806 -0.612758
H20   H     H_    0.121759 0.663053 0.134080 0.216922
H21   H     H_    0.047360 0.583853 0.037450 0.220102

loop_
_geom_bond_atom_site_label_1
_geom_bond_atom_site_label_2
_ccdc_geom_bond_type
C11   C12   S    
C29   O8    A    
C28   H11   S    
C6    C7    A    
C1    C15   S    
C1    O2    A    
Cu2   O8    S    
C24   H6    S    
C19   C20   S    
C14   C15   A    
C7    C13   A    
C4    H13   S    
C2    C30   A    
Cu2   O4    S    
C12   O3    A    
C32   C33   A    
C25   H7    S    
C17   C18   A    
C24   C25   A    
C5    C10   A    
C22   N1    A    
C22   C28   S    
C26   N2    A    
C29   C31   S    
C4    C5    A    
C11   C13   A    
C2    C34   A    
C26   C27   S    
C23   O5    A    
C9    H16   S    
Cu1   O3    S    
C21   H5    S    
C5    C6    A    
C14   C19   A    
C14   C21   S    
C27   N3    S    
C12   O4    A    
C1    O1    A    
C33   C34   A    
C8    N4    S    
Cu1   O7    S    
C17   H2    S    
N3    H18   S    
Cu2   O6    S    
C22   C26   A    
C30   C31   A    
C20   H4    S    
C31   C32   A    
C28   H9    S    
C7    C8    A    
C15   C16   A    
C3    C33   A    
C24   N1    A    
C18   C23   S    
Cu1   O5    S    
C6    C34   A    
C3    H12   S    
C23   O6    A    
Cu2   N1    S    
C20   C21   S    
C30   H1    S    
N4    H21   S    
Cu2   O2    S    
C10   C11   A    
C27   C28   S    
C20   H3    S    
C29   O7    A    
C18   C19   A    
C21   F1    S    
N3    H19   S    
Cu1   O1    S    
C13   H15   S    
C2    C9    A    
C32   H10   S    
C27   H8    S    
N4    H20   S    
Cu1   N2    S    
C3    C4    A    
C25   N2    A    
C16   C17   A    
C8    C9    A    
C16   H17   S    
Cu1   Cu2   S    
C10   H14   S    
