data_mof_unit_21590.cif
_audit_creation_date              2012-12-11T14:49:41-0500
_audit_creation_method            fapswitch 2.2
_symmetry_space_group_name_H-M    P1
_symmetry_Int_Tables_number       1
_space_group_crystal_system       triclinic
_cell_length_a                    17.019864
_cell_length_b                    7.132904
_cell_length_c                    16.833859
_cell_angle_alpha                 90.000076
_cell_angle_beta                  100.207579
_cell_angle_gamma                 89.999974
_cell_volume                      2011.30175193

loop_
_atom_site_label
_atom_site_type_symbol
_atom_type_description
_atom_site_fract_x
_atom_site_fract_y
_atom_site_fract_z
_atom_type_partial_charge
O1    O     O_R   0.579510 0.506290 0.439030 -0.546269
O2    O     O_R   0.420490 0.006290 0.560970 -0.546269
O3    O     O_R   0.412540 0.170090 0.405290 -0.501179
O4    O     O_R   0.587460 0.670090 0.594710 -0.501180
C1    C     C_R   0.386089 0.346168 0.381684 0.652664
C2    C     C_R   0.613911 0.846168 0.618316 0.652663
O5    O     O_R   0.578390 0.176230 0.429330 -0.530985
O6    O     O_R   0.421610 0.676230 0.570670 -0.530985
O7    O     O_R   0.587530 0.011250 0.585190 -0.530151
O8    O     O_R   0.412470 0.511250 0.414810 -0.530151
C3    C     C_R   0.604559 0.346097 0.414154 0.691063
C4    C     C_R   0.395441 0.846097 0.585846 0.691064
O9    O     O_3   0.502800 0.340940 0.551110 -0.335274
O10   O     O_3   0.497200 0.840940 0.448890 -0.335274
V1    V     V_3+5 0.499480 0.064020 0.490520 1.568925
V2    V     V_3+5 0.500520 0.564020 0.509480 1.568925
C5    C     C_R   0.168656 0.899112 0.863023 -0.087309
C6    C     C_R   0.831344 0.399112 0.136977 -0.087310
C7    C     C_R   0.331553 0.866596 0.635034 -0.104915
C8    C     C_R   0.668447 0.366595 0.364966 -0.104915
C9    C     C_R   0.216304 0.045369 0.661935 -0.002532
C10   C     C_R   0.783696 0.545369 0.338065 -0.002532
C11   C     C_R   0.273061 0.004251 0.613325 -0.143397
C12   C     C_R   0.726939 0.504251 0.386675 -0.143397
C13   C     C_R   0.330647 0.761687 0.705012 -0.197855
C14   C     C_R   0.669353 0.261687 0.294988 -0.197855
C15   C     C_R   0.276140 0.804646 0.757289 0.117221
C16   C     C_R   0.723860 0.304646 0.242711 0.117220
C17   C     C_R   0.222747 0.959605 0.739256 0.021775
C18   C     C_R   0.777252 0.459605 0.260744 0.021775
C19   C     C_R   0.177508 0.021073 0.798727 0.063279
C20   C     C_R   0.822491 0.521073 0.201273 0.063279
C21   C     C_R   0.218070 0.739981 0.876432 -0.173574
C22   C     C_R   0.781929 0.239982 0.123568 -0.173574
C23   C     C_R   0.274032 0.696787 0.827392 0.127065
C24   C     C_R   0.725968 0.196787 0.172607 0.127065
H1    H     H_    0.214185 0.649548 0.927362 0.139235
H2    H     H_    0.785815 0.149548 0.072638 0.139235
H3    H     H_    0.270303 0.076395 0.556294 0.146691
H4    H     H_    0.729697 0.576395 0.443707 0.146691
H5    H     H_    0.374709 0.651908 0.719588 0.160856
H6    H     H_    0.625290 0.151908 0.280412 0.160856
C25   C     C_3   0.764326 0.724275 0.821290 -0.270476
C26   C     C_3   0.235673 0.224275 0.178710 -0.270476
H7    H     H_    0.804781 0.614190 0.807432 0.115998
H8    H     H_    0.195218 0.114190 0.192568 0.115999
C27   C     C_3   0.686380 0.709017 0.754759 -0.236737
C28   C     C_3   0.313620 0.209017 0.245241 -0.236737
H9    H     H_    0.691462 0.576513 0.724493 0.204081
H10   H     H_    0.308538 0.076512 0.275507 0.204081
C29   C     C_3   0.842145 0.919187 0.728444 0.131201
C30   C     C_3   0.157855 0.419187 0.271556 0.131201
C31   C     C_3   0.743021 0.064764 0.817500 -0.120316
C32   C     C_3   0.256979 0.564764 0.182500 -0.120316
C33   C     C_3   0.810598 0.914379 0.814031 -0.018317
C34   C     C_3   0.189402 0.414379 0.185969 -0.018317
H11   H     H_    0.711388 0.020039 0.866076 0.231223
H12   H     H_    0.288612 0.520039 0.133924 0.231223
C35   C     C_3   0.685187 0.869322 0.689652 -0.130594
C36   C     C_3   0.314813 0.369322 0.310348 -0.130593
C37   C     C_3   0.769152 0.856524 0.656303 0.229062
C38   C     C_3   0.230848 0.356524 0.343697 0.229062
C39   C     C_3   0.678128 0.063952 0.737463 -0.094973
C40   C     C_3   0.321872 0.563952 0.262537 -0.094974
O11   O     O_R   0.087500 0.266000 0.085220 -0.561400
O12   O     O_R   0.912500 0.766000 0.914780 -0.561400
O13   O     O_R   0.921600 0.589950 0.070670 -0.529074
O14   O     O_R   0.078400 0.089950 0.929330 -0.529074
C41   C     C_R   0.894716 0.420793 0.085794 0.690657
C42   C     C_R   0.105283 0.920793 0.914206 0.690658
O15   O     O_R   0.087460 0.596020 0.094710 -0.506459
O16   O     O_R   0.912540 0.096020 0.905290 -0.506460
O17   O     O_R   0.079520 0.760970 0.939020 -0.547494
O18   O     O_R   0.920480 0.260970 0.060980 -0.547494
C43   C     C_R   0.118078 0.427895 0.114845 0.754617
C44   C     C_R   0.881922 0.927895 0.885155 0.754617
O19   O     O_3   0.997180 0.425140 0.948910 -0.367591
O20   O     O_3   0.002820 0.925140 0.051090 -0.367591
V3    V     V_3+5 0.000520 0.702080 0.009480 1.440670
V4    V     V_3+5 0.999480 0.202080 0.990520 1.440670
C45   C     C_3   0.149441 0.222146 0.801483 -0.722825
H13   H     H_    0.169207 0.280498 0.862921 0.225223
H14   H     H_    0.176721 0.316213 0.761650 0.198916
H15   H     H_    0.083537 0.229885 0.785417 0.246094
C46   C     C_3   0.850559 0.722146 0.198517 -0.722826
H16   H     H_    0.830793 0.780498 0.137079 0.225222
H17   H     H_    0.823279 0.816213 0.238351 0.198916
H18   H     H_    0.916462 0.729885 0.214584 0.246094
C47   C     C_3   0.917672 0.790289 0.731946 -0.716685
H19   H     H_    0.909762 0.645418 0.752372 0.207618
H20   H     H_    0.936577 0.784842 0.672113 0.207156
H21   H     H_    0.969972 0.845047 0.774658 0.208388
C48   C     C_3   0.082328 0.290289 0.268054 -0.716685
H22   H     H_    0.090238 0.145418 0.247628 0.207619
H23   H     H_    0.063423 0.284843 0.327887 0.207156
H24   H     H_    0.030028 0.345048 0.225342 0.208388
C49   C     C_3   0.782477 0.651616 0.626902 -0.723995
H25   H     H_    0.728217 0.594372 0.588537 0.212173
H26   H     H_    0.830374 0.644872 0.589868 0.234151
H27   H     H_    0.801082 0.553294 0.676672 0.181666
C50   C     C_3   0.217523 0.151616 0.373097 -0.723994
H28   H     H_    0.271783 0.094372 0.411462 0.212173
H29   H     H_    0.169625 0.144873 0.410132 0.234151
H30   H     H_    0.198918 0.053294 0.323327 0.181666
C51   C     C_3   0.769440 0.259225 0.849636 -0.764172
H31   H     H_    0.790693 0.254748 0.915922 0.203524
H32   H     H_    0.816794 0.315739 0.819712 0.233054
H33   H     H_    0.717214 0.353765 0.839881 0.242015
C52   C     C_3   0.230560 0.759224 0.150364 -0.764172
H34   H     H_    0.209307 0.754747 0.084078 0.203524
H35   H     H_    0.183206 0.815739 0.180288 0.233054
H36   H     H_    0.282786 0.853764 0.160119 0.242015
C53   C     C_2   0.594419 0.089037 0.758902 0.472220
H37   H     H_    0.542062 0.032854 0.720089 0.027081
O21   O     O_2   0.584032 0.178374 0.818107 -0.501320
C54   C     C_2   0.405580 0.589036 0.241098 0.472220
H38   H     H_    0.457938 0.532853 0.279911 0.027081
O22   O     O_2   0.415968 0.678374 0.181893 -0.501320
C55   C     C_2   0.690591 0.233216 0.687142 0.402198
H39   H     H_    0.749086 0.284013 0.686250 0.000338
O23   O     O_2   0.635274 0.320351 0.648496 -0.496933
C56   C     C_2   0.309409 0.733216 0.312858 0.402198
H40   H     H_    0.250914 0.784012 0.313750 0.000338
O24   O     O_2   0.364726 0.820351 0.351504 -0.496932
C57   C     C_2   0.876770 0.112729 0.712944 0.300592
H41   H     H_    0.861858 0.185114 0.656073 0.067821
O25   O     O_2   0.929499 0.185262 0.761779 -0.542782
C58   C     C_2   0.123230 0.612730 0.287056 0.300591
H42   H     H_    0.138141 0.685114 0.343927 0.067822
O26   O     O_2   0.070501 0.685263 0.238221 -0.542782
C59   C     C_3   0.766197 0.967600 0.575062 -0.727854
H43   H     H_    0.723924 0.901777 0.524832 0.217239
H44   H     H_    0.747572 0.114839 0.574866 0.172231
H45   H     H_    0.825742 0.965530 0.556668 0.236462
C60   C     C_3   0.233803 0.467600 0.424938 -0.727854
H46   H     H_    0.276076 0.401777 0.475168 0.217239
H47   H     H_    0.252427 0.614839 0.425134 0.172230
H48   H     H_    0.174258 0.465531 0.443332 0.236462
C61   C     C_2   0.145246 0.156869 0.625499 0.341375
H49   H     H_    0.089495 0.142254 0.647649 0.085547
O27   O     O_2   0.147680 0.264003 0.569452 -0.546643
C62   C     C_2   0.854754 0.656869 0.374501 0.341375
H50   H     H_    0.910505 0.642253 0.352351 0.085547
O28   O     O_2   0.852320 0.764003 0.430548 -0.546643
C63   C     C_3   0.328481 0.530496 0.849638 -0.704422
H51   H     H_    0.391684 0.577422 0.860584 0.236254
H52   H     H_    0.317183 0.459809 0.905332 0.239053
H53   H     H_    0.319098 0.425597 0.800122 0.208499
C64   C     C_3   0.671519 0.030496 0.150362 -0.704422
H54   H     H_    0.680902 0.925597 0.199877 0.208499
H55   H     H_    0.608315 0.077422 0.139415 0.236254
H56   H     H_    0.682816 0.959810 0.094667 0.239053
C65   C     C_2   0.753385 0.676358 0.907827 0.330494
H57   H     H_    0.792750 0.574460 0.941944 0.079585
O29   O     O_2   0.704989 0.754352 0.942061 -0.549435
C66   C     C_2   0.246615 0.176357 0.092172 0.330495
H58   H     H_    0.207249 0.074459 0.058056 0.079584
O30   O     O_2   0.295011 0.254352 0.057939 -0.549435
C67   C     C_2   0.608549 0.686476 0.786443 0.407071
H59   H     H_    0.593149 0.778502 0.832347 0.117310
O31   O     O_2   0.561304 0.563031 0.760271 -0.493694
C68   C     C_2   0.391451 0.186476 0.213557 0.407070
H60   H     H_    0.406851 0.278501 0.167653 0.117311
O32   O     O_2   0.438696 0.063031 0.239729 -0.493694

loop_
_geom_bond_atom_site_label_1
_geom_bond_atom_site_label_2
_ccdc_geom_bond_type
O14   V4    S    
C60   H48   S    
O15   C43   A    
C50   H28   S    
C40   C54   S    
C15   C17   A    
C61   O27   D    
C31   C33   S    
O1    C3    A    
O16   C44   A    
C59   H45   S    
O2    C4    A    
C58   H42   S    
C45   H15   S    
C2    O7    A    
O15   V3    S    
C63   H51   S    
C30   C58   S    
C60   H46   S    
C27   H9    S    
C27   C67   S    
C46   H16   S    
C28   H10   S    
O5    C3    A    
O12   V3    S    
C51   H32   S    
C48   H22   S    
C32   C40   S    
C10   C12   A    
C66   H58   S    
C45   H13   S    
C53   H37   S    
C64   H55   S    
C21   C23   A    
O20   V4    S    
C24   C64   S    
O19   V4    S    
C28   C68   S    
C49   H25   S    
C61   H49   S    
C54   H38   S    
C36   C38   S    
C23   C63   S    
C52   H35   S    
C63   H52   S    
C8    C12   A    
C29   C37   S    
C25   C65   S    
C67   O31   D    
C47   H20   S    
C22   C24   A    
C38   C50   S    
C6    C41   S    
O5    V1    S    
C5    C42   S    
C48   H23   S    
C34   C43   S    
O18   V4    S    
C17   C19   A    
C5    C21   A    
C45   H14   S    
C26   H8    S    
C28   C36   S    
C68   O32   D    
C55   O23   D    
C51   H33   S    
C32   C34   S    
C3    C8    S    
C35   C37   S    
C62   H50   S    
C46   H17   S    
C30   C34   S    
C29   C57   S    
C30   C48   S    
O13   V3    S    
O4    C2    A    
C49   H26   S    
C52   H36   S    
C13   H5    S    
C31   H11   S    
O20   V3    S    
C15   C23   A    
C9    C17   A    
C21   H1    S    
C32   C52   S    
O13   C41   A    
C26   C66   S    
C38   C60   S    
O4    V2    S    
C7    C11   A    
C39   C55   S    
C26   C34   S    
C67   H59   S    
O6    C4    A    
O12   C44   A    
C10   C62   S    
C42   O17   A    
C59   H44   S    
O17   V3    S    
O19   V3    S    
C41   O18   A    
O1    V2    S    
C47   H21   S    
O2    V1    S    
C25   H7    S    
C33   C44   S    
C25   C33   S    
C48   H24   S    
C9    C11   A    
C57   H41   S    
C5    C19   A    
C62   O28   D    
C64   H56   S    
C65   O29   D    
C9    C61   S    
C56   O24   D    
C59   H43   S    
C47   H19   S    
C49   H27   S    
O3    V1    S    
C63   H53   S    
C14   H6    S    
C57   O25   D    
C68   H60   S    
C32   H12   S    
C46   H18   S    
C60   H47   S    
C10   C18   A    
C1    C36   S    
C22   H2    S    
C14   C16   A    
C2    C35   S    
C37   C49   S    
O3    C1    A    
C58   O26   D    
C55   H39   S    
C50   H30   S    
C51   H31   S    
C35   C39   S    
C19   C45   S    
C50   H29   S    
C36   C40   S    
C66   O30   D    
C56   H40   S    
C1    O8    A    
O16   V4    S    
C30   C38   S    
C64   H54   S    
C29   C47   S    
C18   C20   A    
C31   C39   S    
C8    C14   A    
C6    C22   A    
C40   C56   S    
C20   C46   S    
C4    C7    S    
C16   C18   A    
C12   H4    S    
C54   O22   D    
C29   C33   S    
O7    V1    S    
C7    C13   A    
C37   C59   S    
C27   C35   S    
C39   C53   S    
C31   C51   S    
C6    C20   A    
C16   C24   A    
O6    V2    S    
O9    V2    S    
O11   V4    S    
O14   C42   A    
O10   V1    S    
O8    V2    S    
C65   H57   S    
C52   H34   S    
C25   C27   S    
C11   H3    S    
O11   C43   A    
C26   C28   S    
C53   O21   D    
C13   C15   A    
