data_mof_unit_25700.cif
_audit_creation_date              2012-12-11T14:40:04-0500
_audit_creation_method            fapswitch 2.2
_symmetry_space_group_name_H-M    P1
_symmetry_Int_Tables_number       1
_space_group_crystal_system       triclinic
_cell_length_a                    19.522331
_cell_length_b                    11.034804
_cell_length_c                    19.434955
_cell_angle_alpha                 90.115117
_cell_angle_beta                  98.099187
_cell_angle_gamma                 90.152444
_cell_volume                      4144.99001084

loop_
_atom_site_label
_atom_site_type_symbol
_atom_type_description
_atom_site_fract_x
_atom_site_fract_y
_atom_site_fract_z
_atom_type_partial_charge
C1    C     C_R   0.706813 0.000309 0.367056 0.556352
C2    C     C_R   0.272837 0.947990 0.641086 0.536660
C3    C     C_R   0.227930 0.444052 0.357285 0.541816
C4    C     C_R   0.773849 0.449509 0.639652 0.539091
C5    C     C_3   0.732861 0.304664 0.477897 -0.062009
C6    C     C_3   0.245225 0.249622 0.502520 -0.101441
C7    C     C_3   0.199804 0.762137 0.501780 -0.122360
C8    C     C_3   0.748619 0.791394 0.490141 -0.146743
C9    C     C_3   0.752147 0.407887 0.430907 0.030570
C10   C     C_3   0.267868 0.343863 0.559211 0.022161
C11   C     C_3   0.230350 0.828075 0.442236 0.020412
C12   C     C_3   0.758147 0.858029 0.560714 0.027727
C13   C     C_3   0.712992 0.499986 0.469331 -0.109313
C14   C     C_3   0.324281 0.392976 0.518691 -0.103207
C15   C     C_3   0.210246 0.952283 0.467936 -0.086929
C16   C     C_3   0.798732 0.959750 0.533804 -0.103582
C17   C     C_3   0.782218 0.521808 0.519082 -0.148694
C18   C     C_3   0.270095 0.484837 0.484193 -0.167923
C19   C     C_3   0.282502 0.959314 0.512604 -0.150826
C20   C     C_3   0.730830 0.030492 0.512254 -0.181862
C21   C     C_3   0.820752 0.429989 0.478707 -0.122541
C22   C     C_3   0.213706 0.434746 0.525826 -0.121939
C23   C     C_3   0.302367 0.834936 0.487069 -0.106214
C24   C     C_3   0.689998 0.927316 0.540448 -0.099207
C25   C     C_3   0.801757 0.329015 0.526555 0.000262
C26   C     C_3   0.192010 0.341142 0.468615 0.008337
C27   C     C_3   0.272022 0.773651 0.547605 -0.025120
C28   C     C_3   0.681244 0.862552 0.469982 0.007057
C29   C     C_3   0.762016 0.420308 0.566132 0.046341
C30   C     C_3   0.247194 0.393344 0.426498 0.049987
C31   C     C_3   0.251664 0.898300 0.572357 0.049845
C32   C     C_3   0.721836 0.965312 0.440470 0.065271
C33   C     C_3   0.529144 0.271265 0.977195 -0.108678
C34   C     C_3   0.470945 0.270710 0.023224 -0.108634
C35   C     C_3   0.029152 0.771257 0.977198 -0.108887
C36   C     C_3   0.970952 0.770715 0.023226 -0.108367
C37   C     C_3   0.567795 0.171174 0.022069 -0.109873
C38   C     C_3   0.432289 0.170586 0.977861 -0.109555
C39   C     C_3   0.067795 0.671160 0.022073 -0.109984
C40   C     C_3   0.932290 0.670598 0.977865 -0.109743
C41   C     C_3   0.509060 0.170828 0.067306 0.054557
C42   C     C_3   0.491023 0.171362 0.932629 0.054820
C43   C     C_3   0.009061 0.670828 0.067309 0.054690
C44   C     C_3   0.991024 0.671360 0.932631 0.054609
C45   C     C_R   0.536116 0.180159 0.338322 0.533255
C46   C     C_R   0.464450 0.180137 0.662079 0.536176
C47   C     C_R   0.035669 0.680136 0.338017 0.537084
C48   C     C_R   0.964160 0.680152 0.661856 0.533640
C49   C     C_3   0.470984 0.070352 0.023096 -0.122610
C50   C     C_3   0.529082 0.070901 0.976335 -0.122930
C51   C     C_3   0.970978 0.570358 0.023100 -0.122522
C52   C     C_3   0.029076 0.570894 0.976338 -0.122473
C53   C     C_1   0.781960 0.474214 0.914888 -0.012676
C54   C     C_1   0.217693 0.474783 0.085026 -0.012126
C55   C     C_1   0.281953 0.974185 0.914884 -0.012388
C56   C     C_1   0.717688 0.974791 0.085027 -0.013237
C57   C     C_1   0.758302 0.437428 0.042079 -0.042869
C58   C     C_1   0.241645 0.438237 0.957870 -0.043713
C59   C     C_1   0.258297 0.937410 0.042078 -0.043475
C60   C     C_1   0.741641 0.938227 0.957874 -0.043341
C61   C     C_1   0.770905 0.458592 0.973576 -0.049178
C62   C     C_1   0.228832 0.459315 0.026335 -0.048846
C63   C     C_1   0.270898 0.958562 0.973572 -0.049165
C64   C     C_1   0.728827 0.959316 0.026336 -0.048544
C65   C     C_1   0.747990 0.410543 0.099683 -0.004521
C66   C     C_1   0.252085 0.411260 0.900284 -0.007793
C67   C     C_1   0.247990 0.910541 0.099685 -0.006615
C68   C     C_1   0.752083 0.911245 0.900290 -0.007283
C69   C     C_R   0.742069 0.370114 0.358904 0.526222
C70   C     C_R   0.275140 0.310924 0.632297 0.562134
C71   C     C_R   0.223632 0.805013 0.366953 0.566894
C72   C     C_R   0.773694 0.812926 0.631256 0.550328
C73   C     C_R   0.704426 0.997030 0.154456 0.559839
C74   C     C_R   0.295376 0.996616 0.845548 0.559159
C75   C     C_R   0.204429 0.497024 0.154454 0.559422
C76   C     C_R   0.795380 0.496630 0.845549 0.559268
C77   C     C_R   0.529770 0.178657 0.141128 0.540421
C78   C     C_R   0.470249 0.178970 0.858840 0.541391
C79   C     C_R   0.029770 0.678658 0.141129 0.539879
C80   C     C_R   0.970249 0.678969 0.858841 0.539879
C81   C     C_R   0.736600 0.362116 0.165293 0.536514
C82   C     C_R   0.263408 0.362505 0.834665 0.549096
C83   C     C_R   0.236605 0.862133 0.165303 0.548547
C84   C     C_R   0.763410 0.862492 0.834671 0.549312
C85   C     C_1   0.486418 0.172007 0.595269 -0.018541
C86   C     C_1   0.515845 0.172162 0.405867 -0.000690
C87   C     C_1   0.985168 0.672052 0.594602 -0.022794
C88   C     C_1   0.014211 0.672183 0.405065 -0.012553
C89   C     C_1   0.506104 0.168367 0.465488 -0.009454
C90   C     C_1   0.497178 0.168304 0.535962 -0.030878
C91   C     C_1   0.003912 0.668457 0.464519 -0.058502
C92   C     C_1   0.995252 0.668375 0.535072 -0.062228
C93   C     C_3   0.695731 0.398610 0.517121 0.088010
C94   C     C_3   0.299565 0.302406 0.460653 0.086035
C95   C     C_3   0.181469 0.888306 0.527797 0.099185
C96   C     C_3   0.788585 0.896054 0.463531 0.100804
Cr1   Cr    Cr6+3 0.765830 0.160660 0.268180 1.029105
Cr2   Cr    Cr6+3 0.234170 0.160660 0.731820 1.006515
Cr3   Cr    Cr6+3 0.265830 0.660660 0.268180 1.012119
Cr4   Cr    Cr6+3 0.734170 0.660660 0.731820 1.006904
Cr5   Cr    Cr6+3 0.612110 0.009150 0.248770 1.005410
Cr6   Cr    Cr6+3 0.387890 0.009150 0.751230 1.002058
Cr7   Cr    Cr6+3 0.112110 0.509150 0.248770 1.000063
Cr8   Cr    Cr6+3 0.887890 0.509150 0.751230 1.006315
Cr9   Cr    Cr6+3 0.615930 0.324050 0.248450 1.017309
Cr10  Cr    Cr6+3 0.384070 0.324050 0.751550 0.993046
Cr11  Cr    Cr6+3 0.115930 0.824050 0.248450 1.018381
Cr12  Cr    Cr6+3 0.884070 0.824050 0.751550 1.010034
H1    H     H_    0.706497 0.226440 0.449912 0.106266
H2    H     H_    0.231424 0.161038 0.520824 0.102042
H3    H     H_    0.164514 0.682820 0.495176 0.106006
H4    H     H_    0.759449 0.711780 0.460246 0.108557
H5    H     H_    0.676019 0.565233 0.441798 0.119160
H6    H     H_    0.378800 0.412863 0.540445 0.128308
H7    H     H_    0.184286 0.024342 0.434129 0.130570
H8    H     H_    0.848856 0.983452 0.563295 0.142026
H9    H     H_    0.320210 0.035390 0.518462 0.138716
H10   H     H_    0.718729 0.115149 0.537729 0.111835
H11   H     H_    0.809044 0.602698 0.543938 0.104457
H12   H     H_    0.282861 0.579000 0.471811 0.134123
H13   H     H_    0.871475 0.446739 0.460788 0.115466
H14   H     H_    0.178535 0.487898 0.554395 0.119378
H15   H     H_    0.352610 0.813669 0.469282 0.129344
H16   H     H_    0.648455 0.941965 0.573209 0.134059
H17   H     H_    0.623891 0.172709 0.042251 0.105794
H18   H     H_    0.376196 0.171773 0.957689 0.106345
H19   H     H_    0.123892 0.672685 0.042255 0.105672
H20   H     H_    0.876197 0.671796 0.957694 0.105835
H21   H     H_    0.553689 0.352208 0.957050 0.131554
H22   H     H_    0.446379 0.351186 0.043759 0.131995
H23   H     H_    0.053704 0.852193 0.957054 0.131870
H24   H     H_    0.946392 0.851197 0.043762 0.132558
H25   H     H_    0.446536 0.989677 0.043617 0.127048
H26   H     H_    0.553532 0.990700 0.955397 0.126341
H27   H     H_    0.946526 0.489689 0.043622 0.126818
H28   H     H_    0.053523 0.490687 0.955403 0.126884
O1    O     O_R   0.783230 0.287800 0.346510 -0.526209
O2    O     O_R   0.216770 0.287800 0.653490 -0.518277
O3    O     O_R   0.283230 0.787800 0.346510 -0.521774
O4    O     O_R   0.716770 0.787800 0.653490 -0.523794
O5    O     O_R   0.554500 0.081650 0.170370 -0.515059
O6    O     O_R   0.445500 0.081650 0.829630 -0.513484
O7    O     O_R   0.054500 0.581650 0.170370 -0.514077
O8    O     O_R   0.945500 0.581650 0.829630 -0.513852
O9    O     O_R   0.545430 0.285140 0.163100 -0.510472
O10   O     O_R   0.454570 0.285140 0.836900 -0.511720
O11   O     O_R   0.045430 0.785140 0.163100 -0.510964
O12   O     O_R   0.954570 0.785140 0.836900 -0.511229
O13   O     O_R   0.677850 0.374730 0.185500 -0.493332
O14   O     O_R   0.322150 0.374730 0.814500 -0.490226
O15   O     O_R   0.177850 0.874730 0.185500 -0.489609
O16   O     O_R   0.822150 0.874730 0.814500 -0.487536
O17   O     O_3   0.664630 0.164620 0.255130 -0.297545
O18   O     O_3   0.335370 0.164620 0.744870 -0.287633
O19   O     O_3   0.164630 0.664620 0.255130 -0.296042
O20   O     O_3   0.835370 0.664620 0.744870 -0.289444
O21   O     O_R   0.760130 0.037060 0.338610 -0.462081
O22   O     O_R   0.239870 0.037060 0.661390 -0.525737
O23   O     O_R   0.260130 0.537060 0.338610 -0.518847
O24   O     O_R   0.739870 0.537060 0.661390 -0.514497
O25   O     O_R   0.666620 0.921370 0.332440 -0.527646
O26   O     O_R   0.333380 0.921370 0.667560 -0.521374
O27   O     O_R   0.166620 0.421370 0.332440 -0.537670
O28   O     O_R   0.833380 0.421370 0.667560 -0.533311
O29   O     O_R   0.557170 0.082420 0.312350 -0.523574
O30   O     O_R   0.442830 0.082420 0.687650 -0.497345
O31   O     O_R   0.057170 0.582420 0.312350 -0.507802
O32   O     O_R   0.942830 0.582420 0.687650 -0.498635
O33   O     O_R   0.548310 0.285980 0.316250 -0.500747
O34   O     O_R   0.451690 0.285980 0.683750 -0.530995
O35   O     O_R   0.048310 0.785980 0.316250 -0.507691
O36   O     O_R   0.951690 0.785980 0.683750 -0.521304
O37   O     O_R   0.680520 0.375500 0.327470 -0.497317
O38   O     O_R   0.319480 0.375500 0.672530 -0.517647
O39   O     O_R   0.180520 0.875500 0.327470 -0.499062
O40   O     O_R   0.819480 0.875500 0.672530 -0.503377
O41   O     O_R   0.780350 0.286970 0.193350 -0.518271
O42   O     O_R   0.219650 0.286970 0.806650 -0.510841
O43   O     O_R   0.280350 0.786970 0.193350 -0.511395
O44   O     O_R   0.719650 0.786970 0.806650 -0.512972
O45   O     O_R   0.757460 0.036290 0.196640 -0.482956
O46   O     O_R   0.242540 0.036290 0.803360 -0.491986
O47   O     O_R   0.257460 0.536290 0.196640 -0.492006
O48   O     O_R   0.742540 0.536290 0.803360 -0.491538
O49   O     O_R   0.663740 0.920540 0.179290 -0.493983
O50   O     O_R   0.336260 0.920540 0.820710 -0.504503
O51   O     O_R   0.163740 0.420540 0.179290 -0.499784
O52   O     O_R   0.836260 0.420540 0.820710 -0.498111
N1    N     N_3   0.628243 0.378698 0.538850 -0.628354
H29   H     H_    0.633090 0.305734 0.573372 0.221713
H30   H     H_    0.616882 0.454818 0.567177 0.234520
N2    N     N_3   0.344516 0.229785 0.423491 -0.636470
H31   H     H_    0.312776 0.176434 0.387580 0.234391
H32   H     H_    0.371132 0.289395 0.394918 0.235844
N3    N     N_3   0.115725 0.915131 0.551770 -0.636375
H33   H     H_    0.106901 0.847202 0.586869 0.234865
H34   H     H_    0.121693 0.995297 0.580576 0.230994
N4    N     N_3   0.845173 0.880031 0.422682 -0.607077
H35   H     H_    0.884641 0.833889 0.453816 0.223687
H36   H     H_    0.827620 0.822731 0.380990 0.245450
C97   C     C_3   0.856410 0.246555 0.567269 -0.249537
C98   C     C_3   0.905454 0.183013 0.524733 -0.319691
C99   C     C_3   0.959639 0.111691 0.574514 -0.454889
H37   H     H_    0.005227 0.169346 0.592524 0.148228
H38   H     H_    0.939026 0.081545 0.622136 0.158919
H39   H     H_    0.976183 0.028642 0.549511 0.170050
H40   H     H_    0.876671 0.123228 0.484802 0.204827
H41   H     H_    0.932026 0.252058 0.496571 0.163456
H42   H     H_    0.891950 0.303307 0.603141 0.198135
H43   H     H_    0.830364 0.181998 0.598790 0.145239
C100  C     C_3   0.119907 0.301204 0.433219 -0.237747
C101  C     C_3   0.080548 0.213280 0.473472 -0.325920
C102  C     C_3   0.029967 0.138499 0.422176 -0.430195
H44   H     H_    0.989531 0.198048 0.394205 0.152363
H45   H     H_    0.057640 0.091795 0.383569 0.162783
H46   H     H_    0.004980 0.066295 0.448814 0.180094
H47   H     H_    0.116121 0.150770 0.504717 0.180250
H48   H     H_    0.052597 0.266305 0.509052 0.162064
H49   H     H_    0.087246 0.382299 0.419220 0.173490
H50   H     H_    0.128848 0.252913 0.385101 0.177994
C103  C     C_3   0.310954 0.686560 0.602024 -0.238357
C104  C     C_3   0.389201 0.687732 0.598944 -0.297573
C105  C     C_3   0.429707 0.618701 0.659183 -0.422234
H51   H     H_    0.485953 0.626572 0.656286 0.130662
H52   H     H_    0.419350 0.656620 0.709678 0.159618
H53   H     H_    0.415469 0.521551 0.656104 0.196752
H54   H     H_    0.399152 0.646014 0.549307 0.138777
H55   H     H_    0.408788 0.782475 0.600468 0.193661
H56   H     H_    0.300631 0.711079 0.654929 0.170295
H57   H     H_    0.290862 0.594219 0.596204 0.153609
C106  C     C_3   0.611547 0.804740 0.440316 -0.238156
C107  C     C_3   0.581000 0.729370 0.495172 -0.315097
C108  C     C_3   0.522402 0.647412 0.461892 -0.450106
H58   H     H_    0.479046 0.702754 0.435499 0.152572
H59   H     H_    0.541116 0.585266 0.423585 0.175397
H60   H     H_    0.503216 0.591600 0.502658 0.148346
H61   H     H_    0.621707 0.672398 0.524774 0.184435
H62   H     H_    0.560475 0.790843 0.532719 0.159617
H63   H     H_    0.574427 0.877510 0.421320 0.160835
H64   H     H_    0.619549 0.746239 0.395589 0.167358

loop_
_geom_bond_atom_site_label_1
_geom_bond_atom_site_label_2
_ccdc_geom_bond_type
C58   C62   S    
C27   C103  S    
Cr9   O17   S    
C99   H37   S    
Cr2   O18   S    
C67   C83   S    
Cr10  O14   S    
Cr3   O23   S    
C17   C29   S    
C97   C98   S    
C14   C18   S    
C19   C23   S    
C35   C36   S    
C8    C96   S    
C44   C80   S    
C75   O47   A    
C2    O26   A    
C20   H10   S    
C105  H53   S    
C100  H49   S    
C38   C49   S    
Cr11  O35   S    
C102  H44   S    
C10   C22   S    
C96   N4    S    
C100  H50   S    
C99   H38   S    
Cr6   O50   S    
Cr9   O33   S    
Cr2   O2    S    
C37   C41   S    
C33   C42   S    
N1    H30   S    
C9    C69   S    
C38   C42   S    
C25   C97   S    
C78   O6    A    
C15   C95   S    
C11   C71   S    
C66   C82   S    
C101  H47   S    
C43   C79   S    
C40   H20   S    
C24   H16   S    
C7    C27   S    
C101  C102  S    
C25   C29   S    
C106  H63   S    
C97   H42   S    
C57   C61   S    
C84   O44   A    
C9    C13   S    
C7    C11   S    
C49   H25   S    
Cr4   O4    S    
C59   C67   T    
C15   C19   S    
C55   C74   S    
C51   H27   S    
C58   C66   T    
C79   O7    A    
C12   C16   S    
C7    H3    S    
C80   O8    A    
C55   C63   T    
C103  H57   S    
Cr1   O41   S    
C4    O28   A    
N4    H35   S    
C18   C30   S    
C23   C27   S    
Cr2   O42   S    
C18   C22   S    
C108  H58   S    
Cr6   O18   S    
C37   H17   S    
C4    C29   S    
C76   O52   A    
Cr6   O6    S    
C16   C20   S    
C46   C85   S    
Cr11  O15   S    
C19   C31   S    
C44   C52   S    
C72   O40   A    
C39   C52   S    
C12   C72   S    
C1    O25   A    
Cr5   O25   S    
Cr6   O30   S    
C98   H41   S    
C87   C92   T    
C107  H62   S    
C6    H2    S    
Cr3   O3    S    
C104  C105  S    
C34   C41   S    
C53   C61   T    
Cr5   O49   S    
C16   H8    S    
Cr1   O1    S    
C73   O49   A    
C38   H18   S    
C22   H14   S    
C83   O15   A    
C13   C93   S    
C102  H45   S    
C40   C51   S    
C69   O1    A    
Cr8   O52   S    
C99   H39   S    
C16   C96   S    
C39   H19   S    
C98   C99   S    
C29   C93   S    
C27   C31   S    
C51   C52   S    
C68   C84   S    
C20   C24   S    
C36   C40   S    
Cr7   O51   S    
C105  H51   S    
C93   N1    S    
C10   C14   S    
C91   C92   S    
Cr12  O16   S    
C71   O3    A    
C54   C62   T    
Cr10  O18   S    
Cr5   O17   S    
C14   H6    S    
Cr1   O17   S    
C69   O37   A    
C33   C37   S    
C46   O34   A    
Cr3   O19   S    
C106  H64   S    
Cr1   O21   S    
Cr3   O43   S    
Cr2   O46   S    
C3    C30   S    
C35   C39   S    
N3    H34   S    
C5    C9    S    
C103  C104  S    
Cr8   O32   S    
C94   N2    S    
C47   O31   A    
Cr4   O24   S    
C47   O35   A    
C100  C101  S    
Cr12  O20   S    
C88   C91   T    
C28   C32   S    
C8    C12   S    
Cr9   O9    S    
C82   O42   A    
C56   C64   T    
C33   C34   S    
Cr10  O38   S    
C48   C87   S    
C1    O21   A    
C3    O23   A    
C82   O14   A    
Cr7   O31   S    
Cr8   O20   S    
Cr5   O29   S    
C35   C44   S    
C70   O38   A    
C28   C106  S    
C34   H22   S    
C26   C100  S    
C42   C50   S    
C79   O11   A    
C10   C70   S    
Cr7   O19   S    
C32   C96   S    
C13   H5    S    
C80   O12   A    
C70   O2    A    
C11   C15   S    
C98   H40   S    
Cr12  O36   S    
C50   H26   S    
C107  H61   S    
C52   H28   S    
C49   C50   S    
C15   H7    S    
C59   C63   S    
Cr11  O39   S    
C53   C76   S    
C8    C28   S    
Cr4   O20   S    
C9    C21   S    
C72   O4    A    
C103  H56   S    
Cr4   O44   S    
C18   H12   S    
C97   H43   S    
C19   H9    S    
Cr9   O13   S    
Cr6   O26   S    
C48   O36   A    
C42   C78   S    
C20   C32   S    
C102  H46   S    
C33   H21   S    
C21   C25   S    
Cr11  O11   S    
C95   N3    S    
C56   C73   S    
C46   O30   A    
Cr5   O5    S    
C34   C38   S    
Cr3   O47   S    
C84   O16   A    
C75   O51   A    
C24   C28   S    
C57   C65   T    
N4    H36   S    
C86   C89   T    
Cr7   O7    S    
C6    C10   S    
C23   H15   S    
C5    C93   S    
C85   C90   T    
C105  H52   S    
Cr1   O45   S    
C6    C26   S    
C74   O46   A    
C3    O27   A    
C41   C49   S    
C7    C95   S    
C12   C24   S    
Cr7   O27   S    
C73   O45   A    
Cr10  O10   S    
C13   C17   S    
C60   C64   S    
C60   C68   T    
N2    H31   S    
C36   H24   S    
C45   C86   S    
C35   H23   S    
C81   O41   A    
C30   C94   S    
C47   C88   S    
C17   H11   S    
C41   C77   S    
C37   C50   S    
C83   O43   A    
C6    C94   S    
Cr8   O28   S    
C4    O24   A    
C77   O9    A    
C101  H48   S    
C104  H54   S    
C43   C51   S    
C81   O13   A    
Cr12  O40   S    
C11   C23   S    
C107  C108  S    
C8    H4    S    
C71   O39   A    
C5    C25   S    
C1    C32   S    
C21   H13   S    
N1    H29   S    
Cr4   O48   S    
C108  H60   S    
C17   C21   S    
C31   C95   S    
C78   O10   A    
C22   C26   S    
N3    H33   S    
Cr2   O22   S    
C40   C44   S    
C2    O22   A    
C39   C43   S    
C77   O5    A    
C104  H55   S    
Cr10  O34   S    
C108  H59   S    
C106  C107  S    
C65   C81   S    
C2    C31   S    
C36   C43   S    
Cr9   O37   S    
C5    H1    S    
Cr12  O12   S    
C89   C90   S    
C76   O48   A    
Cr8   O8    S    
C45   O29   A    
C48   O32   A    
C14   C94   S    
Cr11  O19   S    
C45   O33   A    
N2    H32   S    
C54   C75   S    
C74   O50   A    
C26   C30   S    
