data_mof_unit_59342.cif
_audit_creation_date              2013-03-05T15:46:31-0500
_audit_creation_method            fapswitch 2.2
_symmetry_space_group_name_H-M    P1
_symmetry_Int_Tables_number       1
_space_group_crystal_system       triclinic
_cell_length_a                    6.932394
_cell_length_b                    16.746964
_cell_length_c                    17.134371
_cell_angle_alpha                 100.361958
_cell_angle_beta                  90.162753
_cell_angle_gamma                 89.936092
_cell_volume                      1956.79082567

loop_
_atom_site_label
_atom_site_type_symbol
_atom_site_description
_atom_site_fract_x
_atom_site_fract_y
_atom_site_fract_z
_atom_type_partial_charge
O1    O     O_R   0.506180 0.438940 0.579430 -0.598221
O2    O     O_R   0.170520 0.406230 0.413590 -0.594445
O3    O     O_R   0.005180 0.561060 0.420570 -0.602100
C1    C     C_R   0.340518 0.382522 0.386179 0.933846
O4    O     O_R   0.176140 0.429310 0.578370 -0.599062
O5    O     O_R   0.010830 0.584300 0.586530 -0.583951
C2    C     C_R   0.344528 0.413069 0.604405 0.930665
O6    O     O_R   0.500520 0.415700 0.413470 -0.596475
O7    O     O_3   0.340830 0.550820 0.502480 -0.263174
V1    V     V_3+5 0.064040 0.490570 0.499540 1.162082
O8    O     O_R   0.681400 0.593770 0.586410 -0.587417
C3    C     C_R   0.849849 0.616224 0.615196 0.937855
O9    O     O_R   0.675790 0.570690 0.421630 -0.588861
C4    C     C_R   0.842970 0.586216 0.394794 0.935643
V2    V     V_3+5 0.564650 0.509430 0.500460 1.174516
O10   O     O_3   0.837730 0.449180 0.497520 -0.278475
C5    C     C_R   0.922317 0.859585 0.165672 -0.306101
C6    C     C_R   0.840865 0.637147 0.332084 -0.128731
C7    C     C_R   0.662504 0.683823 0.225671 -0.106819
C8    C     C_R   0.681938 0.631604 0.280176 -0.150440
C9    C     C_R   0.982598 0.696083 0.327712 -0.177953
C10   C     C_R   0.962129 0.750260 0.273727 0.179812
C11   C     C_R   0.801161 0.744120 0.221623 0.045319
C12   C     C_R   0.781592 0.798662 0.167278 0.262694
C13   C     C_R   0.078067 0.865451 0.219306 -0.103894
C14   C     C_R   0.098404 0.811495 0.272165 -0.153650
H1    H     H_    0.186856 0.911922 0.219761 0.168338
H2    H     H_    0.221580 0.817695 0.311889 0.156352
H3    H     H_    0.570046 0.586931 0.282348 0.131678
H4    H     H_    0.104031 0.701957 0.368354 0.133809
H5    H     H_    0.952672 0.626215 0.976432 0.146166
C15   C     C_R   0.926590 0.909679 0.714298 0.264672
C16   C     C_R   0.871234 0.925030 0.639683 -0.322564
C17   C     C_R   0.805346 0.862606 0.580330 0.392616
C18   C     C_R   0.803921 0.783175 0.595321 -0.306676
C19   C     C_R   0.851469 0.766178 0.670955 0.067292
C20   C     C_R   0.895571 0.831639 0.733935 -0.012698
C21   C     C_R   0.859583 0.685011 0.683777 -0.242066
C22   C     C_R   0.887935 0.669789 0.761710 0.122598
C23   C     C_R   0.908798 0.735630 0.826669 0.091171
C24   C     C_R   0.910057 0.816902 0.813376 -0.257870
C25   C     C_R   0.891029 0.589470 0.776704 -0.195460
C26   C     C_R   0.914823 0.574240 0.853465 -0.109710
C27   C     C_R   0.934634 0.638362 0.916876 -0.006988
C28   C     C_R   0.931189 0.718208 0.904020 -0.103446
H6    H     H_    0.763564 0.734778 0.547410 0.161589
H7    H     H_    0.916952 0.512341 0.863818 0.144018
H8    H     H_    0.894288 0.426657 0.179764 0.168245
C29   C     C_R   0.580952 0.241610 0.393311 -0.161811
C30   C     C_R   0.706343 0.177645 0.397672 -0.085501
C31   C     C_R   0.734342 0.117256 0.331921 -0.076701
C32   C     C_R   0.636282 0.120135 0.261485 -0.192981
C33   C     C_R   0.511104 0.185551 0.254111 0.106554
C34   C     C_R   0.483920 0.248056 0.321684 0.119018
C35   C     C_R   0.404700 0.186819 0.183077 -0.266984
C36   C     C_R   0.262952 0.249436 0.182283 0.057834
C37   C     C_R   0.248369 0.314839 0.247847 0.131554
C38   C     C_R   0.356520 0.313858 0.317784 -0.307778
C39   C     C_R   0.132022 0.248974 0.118030 -0.218706
C40   C     C_R   0.991007 0.309514 0.119302 0.445741
C41   C     C_R   0.995185 0.377188 0.179551 -0.251064
C42   C     C_R   0.124514 0.380813 0.241809 -0.212869
H9    H     H_    0.558259 0.284541 0.447601 0.117556
H10   H     H_    0.779370 0.174154 0.452903 0.129122
H11   H     H_    0.829174 0.066733 0.336001 0.144046
H12   H     H_    0.657027 0.068820 0.214405 0.137280
H13   H     H_    0.134863 0.202600 0.065801 0.196249
C43   C     C_R   0.419254 0.139168 0.833263 -0.253677
C44   C     C_R   0.345229 0.362191 0.666910 -0.119637
C45   C     C_R   0.180458 0.322924 0.779511 -0.095092
C46   C     C_R   0.197934 0.373702 0.723842 -0.177504
C47   C     C_R   0.476297 0.297879 0.666447 -0.234444
C48   C     C_R   0.456995 0.244894 0.721634 0.158127
C49   C     C_R   0.309233 0.257963 0.779565 0.048396
C50   C     C_R   0.292259 0.205670 0.835903 0.305090
C51   C     C_R   0.560710 0.125963 0.773695 -0.057216
C52   C     C_R   0.580725 0.178257 0.719074 -0.173852
H14   H     H_    0.693141 0.166377 0.674659 0.145501
H15   H     H_    0.587795 0.287280 0.621508 0.120951
O11   O     O_R   0.265840 0.084300 0.086750 -0.630363
O12   O     O_R   0.589750 0.070740 0.921690 -0.569730
O13   O     O_R   0.755020 0.915730 0.913400 -0.594622
C53   C     C_R   0.421299 0.087268 0.895658 1.048585
O14   O     O_R   0.595830 0.093740 0.086480 -0.577802
O15   O     O_R   0.761150 0.938890 0.079360 -0.572993
C54   C     C_R   0.424888 0.118291 0.113779 0.947018
O16   O     O_R   0.259710 0.061140 0.920790 -0.536641
O17   O     O_3   0.425260 0.949200 0.997610 -0.242552
V3    V     V_3+5 0.702060 0.009430 0.000450 1.287923
O18   O     O_R   0.090530 0.929220 0.078150 -0.581840
C55   C     C_R   0.922900 0.912798 0.104453 0.944645
O19   O     O_R   0.084440 0.906220 0.913360 -0.560987
C56   C     C_R   0.916613 0.885507 0.882793 0.979673
V4    V     V_3+5 0.201450 0.990520 0.999290 1.286832
O20   O     O_3   0.928380 0.050800 0.002390 -0.243880
N1    N     N_R   0.624601 0.789859 0.111854 0.223626
O21   O     O_R   0.618877 0.727951 0.053923 -0.432032
O22   O     O_R   0.476946 0.838310 0.124639 -0.400811
N2    N     N_R   0.751004 0.879058 0.503504 0.245108
O23   O     O_R   0.760730 0.952406 0.488435 -0.412126
O24   O     O_R   0.687162 0.821226 0.448422 -0.418124
H16   H     H_    0.873009 0.537725 0.729411 0.107664
H17   H     H_    0.947787 0.765897 0.955317 0.108282
N3    N     N_R   0.842412 0.301851 0.059808 0.254172
O25   O     O_R   0.752694 0.365792 0.044933 -0.377540
O26   O     O_R   0.779331 0.230413 0.027504 -0.352814
H18   H     H_    0.122030 0.435829 0.285618 0.151012
N4    N     N_R   0.155146 0.223499 0.898602 0.210920
O27   O     O_R   0.173275 0.290082 0.950408 -0.418516
O28   O     O_R   0.993401 0.183718 0.893501 -0.317666
H19   H     H_    0.657262 0.074719 0.769829 0.177184
H20   H     H_    0.062587 0.334168 0.821334 0.178313
H21   H     H_    0.093913 0.422111 0.724830 0.126150
H22   H     H_    0.536041 0.677451 0.187879 0.168951
N5    N     N_R   0.049739 0.967825 0.761666 0.224491
O29   O     O_R   0.012785 0.044905 0.768415 -0.422357
O30   O     O_R   0.224076 0.945586 0.776352 -0.419647
H23   H     H_    0.891614 0.985266 0.626381 0.201564

loop_
_geom_bond_atom_site_label_1
_geom_bond_atom_site_label_2
_geom_bond_distance
_ccdc_geom_bond_type
C53   O16   1.305128 A    
C35   C36   1.438124 A    
C29   H9    1.080258 S    
C6    C9    1.405125 A    
C30   H10   1.082777 S    
C48   C49   1.417599 A    
C4    C6    1.487230 S    
O2    C1    1.304638 A    
C7    C8    1.395677 A    
C5    C55   1.493567 S    
C1    O6    1.289444 A    
N3    O26   1.300177 A    
O15   C55   1.302656 A    
C37   C42   1.416730 A    
C33   C34   1.427092 A    
C36   C37   1.424675 A    
C43   C50   1.413286 A    
O13   V3    1.995428 S    
C19   C20   1.425866 A    
O14   C54   1.313406 A    
C47   H15   1.084330 S    
C12   N1    1.432540 S    
O5    C3    1.296085 A    
C21   C22   1.416885 A    
C29   C34   1.418856 A    
O16   V4    1.986803 S    
N4    O27   1.300283 A    
C46   H21   1.082303 S    
C17   C18   1.399477 A    
C31   H11   1.082934 S    
C44   C46   1.403203 A    
O11   C54   1.287587 A    
C28   H17   1.082002 S    
C39   H13   1.074442 S    
O8    V2    2.016527 S    
C24   C56   1.498340 S    
C18   C19   1.413932 A    
N4    O28   1.299577 A    
N5    O30   1.301407 A    
N1    O22   1.299854 A    
C45   C49   1.406657 A    
C11   C12   1.422938 A    
O18   V4    1.994393 S    
C45   C46   1.392950 A    
O1    V2    1.991869 S    
O7    V1    2.165171 S    
O12   V3    1.993054 S    
C39   C40   1.404996 A    
O13   C56   1.301033 A    
O9    C4    1.291871 A    
C3    C21   1.491709 S    
C41   C42   1.384501 A    
C25   H16   1.081779 S    
N3    O25   1.301625 A    
O12   C53   1.296137 A    
C30   C31   1.385865 A    
C22   C25   1.414218 A    
C37   C38   1.414327 A    
C8    H3    1.083638 S    
C33   C35   1.424818 A    
C23   C28   1.415497 A    
O17   V4    1.696360 S    
C5    C12   1.416309 A    
H5    C27   1.082695 S    
C31   C32   1.391832 A    
C51   C52   1.399275 A    
C49   C50   1.420415 A    
C22   C23   1.426021 A    
O4    C2    1.294460 A    
O15   V3    1.990426 S    
C42   H18   1.078839 S    
C7    H22   1.082318 S    
C13   C14   1.396457 A    
C52   H14   1.083808 S    
C40   C41   1.389262 A    
V3    O20   1.713629 S    
C44   C47   1.407280 A    
C7    C11   1.405769 A    
C26   C27   1.390054 A    
O5    V1    1.995452 S    
N2    O23   1.301716 A    
N1    O21   1.300538 A    
O19   V4    2.016662 S    
C17   N2    1.441549 S    
C40   N3    1.436674 S    
C15   C20   1.423643 A    
O3    C4    1.303875 A    
C45   H20   1.082184 S    
C23   C24   1.419852 A    
N2    O24   1.301682 A    
O6    V2    2.009819 S    
O9    V2    1.994163 S    
C10   C14   1.398931 A    
C43   C51   1.405814 A    
C25   C26   1.393381 A    
O11   V4    2.015601 S    
O2    V1    1.991050 S    
C32   H12   1.077474 S    
C32   C33   1.419939 A    
C34   C38   1.422266 A    
C50   N4    1.427076 S    
C1    C38   1.491206 S    
O1    C2    1.302751 A    
C43   C53   1.494248 S    
C27   C28   1.393911 A    
C47   C48   1.415014 A    
C2    C44   1.483657 S    
O8    C3    1.295885 A    
C13   H1    1.083322 S    
C9    H4    1.084194 S    
C14   H2    1.083840 S    
C36   C39   1.423813 A    
C5    C13   1.407870 A    
C15   C16   1.401102 A    
C35   C54   1.502300 S    
C19   C21   1.416442 A    
O7    V2    1.696593 S    
O4    V1    1.992880 S    
O3    V1    1.990311 S    
V1    O10   1.713624 S    
O18   C55   1.295165 A    
C51   H19   1.080459 S    
O19   C56   1.296272 A    
C16   C17   1.397049 A    
C6    C8    1.406576 A    
C15   N5    1.431570 S    
C20   C24   1.429628 A    
V4    O20   2.140678 S    
C16   H23   1.082919 S    
O17   V3    2.165187 S    
C29   C30   1.391065 A    
O14   V3    1.990959 S    
H8    C41   1.083150 S    
C48   C52   1.401240 A    
C10   C11   1.419294 A    
N5    O29   1.300401 A    
C9    C10   1.414147 A    
C18   H6    1.081189 S    
C26   H7    1.082761 S    
V2    O10   2.140665 S    
