data_mof_unit_8639.cif
_audit_creation_date              2012-12-10T17:38:51-0500
_audit_creation_method            fapswitch 2.2
_symmetry_space_group_name_H-M    P1
_symmetry_Int_Tables_number       1
_space_group_crystal_system       triclinic
_cell_length_a                    12.427287
_cell_length_b                    13.154894
_cell_length_c                    23.472471
_cell_angle_alpha                 75.373019
_cell_angle_beta                  101.617942
_cell_angle_gamma                 117.976715
_cell_volume                      3263.53484205

loop_
_atom_site_label
_atom_site_type_symbol
_atom_type_description
_atom_site_fract_x
_atom_site_fract_y
_atom_site_fract_z
_atom_type_partial_charge
C1    C     C_R   0.854832 0.284923 0.507321 0.875891
C2    C     C_R   0.812375 0.353530 0.029417 -0.162639
C3    C     C_R   0.812529 0.350964 0.970625 0.406079
C4    C     C_R   0.911773 0.437351 0.938205 -0.087444
C5    C     C_R   0.008757 0.527719 0.966156 -0.100790
C6    C     C_R   0.109375 0.614500 0.934985 -0.155041
C7    C     C_R   0.204371 0.704561 0.963745 0.343620
C8    C     C_R   0.192890 0.714173 0.020502 0.336134
C9    C     C_R   0.918473 0.437017 0.879027 0.609200
C10   C     C_R   0.108801 0.609610 0.875365 0.621286
C11   C     C_R   0.974150 0.588904 0.743850 -0.011161
C12   C     C_R   0.001988 0.502005 0.608605 0.891099
C13   C     C_R   0.969912 0.583263 0.684900 -0.106933
C14   C     C_R   0.008119 0.508729 0.670600 -0.029469
C15   C     C_R   0.054070 0.442453 0.715871 -0.126536
C16   C     C_R   0.057666 0.447668 0.774869 -0.069801
C17   C     C_R   0.016879 0.520289 0.788938 0.295256
C18   C     C_R   0.086571 0.485300 0.249157 -0.061271
C19   C     C_R   0.085194 0.479985 0.309123 -0.144261
C20   C     C_R   0.000993 0.505036 0.327818 -0.060228
C21   C     C_R   0.918345 0.535443 0.285438 -0.182222
C22   C     C_R   0.920265 0.541116 0.225558 -0.046010
C23   C     C_R   0.145410 0.714122 0.490031 0.896700
C24   C     C_R   0.004326 0.516171 0.207168 0.293273
C25   C     C_R   0.299347 0.004965 0.393385 0.401012
C26   C     C_R   0.229598 0.837216 0.472886 -0.187099
C27   C     C_R   0.801854 0.074927 0.559231 0.438218
C28   C     C_R   0.718239 0.956666 0.566509 -0.168217
C29   C     C_R   0.601917 0.921583 0.536933 -0.165958
C30   C     C_R   0.567098 0.003966 0.498443 0.161003
C31   C     C_R   0.659382 0.116397 0.479372 0.071293
C32   C     C_R   0.444156 0.975056 0.475493 -0.035245
C33   C     C_R   0.419899 0.042654 0.421371 -0.002864
C34   C     C_R   0.000209 0.501214 0.390982 0.778575
C35   C     C_R   0.516858 0.145586 0.396692 -0.102913
C36   C     C_R   0.634269 0.183899 0.426217 -0.118545
C37   C     C_R   0.344341 0.882296 0.504960 0.344237
C38   C     C_R   0.206554 0.899627 0.417948 -0.258984
C39   C     C_R   0.773431 0.157417 0.514313 -0.208134
C40   C     C_R   0.380536 0.402803 0.616256 0.330803
C41   C     C_R   0.741824 0.611658 0.409228 -0.019078
C42   C     C_R   0.628581 0.604083 0.382366 0.273554
C43   C     C_R   0.530047 0.553404 0.416333 -0.124692
C44   C     C_R   0.546794 0.523398 0.478409 -0.071822
C45   C     C_R   0.102368 0.607080 0.116194 0.633914
C46   C     C_R   0.659067 0.517194 0.502438 0.107973
C47   C     C_R   0.452911 0.487866 0.516916 -0.170531
C48   C     C_R   0.478155 0.455395 0.579087 -0.126453
C49   C     C_R   0.600007 0.474819 0.599442 0.324238
C50   C     C_R   0.665041 0.461193 0.562457 0.286442
C51   C     C_R   0.340320 0.495074 0.497877 0.512386
C52   C     C_R   0.264311 0.389732 0.590569 0.020028
C53   C     C_R   0.908456 0.439577 0.117339 0.583585
C54   C     C_R   0.908458 0.440345 0.057619 -0.043187
C55   C     C_R   0.006470 0.529138 0.026013 -0.053956
C56   C     C_R   0.101368 0.618927 0.054374 -0.186428
Cu1   Cu    Cu3+1 0.098270 0.475410 0.513370 1.079351
Cu2   Cu    Cu3+1 0.901730 0.524590 0.486630 1.012413
H1    H     H_    0.736146 0.285833 0.053289 0.226261
H2    H     H_    0.149900 0.456227 0.340716 0.192778
H3    H     H_    0.852552 0.555468 0.298396 0.196000
H4    H     H_    0.856509 0.565117 0.193314 0.181276
H5    H     H_    0.117225 0.864655 0.393323 0.196005
H6    H     H_    0.502245 0.199431 0.355596 0.208797
H7    H     H_    0.539652 0.829481 0.543945 0.210649
H8    H     H_    0.740406 0.891219 0.597460 0.217914
H9    H     H_    0.705328 0.265737 0.406663 0.142996
H10   H     H_    0.189819 0.351870 0.617881 0.211178
H11   H     H_    0.817383 0.648184 0.382571 0.164348
H12   H     H_    0.440808 0.534327 0.392936 0.215007
H13   H     H_    0.942979 0.645479 0.754607 0.174682
H14   H     H_    0.937083 0.637259 0.650468 0.181752
H15   H     H_    0.084995 0.385255 0.705659 0.173695
H16   H     H_    0.091018 0.394667 0.809673 0.162916
H17   H     H_    0.151383 0.465276 0.235265 0.179883
N1    N     N_R   0.005054 0.521252 0.145438 -0.479836
N2    N     N_R   0.015318 0.521879 0.849568 -0.493374
N3    N     N_R   0.246280 0.438190 0.533650 -0.233397
N4    N     N_R   0.754320 0.561190 0.466710 -0.213955
O1    O     O_R   0.972510 0.318130 0.516820 -0.533054
O2    O     O_2   0.813959 0.356041 0.147637 -0.498394
O3    O     O_2   0.829473 0.353426 0.850407 -0.392495
O4    O     O_2   0.198737 0.692473 0.842393 -0.419698
O5    O     O_R   0.806530 0.359650 0.494230 -0.507443
O6    O     O_R   0.082990 0.479200 0.593420 -0.571755
O7    O     O_R   0.917010 0.520720 0.570830 -0.574936
O8    O     O_R   0.193470 0.640350 0.505770 -0.507734
O9    O     O_R   0.027490 0.681870 0.483180 -0.592907
O10   O     O_R   0.082990 0.479280 0.429170 -0.541104
O11   O     O_R   0.917010 0.520800 0.406580 -0.622303
O12   O     O_2   0.201330 0.676715 0.147627 -0.413017
Cl1   Cl    Cl    0.261855 0.081469 0.325366 -0.537722
S1    S     S_3+6 0.350078 0.841944 0.583792 0.032783
O13   O     O_2   0.231984 0.820764 0.603219 -0.280796
O14   O     O_2   0.365620 0.731239 0.603813 -0.295983
O15   O     O_3   0.466064 0.949803 0.615614 -0.448431
H18   H     H_    0.465527 0.918214 0.658641 0.411475
S2    S     S_3+6 0.936695 0.112893 0.608988 0.044741
O16   O     O_2   0.043905 0.146135 0.576121 -0.283369
O17   O     O_2   0.956451 0.213947 0.635324 -0.293241
O18   O     O_3   0.924968 0.998956 0.664049 -0.497272
H19   H     H_    0.004305 0.027180 0.688763 0.409281
Cl2   Cl    Cl    0.684266 0.235445 0.941726 -0.393210
Cl3   Cl    Cl    0.671835 0.503977 0.669947 -0.473720
S3    S     S_3+6 0.390975 0.346278 0.693502 0.124636
O19   O     O_2   0.466853 0.280062 0.709050 -0.091383
O20   O     O_2   0.447851 0.446244 0.726751 -0.217389
O21   O     O_3   0.250507 0.253960 0.715222 -0.502392
H20   H     H_    0.230635 0.297167 0.737175 0.357318
Cl4   Cl    Cl    0.336360 0.608939 0.439574 -0.609354
S4    S     S_3+6 0.607709 0.648788 0.305341 0.048983
O22   O     O_2   0.567148 0.545674 0.276041 -0.225431
O23   O     O_2   0.511059 0.692045 0.290357 -0.209011
O24   O     O_3   0.739830 0.755420 0.280013 -0.487911
H21   H     H_    0.761286 0.820378 0.300720 0.354674
S5    S     S_3+6 0.630250 0.310151 0.576281 0.087722
O25   O     O_2   0.742025 0.292267 0.602316 -0.231235
O26   O     O_2   0.535397 0.238962 0.619421 -0.189526
O27   O     O_3   0.571619 0.259114 0.512849 -0.523983
H22   H     H_    0.489175 0.256743 0.504458 0.348512
Cl5   Cl    Cl    0.345168 0.800015 0.932888 -0.327685
S6    S     S_3+6 0.282196 0.852221 0.044015 0.137668
O28   O     O_2   0.210462 0.873139 0.080521 -0.217785
O29   O     O_2   0.396768 0.852359 0.080200 -0.170327
O30   O     O_3   0.320862 0.962912 0.985598 -0.432387
H23   H     H_    0.378966 0.033305 0.002599 0.401363

loop_
_geom_bond_atom_site_label_1
_geom_bond_atom_site_label_2
_ccdc_geom_bond_type
C55   C56   A    
C27   S2    S    
C18   H17   S    
C41   C42   A    
C19   C20   A    
C43   C44   A    
C8    C56   A    
C49   Cl3   S    
O24   H21   S    
C36   H9    S    
C7    C8    A    
C53   C54   A    
O21   H20   S    
C1    O5    A    
C51   Cl4   S    
S3    O20   D    
S1    O13   D    
Cu1   O10   S    
C12   O6    A    
C45   N1    A    
C18   C24   A    
C28   C29   A    
C30   C31   A    
C11   H13   S    
C15   C16   A    
C10   O4    S    
S5    O25   D    
C53   O2    S    
C18   C19   A    
C23   C26   S    
C46   N4    A    
S4    O22   D    
C45   C56   A    
C27   C39   A    
C16   C17   A    
C35   H6    S    
C21   H3    S    
C52   H10   S    
C44   C47   A    
C9    O3    S    
C20   C34   S    
S1    O14   D    
C23   O8    A    
C21   C22   A    
Cu1   O1    S    
C7    Cl5   S    
C52   N3    A    
Cu2   O7    S    
C10   N2    A    
C44   C46   A    
S3    O21   S    
O18   H19   S    
C2    C54   A    
C2    H1    S    
C24   N1    S    
C47   C51   A    
C40   C52   A    
Cu1   O8    S    
C35   C36   A    
C28   H8    S    
C42   S4    S    
C34   O11   A    
C41   N4    A    
C29   C30   A    
Cu2   O5    S    
C25   C38   A    
C22   H4    S    
C47   C48   A    
O15   H18   S    
C17   N2    S    
C37   S1    S    
S4    O23   D    
C9    N2    A    
C32   C37   A    
Cu2   O11   S    
Cu2   N4    S    
C29   H7    S    
C48   C49   A    
C15   H15   S    
C12   C14   S    
S2    O16   D    
S1    O15   S    
S2    O17   D    
C23   O9    A    
O30   H23   S    
C22   C24   A    
C53   N1    A    
C42   C43   A    
S6    O29   D    
C3    C4    A    
C41   H11   S    
C38   H5    S    
C3    Cl2   S    
C40   C48   A    
C54   C55   A    
C11   C17   A    
C25   Cl1   S    
C14   C15   A    
Cu1   N3    S    
C5    C55   A    
C26   C38   A    
C4    C5    A    
Cu2   O9    S    
C6    C10   A    
O27   H22   S    
C26   C37   A    
C6    C7    A    
C16   H16   S    
C13   H14   S    
C19   H2    S    
C43   H12   S    
S2    O18   S    
S3    O19   D    
C46   C50   A    
S5    O27   S    
C12   O7    A    
C32   C33   A    
S6    O30   S    
C2    C3    A    
S6    O28   D    
C51   N3    A    
C30   C32   A    
C11   C13   A    
C8    S6    S    
Cu1   Cu2   S    
C5    C6    A    
C33   C35   A    
S5    O26   D    
S4    O24   S    
C50   S5    S    
C45   O12   S    
C34   O10   A    
C1    C39   S    
C20   C21   A    
C49   C50   A    
C27   C28   A    
C31   C39   A    
C1    O1    A    
C31   C36   A    
C4    C9    A    
C13   C14   A    
Cu1   O6    S    
C25   C33   A    
C40   S3    S    
