data_mof_unit_27926.cif
_audit_creation_date              2012-12-10T17:08:37-0500
_audit_creation_method            fapswitch 2.2
_symmetry_space_group_name_H-M    P1
_symmetry_Int_Tables_number       1
_space_group_crystal_system       triclinic
_cell_length_a                    15.739838
_cell_length_b                    10.611631
_cell_length_c                    10.004514
_cell_angle_alpha                 91.156799
_cell_angle_beta                  89.96963
_cell_angle_gamma                 89.921234
_cell_volume                      1670.66507403

loop_
_atom_site_label
_atom_site_type_symbol
_atom_type_description
_atom_site_fract_x
_atom_site_fract_y
_atom_site_fract_z
_atom_type_partial_charge
C1    C     C_R   0.500606 0.261990 0.498388 0.918430
C2    C     C_2   0.463165 0.866642 0.506974 0.157252
C3    C     C_2   0.450449 0.069447 0.403142 -0.233836
C4    C     C_R   0.338323 0.500584 0.500079 0.875447
C5    C     C_2   0.499899 0.128657 0.492822 -0.294727
C6    C     C_2   0.549544 0.572642 0.925575 0.468549
C7    C     C_2   0.555635 0.560445 0.075989 -0.231218
C8    C     C_R   0.491249 0.737336 0.501340 0.845201
C9    C     C_R   0.661681 0.500222 0.499972 0.908452
C10   C     C_3   0.050860 0.442077 0.632823 0.347416
C11   C     C_3   0.048986 0.434501 0.378798 -0.424065
C12   C     C_3   0.951367 0.446181 0.635661 -0.087739
C13   C     C_3   0.950661 0.430221 0.380930 0.326297
C14   C     C_1   0.750441 0.502815 0.500379 -0.182159
C15   C     C_3   0.082864 0.506357 0.503877 0.165181
C16   C     C_3   0.910977 0.497405 0.770124 -0.457666
C17   C     C_3   0.961509 0.594307 0.853538 -0.925063
C18   C     C_3   0.912858 0.732009 0.385752 -0.366965
C19   C     C_3   0.960496 0.739905 0.252222 -0.887225
C20   C     C_3   0.369777 0.888493 0.209115 0.094026
C21   C     C_3   0.353471 0.777231 0.114330 -0.828794
C22   C     C_3   0.361984 0.902116 0.666299 0.106189
C23   C     C_3   0.917450 0.508762 0.503939 0.140773
C24   C     C_3   0.342300 0.975416 0.794825 -0.840997
C25   C     C_3   0.582082 0.779062 0.894641 0.123498
C26   C     C_3   0.637474 0.867862 0.815026 -0.763167
C27   C     C_3   0.092832 0.273742 0.764143 0.097948
C28   C     C_3   0.115862 0.134504 0.759592 -0.835768
C29   C     C_3   0.914552 0.246905 0.260959 0.098674
C30   C     C_3   0.900236 0.106045 0.275102 -0.813848
C31   C     C_3   0.951797 0.647492 0.497338 -0.045785
C32   C     C_3   0.050665 0.644577 0.501858 -0.505742
C33   C     C_1   0.825675 0.505726 0.501801 -0.081449
C34   C     C_1   0.174348 0.505364 0.501430 -0.043613
C35   C     C_1   0.249572 0.503259 0.500344 -0.192734
C36   C     C_2   0.450831 0.932421 0.394369 0.371858
H1    H     H_    0.929269 0.346481 0.630094 0.212606
H2    H     H_    0.925156 0.474484 0.289109 0.078345
H3    H     H_    0.073156 0.696430 0.592914 0.149413
H4    H     H_    0.080201 0.693145 0.416724 0.216921
H5    H     H_    0.930214 0.694886 0.591333 0.157929
H6    H     H_    0.013538 0.547324 0.908620 0.240355
H7    H     H_    0.988151 0.669996 0.791849 0.254175
H8    H     H_    0.918921 0.638652 0.929589 0.262796
H9    H     H_    0.847322 0.538422 0.751706 0.246415
H10   H     H_    0.899198 0.416010 0.835966 0.203654
H11   H     H_    0.014962 0.805872 0.261316 0.248219
H12   H     H_    0.079498 0.497128 0.717028 0.080272
H13   H     H_    0.983578 0.647329 0.215267 0.250501
H14   H     H_    0.917147 0.778466 0.175561 0.246453
H15   H     H_    0.846542 0.703207 0.363789 0.207478
H16   H     H_    0.907982 0.830127 0.426400 0.203783
H17   H     H_    0.369214 0.976522 0.150727 0.145054
H18   H     H_    0.316556 0.891806 0.283100 0.107857
H19   H     H_    0.350412 0.688722 0.171519 0.265383
H20   H     H_    0.292229 0.790619 0.061382 0.198824
H21   H     H_    0.405290 0.768968 0.039488 0.237171
H22   H     H_    0.349438 0.800385 0.683028 0.145057
H23   H     H_    0.413773 0.121969 0.330923 0.147726
H24   H     H_    0.318546 0.936657 0.586924 0.121981
H25   H     H_    0.386293 0.946688 0.875347 0.253892
H26   H     H_    0.349688 0.078054 0.778508 0.261077
H27   H     H_    0.276021 0.956396 0.826586 0.201735
H28   H     H_    0.592262 0.800295 0.002857 0.136861
H29   H     H_    0.514538 0.797866 0.868412 0.171704
H30   H     H_    0.628910 0.849419 0.706206 0.260876
H31   H     H_    0.619387 0.967079 0.838389 0.211244
H32   H     H_    0.705367 0.853931 0.841170 0.233081
H33   H     H_    0.034467 0.286058 0.825928 0.131915
H34   H     H_    0.540915 0.079949 0.562066 0.179946
H35   H     H_    0.146315 0.326499 0.811724 0.134329
H36   H     H_    0.174276 0.119436 0.698960 0.259079
H37   H     H_    0.127476 0.101141 0.862489 0.197320
H38   H     H_    0.063077 0.078977 0.714294 0.256444
H39   H     H_    0.972857 0.260452 0.199725 0.119257
H40   H     H_    0.858973 0.287660 0.208284 0.143559
H41   H     H_    0.841663 0.089124 0.334014 0.255527
H42   H     H_    0.893200 0.060701 0.174713 0.201465
H43   H     H_    0.955236 0.062925 0.326682 0.256646
H44   H     H_    0.466160 0.432397 0.897459 0.109772
H45   H     H_    0.608118 0.607057 0.126771 0.184724
H46   H     H_    0.447513 0.466325 0.101487 0.147957
H47   H     H_    0.070986 0.481299 0.286530 0.120992
H48   H     H_    0.075621 0.337235 0.374651 0.227293
N1    N     N_2   0.500900 0.501330 0.852150 -0.218451
N2    N     N_2   0.500920 0.501360 0.147810 -0.203412
O1    O     O_R   0.499990 0.319060 0.613040 -0.610529
O2    O     O_3   0.448080 0.920755 0.632401 -0.630938
O3    O     O_3   0.604569 0.653415 0.861802 -0.577752
O4    O     O_3   0.079580 0.314968 0.632439 -0.599175
O5    O     O_3   0.922740 0.303228 0.389524 -0.597148
O6    O     O_R   0.500010 0.319100 0.386900 -0.605518
O7    O     O_R   0.377130 0.499990 0.613120 -0.624890
O8    O     O_R   0.377160 0.500030 0.386980 -0.622835
O9    O     O_R   0.499990 0.680900 0.613100 -0.577722
O10   O     O_R   0.500010 0.680940 0.386960 -0.567002
O11   O     O_R   0.622840 0.499970 0.613020 -0.564341
O12   O     O_R   0.622870 0.500010 0.386880 -0.614055
O13   O     O_3   0.450260 0.873400 0.269326 -0.599489
Zn1   Zn    Zn3+2 0.499980 0.499970 0.650990 0.975454
Zn2   Zn    Zn3+2 0.500020 0.500030 0.349010 0.950113

loop_
_geom_bond_atom_site_label_1
_geom_bond_atom_site_label_2
_ccdc_geom_bond_type
C1    O1    A    
C9    O12   A    
C8    O10   A    
C28   H38   S    
C14   C33   T    
C18   H16   S    
C15   C32   S    
C29   H40   S    
C12   C23   S    
H44   N1    S    
C6    N1    D    
C1    C5    S    
C26   H31   S    
C18   C19   S    
C10   C15   S    
C22   H24   S    
C19   H11   S    
C7    N2    D    
C13   C23   S    
C27   O4    S    
C34   C35   T    
C32   H3    S    
C12   H1    S    
C17   H6    S    
C30   H41   S    
C11   C15   S    
C12   C16   S    
O8    Zn2   S    
C16   C17   S    
C23   C33   S    
C24   H26   S    
C2    O2    S    
C22   O2    S    
C15   C34   S    
C27   H33   S    
C4    C35   S    
O10   Zn2   S    
C13   O5    S    
C28   H36   S    
C8    O9    A    
C28   H37   S    
C18   H15   S    
C26   H30   S    
C25   H29   S    
C20   H18   S    
C16   H10   S    
C21   H19   S    
O9    Zn1   S    
C11   H47   S    
C25   C26   S    
H46   N2    S    
C25   H28   S    
C23   C31   S    
C9    C14   S    
C17   H7    S    
C21   H21   S    
C29   C30   S    
C19   H13   S    
C31   C32   S    
O7    Zn1   S    
C13   H2    S    
C10   C12   S    
O6    Zn2   S    
C24   H25   S    
C4    O8    A    
C30   H43   S    
C7    H45   S    
C24   H27   S    
C10   H12   S    
C22   C24   S    
O12   Zn2   S    
C29   O5    S    
O11   Zn1   S    
C27   H35   S    
O1    Zn1   S    
C2    C36   D    
C9    O11   A    
C31   H5    S    
C2    C8    S    
C20   H17   S    
C3    C5    D    
C5    H34   S    
C16   H9    S    
C22   H22   S    
C21   H20   S    
C6    C7    S    
C29   H39   S    
C11   H48   S    
C1    O6    A    
C6    O3    S    
C25   O3    S    
C26   H32   S    
C17   H8    S    
N1    Zn1   S    
C11   C13   S    
C19   H14   S    
C20   O13   S    
C3    C36   S    
C36   O13   S    
C32   H4    S    
C4    O7    A    
C30   H42   S    
C20   C21   S    
C10   O4    S    
C27   C28   S    
C18   C31   S    
N2    Zn2   S    
C3    H23   S    
