data_mof_unit_34022.cif
_audit_creation_date              2012-10-26T20:05:02-0400
_audit_creation_method            fapswitch 2.2
_symmetry_space_group_name_H-M    P1
_symmetry_Int_Tables_number       1
_space_group_crystal_system       triclinic
_cell_length_a                    15.886147
_cell_length_b                    15.011283
_cell_length_c                    13.722524
_cell_angle_alpha                 89.5235
_cell_angle_beta                  90.455719
_cell_angle_gamma                 89.242612
_cell_volume                      3271.92470436

loop_
_atom_site_label
_atom_site_type_symbol
_atom_type_description
_atom_site_fract_x
_atom_site_fract_y
_atom_site_fract_z
_atom_type_partial_charge
C1    C     C_R   0.500587 0.328886 0.500608 0.577027
C2    C     C_R   0.498521 0.046837 0.509732 0.020311
C3    C     C_R   0.419885 0.908700 0.496139 0.030278
C4    C     C_R   0.575685 0.091327 0.522553 0.022963
C5    C     C_R   0.648907 0.948618 0.535295 -0.142712
C6    C     C_R   0.346067 0.051457 0.490464 -0.145845
C7    C     C_R   0.650206 0.041323 0.537076 -0.131610
C8    C     C_R   0.344514 0.958717 0.491743 -0.128969
C9    C     C_R   0.562198 0.455471 0.794046 0.050382
C10   C     C_R   0.438065 0.544598 0.205520 0.043006
C11   C     C_R   0.438444 0.545215 0.792260 0.052279
C12   C     C_R   0.497923 0.671157 0.499703 0.578741
C13   C     C_R   0.561241 0.453794 0.207760 0.054905
C14   C     C_R   0.437364 0.547244 0.895274 -0.046038
C15   C     C_R   0.563652 0.453190 0.104564 -0.038249
C16   C     C_R   0.339672 0.501160 0.499588 0.554809
C17   C     C_R   0.660274 0.500298 0.500300 0.551737
C18   C     C_R   0.500698 0.500521 0.948108 -0.063222
C19   C     C_R   0.500560 0.500092 0.051642 -0.062572
C20   C     C_R   0.563956 0.454010 0.897186 -0.040451
C21   C     C_R   0.436154 0.544919 0.102379 -0.046665
C22   C     C_R   0.373733 0.593433 0.946410 0.276678
C23   C     C_R   0.496444 0.767643 0.499650 -0.001024
C24   C     C_R   0.627199 0.406878 0.053233 0.256600
C25   C     C_R   0.370752 0.587839 0.049036 0.260712
C26   C     C_R   0.626712 0.406330 0.950138 0.257426
C27   C     C_3   0.974324 0.422123 0.510620 -0.145159
C28   C     C_3   0.025406 0.592582 0.485554 -0.141889
C29   C     C_3   0.027943 0.455989 0.424004 -0.137463
C30   C     C_3   0.971359 0.558752 0.572022 -0.126324
C31   C     C_1   0.249902 0.504490 0.498489 -0.018197
C32   C     C_1   0.749911 0.502106 0.500679 -0.031896
C33   C     C_3   0.029151 0.475872 0.581533 0.309244
C34   C     C_R   0.501099 0.232534 0.502839 0.007353
C35   C     C_3   0.969941 0.538831 0.414672 0.297064
C36   C     C_3   0.082587 0.508817 0.496651 0.028109
C37   C     C_3   0.916971 0.505480 0.499709 0.028332
C38   C     C_1   0.174346 0.507203 0.497453 -0.024064
C39   C     C_1   0.825373 0.503775 0.500338 -0.038501
C40   C     C_R   0.420006 0.815355 0.487708 0.240834
C41   C     C_R   0.576687 0.184929 0.519421 0.230497
C42   C     C_3   0.335220 0.723115 0.867479 0.004496
C43   C     C_3   0.318453 0.791309 0.947729 -0.251329
C44   C     C_3   0.333000 0.886159 0.911422 -0.492314
C45   C     C_R   0.571948 0.811634 0.516351 -0.180565
C46   C     C_3   0.759312 0.407581 0.120197 0.024451
C47   C     C_3   0.836719 0.346249 0.117572 -0.254986
C48   C     C_3   0.915096 0.393330 0.154471 -0.490484
C49   C     C_3   0.241900 0.557061 0.113251 0.014698
C50   C     C_3   0.158654 0.584988 0.064867 -0.248893
C51   C     C_3   0.093649 0.511847 0.073825 -0.510846
C52   C     C_3   0.668870 0.276179 0.880550 0.006319
C53   C     C_3   0.730955 0.237889 0.806852 -0.259738
C54   C     C_3   0.707815 0.143377 0.777772 -0.461675
C55   C     C_3   0.983178 0.625672 0.274363 0.000691
C56   C     C_R   0.424747 0.188549 0.492796 -0.177897
C57   C     C_3   0.953567 0.722097 0.288701 -0.257636
C58   C     C_3   0.012072 0.787484 0.238534 -0.496629
C59   C     C_3   0.002939 0.411672 0.733000 0.010903
C60   C     C_3   0.989734 0.477488 0.816166 -0.266627
C61   C     C_3   0.922209 0.444994 0.885896 -0.485223
C62   C     C_3   0.333920 0.748817 0.374990 0.017759
C63   C     C_3   0.275872 0.817340 0.324137 -0.297754
C64   C     C_3   0.253230 0.788804 0.221220 -0.471863
C65   C     C_3   0.691933 0.244652 0.447546 0.003427
C66   C     C_3   0.785850 0.255780 0.467543 -0.263952
C67   C     C_R   0.573068 0.904253 0.519987 0.002704
C68   C     C_3   0.832792 0.274265 0.373327 -0.484365
C69   C     C_R   0.422725 0.095862 0.497364 0.003574
C70   C     C_R   0.497127 0.953196 0.508721 0.018548
Cu1   Cu    Cu3+1 0.500010 0.499990 0.597420 0.963890
Cu2   Cu    Cu3+1 0.499990 0.500010 0.402580 0.923877
H1    H     H_    0.709975 0.073524 0.548440 0.140011
H2    H     H_    0.321383 0.933703 0.971555 0.145293
H3    H     H_    0.289286 0.902807 0.850162 0.152401
H4    H     H_    0.754237 0.438213 0.193461 0.137381
H5    H     H_    0.768447 0.461970 0.065243 0.139666
H6    H     H_    0.826070 0.286025 0.162937 0.169643
H7    H     H_    0.846766 0.323978 0.041522 0.176994
H8    H     H_    0.922857 0.457277 0.114956 0.152142
H9    H     H_    0.971554 0.350511 0.142706 0.137582
H10   H     H_    0.909870 0.407222 0.233459 0.188023
H11   H     H_    0.232199 0.550979 0.193153 0.122511
H12   H     H_    0.284077 0.926541 0.487811 0.147365
H13   H     H_    0.260557 0.489284 0.086872 0.127354
H14   H     H_    0.134037 0.646566 0.099567 0.144391
H15   H     H_    0.168778 0.599354 0.986362 0.220317
H16   H     H_    0.114565 0.451477 0.033975 0.154857
H17   H     H_    0.033394 0.536164 0.041441 0.136519
H18   H     H_    0.083674 0.494158 0.151595 0.144925
H19   H     H_    0.604220 0.272995 0.848370 0.121815
H20   H     H_    0.671527 0.234975 0.948375 0.170965
H21   H     H_    0.730949 0.280911 0.740467 0.190622
H22   H     H_    0.795440 0.237294 0.838971 0.155319
H23   H     H_    0.051808 0.415841 0.362255 0.098156
H24   H     H_    0.708058 0.098802 0.842798 0.136455
H25   H     H_    0.754537 0.117539 0.724926 0.146316
H26   H     H_    0.644471 0.142984 0.742865 0.178549
H27   H     H_    0.953650 0.352944 0.524360 0.093274
H28   H     H_    0.048826 0.661325 0.475374 0.099634
H29   H     H_    0.976195 0.609881 0.195902 0.144636
H30   H     H_    0.051556 0.617369 0.292214 0.116354
H31   H     H_    0.888962 0.730630 0.258018 0.170015
H32   H     H_    0.951163 0.737648 0.367600 0.162569
H33   H     H_    0.075480 0.783681 0.272852 0.145674
H34   H     H_    0.946173 0.600685 0.631470 0.098255
H35   H     H_    0.986926 0.856375 0.246498 0.145345
H36   H     H_    0.017113 0.772260 0.159691 0.142680
H37   H     H_    0.025591 0.347187 0.764458 0.146490
H38   H     H_    0.941287 0.397969 0.696998 0.110199
H39   H     H_    0.049889 0.485653 0.856786 0.179838
H40   H     H_    0.970096 0.543506 0.786441 0.159279
H41   H     H_    0.862302 0.433055 0.846061 0.184096
H42   H     H_    0.910123 0.496277 0.941988 0.140697
H43   H     H_    0.943646 0.382327 0.922360 0.143561
H44   H     H_    0.303667 0.682561 0.372150 0.157100
H45   H     H_    0.297564 0.742448 0.801897 0.162167
H46   H     H_    0.393978 0.742555 0.333736 0.134634
H47   H     H_    0.217099 0.825783 0.366684 0.164192
H48   H     H_    0.308084 0.882336 0.319156 0.160045
H49   H     H_    0.311270 0.780919 0.177560 0.185148
H50   H     H_    0.212294 0.840363 0.185861 0.136343
H51   H     H_    0.218729 0.725090 0.223599 0.172160
H52   H     H_    0.666257 0.306498 0.412682 0.159888
H53   H     H_    0.684542 0.188271 0.395580 0.125802
H54   H     H_    0.795404 0.311616 0.518872 0.168991
H55   H     H_    0.811917 0.193932 0.501878 0.152670
H56   H     H_    0.402626 0.725119 0.845283 0.110955
H57   H     H_    0.822761 0.219239 0.321109 0.142736
H58   H     H_    0.901306 0.278829 0.387956 0.142127
H59   H     H_    0.809924 0.338114 0.340708 0.162975
H60   H     H_    0.629889 0.773362 0.526084 0.111948
H61   H     H_    0.366899 0.226841 0.482447 0.111539
H62   H     H_    0.707410 0.911576 0.545231 0.107273
H63   H     H_    0.287243 0.088482 0.483823 0.109680
H64   H     H_    0.610086 0.420415 0.753281 0.165431
H65   H     H_    0.390125 0.580068 0.245778 0.141604
H66   H     H_    0.390194 0.579837 0.750148 0.165640
H67   H     H_    0.252422 0.785616 0.973059 0.188191
H68   H     H_    0.608228 0.417274 0.249919 0.149894
H69   H     H_    0.361547 0.777579 0.010297 0.173117
H70   H     H_    0.398963 0.893458 0.886595 0.152959
N1    N     N_R   0.499960 0.499930 0.743810 -0.258740
N2    N     N_R   0.500040 0.500070 0.256190 -0.252285
O1    O     O_R   0.500020 0.370250 0.582280 -0.483028
O2    O     O_3   0.686969 0.356067 0.102854 -0.585178
O3    O     O_3   0.302295 0.624026 0.096616 -0.599953
O4    O     O_3   0.691953 0.364506 0.901580 -0.587255
O5    O     O_3   0.930760 0.567545 0.326929 -0.577109
O6    O     O_3   0.065697 0.443092 0.669093 -0.553340
O7    O     O_3   0.345035 0.770504 0.474638 -0.587328
O8    O     O_3   0.650708 0.229870 0.536943 -0.592499
O9    O     O_R   0.499980 0.629750 0.417720 -0.510993
O10   O     O_R   0.500010 0.370270 0.417740 -0.513029
O11   O     O_R   0.499990 0.629730 0.582260 -0.496695
O12   O     O_R   0.379080 0.499980 0.582260 -0.490192
O13   O     O_R   0.620920 0.500020 0.417740 -0.509776
O14   O     O_R   0.379070 0.500000 0.417710 -0.520207
O15   O     O_R   0.620930 0.500000 0.582290 -0.501282
O16   O     O_3   0.309003 0.637199 0.896733 -0.575490

loop_
_geom_bond_atom_site_label_1
_geom_bond_atom_site_label_2
_ccdc_geom_bond_type
C66   H55   S    
C6    C69   A    
C66   C68   S    
C34   C56   A    
C16   O12   A    
C23   C45   A    
C27   C29   S    
C14   C18   A    
C1    O1    A    
C47   H7    S    
C12   O9    A    
C5    C67   A    
C59   H38   S    
C46   H4    S    
C56   H61   S    
C9    N1    A    
C7    H1    S    
C41   O8    S    
C53   C54   S    
C27   C33   S    
C16   C31   S    
C15   C19   A    
C29   C36   S    
C27   H27   S    
C6    H63   S    
C22   O16   S    
C35   C37   S    
C11   H66   S    
C24   C26   A    
C58   H35   S    
C33   O6    S    
C51   H18   S    
C11   C14   A    
C65   H52   S    
C4    C41   A    
C23   C40   A    
C33   C36   S    
Cu2   O14   S    
C48   H9    S    
C49   O3    S    
C18   C19   A    
C32   C39   T    
C28   C35   S    
C22   C25   A    
C45   C67   A    
C54   H25   S    
C43   H67   S    
C10   H65   S    
C2    C69   A    
C17   O13   A    
C54   H24   S    
C42   H56   S    
C28   H28   S    
C59   C60   S    
C52   O4    S    
C30   H34   S    
C1    O10   A    
C34   C41   A    
C4    C7    A    
C1    C34   S    
C55   O5    S    
C10   C21   A    
C5    H62   S    
C57   H31   S    
C58   H36   S    
Cu2   O10   S    
C62   O7    S    
C16   O14   A    
C40   O7    S    
C13   H68   S    
C49   H13   S    
C3    C70   A    
C3    C8    A    
C12   C23   S    
C5    C7    A    
C61   H43   S    
C6    C8    A    
C53   H21   S    
Cu2   O13   S    
C66   H54   S    
C30   C37   S    
C60   C61   S    
C65   H53   S    
C44   H3    S    
C44   H2    S    
C43   C44   S    
C62   H44   S    
C62   C63   S    
C60   H40   S    
C63   H47   S    
C9    C20   A    
C2    C4    A    
C47   C48   S    
C55   H30   S    
Cu1   O11   S    
C50   C51   S    
C25   O3    S    
C10   N2    A    
C68   H58   S    
C50   H15   S    
C15   C24   A    
Cu1   O1    S    
C3    C40   A    
C49   C50   S    
C55   C57   S    
C61   H41   S    
C14   C22   A    
C43   H69   S    
C42   C43   S    
C12   O11   A    
C36   C38   S    
C52   C53   S    
Cu1   N1    S    
C59   O6    S    
Cu2   N2    S    
C57   H32   S    
C21   C25   A    
C46   C47   S    
Cu2   O9    S    
C30   C33   S    
C19   C21   A    
C53   H22   S    
C8    H12   S    
C42   O16   S    
C51   H16   S    
C46   H5    S    
C42   H45   S    
C68   H59   S    
C64   H51   S    
Cu1   O15   S    
C29   C35   S    
C55   H29   S    
C31   C38   T    
C67   C70   A    
C58   H33   S    
C65   O8    S    
C13   C15   A    
Cu1   Cu2   S    
C37   C39   S    
C60   H39   S    
C24   O2    S    
C48   H8    S    
C51   H17   S    
C63   H48   S    
C49   H11   S    
C57   C58   S    
C46   O2    S    
C20   C26   A    
C27   C37   S    
C64   H50   S    
Cu1   O12   S    
C28   C30   S    
C59   H37   S    
C48   H10   S    
C18   C20   A    
C65   C66   S    
C68   H57   S    
C17   O15   A    
C62   H46   S    
C52   H20   S    
C50   H14   S    
C29   H23   S    
C63   C64   S    
C9    H64   S    
C26   O4    S    
C28   C36   S    
C45   H60   S    
C44   H70   S    
C56   C69   A    
C61   H42   S    
C17   C32   S    
C54   H26   S    
C52   H19   S    
C35   O5    S    
C47   H6    S    
C2    C70   A    
C11   N1    A    
C13   N2    A    
C64   H49   S    
