data_mof_unit_54221.cif
_audit_creation_date              2012-12-10T18:45:09-0500
_audit_creation_method            fapswitch 2.2
_symmetry_space_group_name_H-M    P1
_symmetry_Int_Tables_number       1
_space_group_crystal_system       triclinic
_cell_length_a                    10.730256
_cell_length_b                    9.824772
_cell_length_c                    10.689096
_cell_angle_alpha                 89.398411
_cell_angle_beta                  90.268347
_cell_angle_gamma                 90.649048
_cell_volume                      1126.72313211

loop_
_atom_site_label
_atom_site_type_symbol
_atom_type_description
_atom_site_fract_x
_atom_site_fract_y
_atom_site_fract_z
_atom_type_partial_charge
Br1   Br    Br    0.721358 0.768403 0.269664 -0.522668
Br2   Br    Br    0.778658 0.690505 0.752094 -0.564404
C1    C     C_R   0.259865 0.499423 0.498694 0.885368
C2    C     C_R   0.515246 0.498919 0.740453 0.967256
C3    C     C_R   0.627378 0.751865 0.118711 0.301394
C4    C     C_R   0.646544 0.727644 0.864382 0.287508
C5    C     C_R   0.640418 0.868491 0.044121 -0.124417
C6    C     C_R   0.652594 0.856192 0.916195 -0.160663
C7    C     C_R   0.592979 0.617853 0.932035 -0.029748
C8    C     C_R   0.591339 0.625050 0.063870 -0.039504
C9    C     C_R   0.564567 0.502478 0.131660 -0.263132
C10   C     C_R   0.554944 0.496074 0.872474 -0.257859
C11   C     C_R   0.574161 0.376658 0.069819 0.349508
C12   C     C_R   0.740213 0.500221 0.497141 0.923223
C13   C     C_R   0.560398 0.372435 0.940789 0.346411
C14   C     C_R   0.062594 0.375057 0.498341 -0.172389
C15   C     C_R   0.934904 0.375508 0.497323 -0.156700
C16   C     C_R   0.872758 0.499917 0.492936 0.005918
C17   C     C_R   0.127512 0.498976 0.494763 -0.026311
C18   C     C_R   0.937928 0.623528 0.486494 -0.088897
C19   C     C_R   0.065409 0.623144 0.487504 -0.168015
C20   C     C_R   0.599118 0.072816 0.547071 0.012109
C21   C     C_R   0.401187 0.071311 0.451983 -0.018370
C22   C     C_R   0.599341 0.929138 0.546317 -0.018108
C23   C     C_R   0.401111 0.927342 0.452146 -0.044959
C24   C     C_R   0.522222 0.501209 0.261939 0.957040
Cl1   Cl    Cl    0.609564 0.223059 0.150805 -0.564265
Cl2   Cl    Cl    0.552274 0.209595 0.870302 -0.582326
H1    H     H_    0.667515 0.963908 0.085851 0.246605
H2    H     H_    0.322202 0.872399 0.413538 0.130117
H3    H     H_    0.690497 0.941117 0.862732 0.207547
H4    H     H_    0.109959 0.278308 0.503194 0.160182
H5    H     H_    0.885410 0.278844 0.501627 0.165249
H6    H     H_    0.891003 0.720458 0.483381 0.198654
H7    H     H_    0.114790 0.719901 0.483832 0.158395
H8    H     H_    0.678415 0.127730 0.584937 0.141781
H9    H     H_    0.322324 0.125266 0.413338 0.130490
H10   H     H_    0.679728 0.876191 0.581346 0.169467
N1    N     N_R   0.500000 0.857200 0.500000 -0.074435
N2    N     N_R   0.500000 0.142810 0.500000 -0.074846
O1    O     O_R   0.316770 0.614620 0.499990 -0.634588
O2    O     O_R   0.683230 0.614620 0.500010 -0.586904
O3    O     O_R   0.316800 0.385290 0.500000 -0.633675
O4    O     O_R   0.683200 0.385290 0.500000 -0.640752
O5    O     O_R   0.500010 0.614690 0.316770 -0.596672
O6    O     O_R   0.499990 0.614690 0.683230 -0.607196
O7    O     O_R   0.500040 0.385360 0.316770 -0.566141
O8    O     O_R   0.499960 0.385360 0.683230 -0.560709
Zn1   Zn    Zn3+2 0.500000 0.653120 0.500000 1.004514
Zn2   Zn    Zn3+2 0.500000 0.346880 0.500000 1.029920

loop_
_geom_bond_atom_site_label_1
_geom_bond_atom_site_label_2
_ccdc_geom_bond_type
C22   H10   S    
O3    Zn2   S    
C1    C17   S    
C19   H7    S    
C14   H4    S    
C20   H8    S    
C7    C8    A    
C12   C16   S    
C24   O5    A    
C10   C13   A    
O5    Zn1   S    
C12   O2    A    
C20   N2    A    
C4    C7    A    
O8    Zn2   S    
C15   C16   A    
C18   H6    S    
C3    C8    A    
C2    O6    A    
C23   N1    A    
C9    C11   A    
O6    Zn1   S    
C1    O3    A    
C13   Cl2   S    
Br2   C4    S    
C15   H5    S    
C24   O7    A    
C14   C17   A    
N2    Zn2   S    
C20   C22   A    
O1    Zn1   S    
C17   C19   A    
O7    Zn2   S    
C16   C18   A    
C21   C23   A    
C11   C13   A    
C7    C10   A    
Br1   C3    S    
C2    C10   S    
C8    C9    A    
O2    Zn1   S    
C5    H1    S    
C5    C6    A    
C22   N1    A    
C18   C19   A    
C12   O4    A    
C2    O8    A    
O4    Zn2   S    
C23   H2    S    
C3    C5    A    
C11   Cl1   S    
C4    C6    A    
C9    C24   S    
N1    Zn1   S    
C21   H9    S    
C6    H3    S    
C1    O1    A    
C21   N2    A    
C14   C15   A    
