data_mof_unit_38883.cif
_audit_creation_date              2013-03-05T15:55:43-0500
_audit_creation_method            fapswitch 2.2
_symmetry_space_group_name_H-M    P1
_symmetry_Int_Tables_number       1
_space_group_crystal_system       triclinic
_cell_length_a                    6.930658
_cell_length_b                    17.61308
_cell_length_c                    19.422929
_cell_angle_alpha                 108.434786
_cell_angle_beta                  89.520745
_cell_angle_gamma                 90.617847
_cell_volume                      2249.13223824

loop_
_atom_site_label
_atom_site_type_symbol
_atom_site_description
_atom_site_fract_x
_atom_site_fract_y
_atom_site_fract_z
_atom_type_partial_charge
O1    O     O_R   0.494330 0.415710 0.413720 -0.601323
O2    O     O_R   0.819360 0.430070 0.560210 -0.592164
O3    O     O_R   0.994320 0.584290 0.586280 -0.552174
C1    C     C_R   0.649956 0.414796 0.581571 1.016057
O4    O     O_R   0.823740 0.406290 0.412670 -0.604928
O5    O     O_R   0.998730 0.560340 0.437690 -0.603307
C2    C     C_R   0.654731 0.383039 0.384724 0.894747
O6    O     O_R   0.489920 0.439660 0.562310 -0.564165
O7    O     O_3   0.662330 0.550570 0.508380 -0.257118
V1    V     V_3+5 0.935370 0.490620 0.498440 1.189253
O8    O     O_R   0.328720 0.569930 0.439790 -0.607873
C3    C     C_R   0.160788 0.585239 0.418303 0.925545
O9    O     O_R   0.324340 0.593710 0.587330 -0.551059
C4    C     C_R   0.155102 0.616861 0.615502 1.005450
V2    V     V_3+5 0.435940 0.509380 0.501560 1.202046
O10   O     O_3   0.159110 0.449430 0.491620 -0.270402
C5    C     C_R   0.303473 0.737572 0.709309 0.609372
C6    C     C_R   0.292605 0.799986 0.775420 -0.306204
H1    H     H_    0.418834 0.837516 0.793924 0.162255
C7    C     C_R   0.121044 0.815372 0.816119 -0.243497
C8    C     C_R   0.960548 0.765722 0.790654 -0.315095
H2    H     H_    0.825803 0.777290 0.820661 0.165388
C9    C     C_R   0.971807 0.699643 0.727062 0.632297
C10   C     C_R   0.143506 0.685488 0.684596 -0.517145
C11   C     C_R   0.308585 0.634466 0.321681 -0.210743
C12   C     C_R   0.153602 0.634688 0.369058 -0.146073
C13   C     C_R   0.990618 0.681439 0.368363 -0.261067
C14   C     C_R   0.982634 0.728051 0.321613 0.174809
C15   C     C_R   0.137207 0.726299 0.273299 0.032306
C16   C     C_R   0.300087 0.678963 0.273127 0.091475
C17   C     C_R   0.822918 0.776611 0.322471 -0.240466
C18   C     C_R   0.815187 0.822461 0.275454 -0.161756
C19   C     C_R   0.966413 0.820225 0.226341 0.226952
C20   C     C_R   0.129092 0.772253 0.225423 -0.046730
C21   C     C_R   0.283578 0.770449 0.176938 -0.039104
C22   C     C_R   0.443487 0.720948 0.175408 0.606477
C23   C     C_R   0.451796 0.676760 0.224349 -0.396970
C24   C     C_R   0.957669 0.865304 0.178346 -0.181949
C25   C     C_R   0.111652 0.864953 0.130635 -0.181397
C26   C     C_R   0.274230 0.817750 0.130584 -0.199799
H3    H     H_    0.871013 0.682428 0.404980 0.138740
H4    H     H_    0.703274 0.778876 0.359329 0.140761
H5    H     H_    0.689718 0.859179 0.277048 0.124874
H6    H     H_    0.832383 0.901910 0.179085 0.127487
C27   C     C_R   0.758974 0.197592 0.879799 0.533631
C28   C     C_R   0.623364 0.134597 0.869403 -0.330514
C29   C     C_R   0.490536 0.119113 0.812359 -0.262269
C30   C     C_R   0.491087 0.164635 0.764604 -0.014674
C31   C     C_R   0.627861 0.227095 0.774228 -0.060062
C32   C     C_R   0.763800 0.242997 0.831282 -0.002838
C33   C     C_R   0.358401 0.148360 0.706909 0.599495
C34   C     C_R   0.360394 0.195133 0.660332 -0.325451
C35   C     C_R   0.495578 0.257462 0.669023 -0.093837
C36   C     C_R   0.631879 0.272594 0.725697 0.001534
C37   C     C_R   0.774127 0.332531 0.733399 0.198095
C38   C     C_R   0.909922 0.346950 0.789237 -0.218725
C39   C     C_R   0.904430 0.303027 0.837797 -0.197135
C40   C     C_R   0.500328 0.303545 0.620978 0.592494
C41   C     C_R   0.641064 0.364678 0.630096 -0.336068
C42   C     C_R   0.779056 0.377196 0.685194 -0.323705
H7    H     H_    0.387238 0.070594 0.805088 0.187640
H8    H     H_    0.889085 0.423049 0.691306 0.156452
H9    H     H_    0.020621 0.392539 0.795521 0.126718
C43   C     C_R   0.811813 0.277485 0.280713 -0.147674
C44   C     C_R   0.800748 0.213848 0.215665 -0.148712
C45   C     C_R   0.621008 0.185485 0.184039 -0.122471
C46   C     C_R   0.452648 0.222628 0.219322 -0.147964
C47   C     C_R   0.463714 0.286270 0.284375 -0.149076
H10   H     H_    0.330828 0.313290 0.309837 0.124219
C48   C     C_R   0.643462 0.314624 0.316002 -0.117392
O11   O     O_R   0.774940 0.060470 0.937800 -0.559949
O12   O     O_R   0.440880 0.093730 0.087350 -0.601034
O13   O     O_R   0.266130 0.939630 0.062280 -0.599794
C49   C     C_R   0.609832 0.117050 0.115327 0.907435
O14   O     O_R   0.445480 0.069960 0.939820 -0.598775
O15   O     O_R   0.270770 0.915690 0.913690 -0.604821
C50   C     C_R   0.614847 0.085071 0.918362 1.006320
O16   O     O_R   0.770300 0.084410 0.086380 -0.597077
O17   O     O_3   0.602600 0.949510 0.991670 -0.281739
V3    V     V_3+5 0.329470 0.009370 0.001550 1.162269
O18   O     O_R   0.940760 0.906160 0.912560 -0.607716
C51   C     C_R   0.109925 0.883364 0.884647 0.999323
O19   O     O_R   0.936150 0.929930 0.060100 -0.595346
C52   C     C_R   0.104113 0.914688 0.081639 0.940361
V4    V     V_3+5 0.828930 0.990450 0.998310 1.168832
O20   O     O_3   0.105670 0.050490 0.008320 -0.258503
O21   O     O_3   0.475002 0.725751 0.670759 -0.561939
C53   C     C_3   0.484639 0.779516 0.630303 -0.141203
H11   H     H_    0.491628 0.842695 0.666420 0.114618
H12   H     H_    0.360759 0.770705 0.592318 0.096556
H13   H     H_    0.618698 0.767647 0.597140 0.160108
H14   H     H_    0.392208 0.817111 0.093443 0.178432
O22   O     O_3   0.598620 0.720920 0.130061 -0.618529
C54   C     C_3   0.603785 0.646789 0.074235 -0.270011
H15   H     H_    0.717871 0.649853 0.034775 0.172095
H16   H     H_    0.464628 0.633561 0.044304 0.128885
H17   H     H_    0.641497 0.597335 0.095666 0.140525
H18   H     H_    0.578441 0.641295 0.224616 0.166223
O23   O     O_3   0.892834 0.212172 0.935079 -0.614792
C55   C     C_3   0.811731 0.265764 0.998528 -0.235027
H19   H     H_    0.681540 0.239640 0.016673 0.113484
H20   H     H_    0.775769 0.323920 0.990692 0.123607
H21   H     H_    0.919580 0.277993 0.042669 0.169945
O24   O     O_3   0.238697 0.081820 0.691275 -0.630030
C56   C     C_3   0.055333 0.106229 0.721240 -0.254370
H22   H     H_    0.989987 0.149757 0.697534 0.152796
H23   H     H_    0.063596 0.131715 0.781316 0.160286
H24   H     H_    0.958629 0.053051 0.708483 0.175033
H25   H     H_    0.257752 0.180899 0.616236 0.194043
O25   O     O_3   0.364177 0.290321 0.566568 -0.611366
C57   C     C_3   0.442374 0.237613 0.502002 -0.229723
H26   H     H_    0.480720 0.179114 0.508628 0.129940
H27   H     H_    0.570475 0.264303 0.483160 0.107682
H28   H     H_    0.331751 0.225864 0.458856 0.170785
H29   H     H_    0.012126 0.315833 0.880100 0.170218
H30   H     H_    0.952710 0.297633 0.303224 0.120678
H31   H     H_    0.933647 0.186832 0.190211 0.124851
H32   H     H_    0.311760 0.202474 0.196805 0.121041
O26   O     O_3   0.810615 0.651423 0.704248 -0.552011
C58   C     C_3   0.779502 0.604982 0.750698 -0.177051
H33   H     H_    0.911712 0.571931 0.756138 0.085591
H34   H     H_    0.665242 0.559956 0.726874 0.153545
H35   H     H_    0.727457 0.642449 0.804977 0.116884
H36   H     H_    0.434217 0.598234 0.321498 0.132922

loop_
_geom_bond_atom_site_label_1
_geom_bond_atom_site_label_2
_geom_bond_distance
_ccdc_geom_bond_type
O21   C53   1.409625 S    
O22   C54   1.409520 S    
C43   H30   1.082691 S    
C17   H4    1.083700 S    
C7    C51   1.484526 S    
C40   O25   1.384831 S    
C21   C22   1.411821 A    
O11   C50   1.297003 A    
C1    O6    1.297306 A    
C2    C48   1.490725 S    
O18   C51   1.300603 A    
C39   H29   1.082838 S    
C17   C18   1.398974 A    
C35   C36   1.414747 A    
C58   H33   1.114306 S    
C56   H23   1.111581 S    
C12   C13   1.407665 A    
O19   C52   1.299272 A    
C27   C32   1.415709 A    
C14   C15   1.412360 A    
C25   C52   1.484861 S    
C6    H1    1.083514 S    
C9    O26   1.384030 S    
C24   C25   1.406292 A    
C31   C36   1.417152 A    
C45   C49   1.490750 S    
C38   C39   1.396333 A    
C42   H8    1.084179 S    
C20   C21   1.413918 A    
C4    C10   1.497623 S    
O25   C57   1.411165 S    
C23   H18   1.083779 S    
V3    O20   1.705365 S    
O9    C4    1.303809 A    
C36   C37   1.410288 A    
O8    V2    1.992538 S    
C22   O22   1.384071 S    
C18   H5    1.083689 S    
C30   C33   1.411378 A    
C29   C30   1.404792 A    
C47   H10   1.082716 S    
C9    C10   1.420724 A    
O1    V2    2.004775 S    
C43   C48   1.406623 A    
O14   V3    1.999366 S    
O13   C52   1.296923 A    
C58   H35   1.111672 S    
C45   C46   1.406653 A    
C41   C42   1.404231 A    
C5    O21   1.381702 S    
C37   C42   1.400500 A    
O24   C56   1.407035 S    
C46   H32   1.082687 S    
C58   H34   1.109346 S    
C19   C20   1.412830 A    
C56   H24   1.109203 S    
C5    C10   1.417599 A    
C33   C34   1.402931 A    
O12   C49   1.301623 A    
C27   O23   1.384414 S    
O15   C51   1.295680 A    
C25   C26   1.407291 A    
O4    C2    1.301571 A    
C54   H17   1.111903 S    
C11   C12   1.407770 A    
V4    O20   2.160379 S    
C15   C20   1.414518 A    
C55   H21   1.109320 S    
C46   C47   1.401017 A    
C16   C23   1.401994 A    
C3    C12   1.484750 S    
O2    C1    1.295609 A    
C24   H6    1.084386 S    
C15   C16   1.409938 A    
C13   H3    1.084383 S    
O23   C55   1.410614 S    
C53   H13   1.109450 S    
O26   C58   1.410377 S    
C7    C8    1.400472 A    
C37   C38   1.401505 A    
C55   H20   1.113219 S    
C5    C6    1.403710 A    
C38   H9    1.083767 S    
C57   H27   1.112429 S    
C26   H14   1.083644 S    
C54   H16   1.114134 S    
O14   C50   1.295239 A    
O3    C4    1.297624 A    
O16   V4    2.010586 S    
C30   C31   1.412157 A    
O19   V4    1.992453 S    
C53   H12   1.113938 S    
C44   C45   1.408550 A    
O6    V2    1.993453 S    
C8    C9    1.406211 A    
O2    V1    1.999457 S    
O17   V4    1.708015 S    
C34   C35   1.405252 A    
O7    V1    2.154352 S    
C11   C16   1.405871 A    
C28   C29   1.403552 A    
C22   C23   1.407976 A    
C33   O24   1.382817 S    
C57   H26   1.113170 S    
O1    C2    1.297116 A    
C32   C39   1.406803 A    
C14   C17   1.402923 A    
O15   V3    2.004112 S    
C29   H7    1.083953 S    
C28   C50   1.480284 S    
C35   C40   1.417255 A    
C56   H22   1.113153 S    
C19   C24   1.404703 A    
C43   C44   1.400902 A    
O9    V2    2.004475 S    
C21   C26   1.409041 A    
C40   C41   1.414840 A    
O4    V1    2.002949 S    
O12   V3    2.002961 S    
O3    V1    2.004135 S    
V1    O10   1.705427 S    
C18   C19   1.403720 A    
O5    C3    1.297062 A    
C34   H25   1.083050 S    
O11   V4    1.994057 S    
C1    C41   1.481672 S    
C55   H19   1.112820 S    
O13   V3    1.997230 S    
C57   H28   1.109317 S    
C6    C7    1.402804 A    
O7    V2    1.709935 S    
C54   H15   1.109338 S    
C11   H36   1.084384 S    
O5    V1    1.997280 S    
O17   V3    2.154241 S    
C27   C28   1.412155 A    
C53   H11   1.112844 S    
C47   C48   1.408568 A    
C31   C32   1.417593 A    
C49   O16   1.297073 A    
C13   C14   1.405308 A    
C44   H31   1.082714 S    
C8    H2    1.083150 S    
O18   V4    2.004523 S    
V2    O10   2.160293 S    
O8    C3    1.299064 A    
