data_mof_unit_21227.cif
_audit_creation_date              2013-03-05T15:51:59-0500
_audit_creation_method            fapswitch 2.2
_symmetry_space_group_name_H-M    P1
_symmetry_Int_Tables_number       1
_space_group_crystal_system       triclinic
_cell_length_a                    18.888666
_cell_length_b                    11.036683
_cell_length_c                    18.723482
_cell_angle_alpha                 90.011137
_cell_angle_beta                  90.996899
_cell_angle_gamma                 89.963849
_cell_volume                      3902.65929947

loop_
_atom_site_label
_atom_site_type_symbol
_atom_site_description
_atom_site_fract_x
_atom_site_fract_y
_atom_site_fract_z
_atom_type_partial_charge
O1    O     O_R   0.214300 0.709080 0.827500 -0.462782
O2    O     O_R   0.785700 0.709080 0.172500 -0.454897
O3    O     O_R   0.714300 0.209080 0.827500 -0.462462
O4    O     O_R   0.285700 0.209080 0.172500 -0.462679
O5    O     O_R   0.236190 0.958390 0.823150 -0.503286
O6    O     O_R   0.763810 0.958390 0.176850 -0.495591
O7    O     O_R   0.736190 0.458390 0.823150 -0.503591
O8    O     O_R   0.263810 0.458390 0.176850 -0.503605
C1    C     C_R   0.273746 0.039573 0.855028 0.544990
C2    C     C_R   0.726425 0.038920 0.144376 0.539597
C3    C     C_R   0.773468 0.540435 0.854740 0.544206
C4    C     C_R   0.226786 0.540590 0.145239 0.541725
O9    O     O_R   0.332090 0.075280 0.831290 -0.524710
O10   O     O_R   0.667910 0.075280 0.168710 -0.522172
O11   O     O_R   0.832090 0.575280 0.831290 -0.525193
O12   O     O_R   0.167910 0.575280 0.168710 -0.520377
O13   O     O_R   0.446280 0.918040 0.826620 -0.478100
O14   O     O_R   0.553720 0.918040 0.173380 -0.468732
O15   O     O_R   0.946280 0.418040 0.826620 -0.478259
O16   O     O_R   0.053720 0.418040 0.173380 -0.467726
C5    C     C_R   0.469931 0.821530 0.855468 0.569710
C6    C     C_R   0.530352 0.820639 0.144142 0.568496
C7    C     C_R   0.968902 0.321501 0.855965 0.572641
C8    C     C_R   0.030421 0.320820 0.144179 0.566308
O17   O     O_R   0.457080 0.716270 0.831760 -0.527308
O18   O     O_R   0.542920 0.716270 0.168240 -0.535725
O19   O     O_R   0.957080 0.216270 0.831760 -0.533644
O20   O     O_R   0.042920 0.216270 0.168240 -0.531927
O21   O     O_R   0.320980 0.624440 0.823040 -0.516721
O22   O     O_R   0.679020 0.624440 0.176960 -0.513919
O23   O     O_R   0.820980 0.124440 0.823040 -0.520522
O24   O     O_R   0.179020 0.124440 0.176960 -0.508063
C9    C     C_R   0.259543 0.632916 0.850318 0.569653
C10   C     C_R   0.740423 0.634055 0.149529 0.573001
C11   C     C_R   0.759097 0.132059 0.850009 0.559971
C12   C     C_R   0.240411 0.133562 0.149730 0.574602
O25   O     O_R   0.213880 0.710510 0.665560 -0.524083
O26   O     O_R   0.786120 0.710510 0.334440 -0.514577
O27   O     O_R   0.713880 0.210510 0.665560 -0.517897
O28   O     O_R   0.286120 0.210510 0.334440 -0.515489
O29   O     O_R   0.235800 0.959720 0.673040 -0.525516
O30   O     O_R   0.764200 0.959720 0.326960 -0.515008
O31   O     O_R   0.735800 0.459720 0.673040 -0.522400
O32   O     O_R   0.264200 0.459720 0.326960 -0.525743
C13   C     C_R   0.270916 0.049314 0.647560 0.533976
C14   C     C_R   0.729169 0.046579 0.352999 0.549578
C15   C     C_R   0.770802 0.549511 0.647928 0.537031
C16   C     C_R   0.229466 0.546796 0.352746 0.536397
O33   O     O_R   0.331670 0.076720 0.669350 -0.526719
O34   O     O_R   0.668330 0.076720 0.330650 -0.528740
O35   O     O_R   0.831670 0.576720 0.669350 -0.529511
O36   O     O_R   0.168330 0.576720 0.330650 -0.528349
O37   O     O_R   0.445900 0.919370 0.676500 -0.503697
O38   O     O_R   0.554100 0.919370 0.323500 -0.513460
O39   O     O_R   0.945900 0.419370 0.676500 -0.506192
O40   O     O_R   0.054100 0.419370 0.323500 -0.514991
C17   C     C_R   0.469663 0.822776 0.646716 0.544259
C18   C     C_R   0.528854 0.823824 0.352187 0.563083
C19   C     C_R   0.970669 0.322550 0.647416 0.542188
C20   C     C_R   0.029634 0.323452 0.352638 0.550020
O41   O     O_R   0.456660 0.717710 0.669820 -0.495934
O42   O     O_R   0.543340 0.717710 0.330180 -0.453345
O43   O     O_R   0.956660 0.217710 0.669820 -0.490785
O44   O     O_R   0.043340 0.217710 0.330180 -0.456122
O45   O     O_R   0.320590 0.625770 0.672930 -0.479614
O46   O     O_R   0.679410 0.625770 0.327070 -0.511596
O47   O     O_R   0.820590 0.125770 0.672930 -0.488979
O48   O     O_R   0.179410 0.125770 0.327070 -0.495401
C21   C     C_R   0.274423 0.689346 0.636595 0.566898
C22   C     C_R   0.737594 0.645212 0.359129 0.548679
C23   C     C_R   0.773311 0.185984 0.636526 0.570346
C24   C     C_R   0.225512 0.190642 0.363184 0.557418
Cr1   Cr    Cr6+3 0.229640 0.835880 0.747370 1.032420
Cr2   Cr    Cr6+3 0.770360 0.835880 0.252630 1.048766
Cr3   Cr    Cr6+3 0.729640 0.335880 0.747370 1.036524
Cr4   Cr    Cr6+3 0.270360 0.335880 0.252630 1.032267
Cr5   Cr    Cr6+3 0.387390 0.989720 0.750850 1.033793
Cr6   Cr    Cr6+3 0.612610 0.989720 0.249150 1.044513
Cr7   Cr    Cr6+3 0.887390 0.489720 0.750850 1.032260
Cr8   Cr    Cr6+3 0.112610 0.489720 0.249150 1.037971
Cr9   Cr    Cr6+3 0.385770 0.677220 0.749340 1.015477
Cr10  Cr    Cr6+3 0.614230 0.677220 0.250660 1.020623
Cr11  Cr    Cr6+3 0.885770 0.177220 0.749340 1.013023
Cr12  Cr    Cr6+3 0.114230 0.177220 0.250660 1.029778
O49   O     O_3   0.334270 0.834280 0.749190 -0.286573
O50   O     O_3   0.665730 0.834280 0.250810 -0.271931
O51   O     O_3   0.834270 0.334280 0.749190 -0.283882
O52   O     O_3   0.165730 0.334280 0.250810 -0.291770
C25   C     C_3   0.444264 0.875679 0.031926 -0.117962
C26   C     C_3   0.492262 0.941080 0.978045 -0.050809
C27   C     C_3   0.944579 0.380831 0.032896 -0.114862
C28   C     C_3   0.993145 0.442194 0.977933 -0.043185
C29   C     C_3   0.442129 0.763541 0.983243 -0.148455
C30   C     C_3   0.558740 0.887372 0.015734 -0.083082
C31   C     C_3   0.938811 0.268427 0.984773 -0.159993
C32   C     C_3   0.058935 0.385033 0.015128 -0.080944
H1    H     H_    0.393229 0.716821 0.966621 0.139214
H2    H     H_    0.607996 0.931740 0.033364 0.135871
H3    H     H_    0.886297 0.229067 0.971613 0.115237
H4    H     H_    0.109520 0.427939 0.030785 0.129193
H5    H     H_    0.395802 0.904329 0.059205 0.163283
H6    H     H_    0.485438 0.034892 0.958477 0.217916
H7    H     H_    0.897071 0.412436 0.060609 0.165020
H8    H     H_    0.986905 0.535621 0.957600 0.221927
C33   C     C_3   0.490608 0.828276 0.930507 0.044068
C34   C     C_3   0.510039 0.823417 0.068573 0.056027
C35   C     C_3   0.988280 0.328768 0.931158 0.048565
C36   C     C_3   0.009572 0.324642 0.068890 0.054436
C37   C     C_3   0.556137 0.774390 0.967094 -0.129033
C38   C     C_3   0.507934 0.709971 0.020845 -0.113805
C39   C     C_3   0.053076 0.271545 0.967219 -0.126521
C40   C     C_3   0.004073 0.211008 0.021765 -0.123885
H9    H     H_    0.601792 0.735872 0.938434 0.130778
H10   H     H_    0.511785 0.614676 0.039159 0.129840
H11   H     H_    0.097260 0.229101 0.938121 0.129062
H12   H     H_    0.007833 0.115922 0.040322 0.129862
C41   C     C_R   0.241749 0.577518 0.071914 -0.033451
C42   C     C_R   0.759540 0.577586 0.928024 -0.025830
C43   C     C_R   0.738105 0.062383 0.068171 -0.041042
C44   C     C_R   0.260616 0.073753 0.928891 -0.029195
C45   C     C_R   0.302945 0.543183 0.036470 -0.031092
C46   C     C_R   0.697044 0.549981 0.962759 -0.042127
C47   C     C_R   0.786353 0.992920 0.029826 0.007260
C48   C     C_R   0.197213 0.049988 0.962955 -0.042694
C49   C     C_R   0.305952 0.547325 0.962459 -0.048721
C50   C     C_R   0.693203 0.557315 0.036545 -0.025608
C51   C     C_R   0.788939 0.997232 0.956085 -0.032569
C52   C     C_R   0.192961 0.057200 0.036742 -0.026958
C53   C     C_R   0.183938 0.612433 0.955930 0.160389
C54   C     C_R   0.817208 0.615350 0.044053 0.153989
C55   C     C_R   0.680056 0.109057 0.953380 0.162722
C56   C     C_R   0.317902 0.107727 0.045466 0.139766
C57   C     C_R   0.184500 0.622080 0.030272 -0.176578
C58   C     C_R   0.817863 0.618268 0.969610 -0.149945
C59   C     C_R   0.682940 0.117590 0.028121 -0.184421
C60   C     C_R   0.319682 0.108809 0.971116 -0.162742
C61   C     C_3   0.344663 0.429142 0.040788 -0.204433
C62   C     C_3   0.653541 0.438160 0.959105 -0.207262
C63   C     C_3   0.864105 0.975610 0.037668 -0.252384
C64   C     C_3   0.151653 0.940562 0.958770 -0.208006
C65   C     C_3   0.347834 0.432738 0.959981 -0.251078
C66   C     C_3   0.650016 0.444168 0.039727 -0.248311
C67   C     C_3   0.866743 0.973146 0.956110 -0.260844
C68   C     C_3   0.147782 0.946281 0.039382 -0.243925
C69   C     C_R   0.246925 0.580354 0.920728 0.007744
C70   C     C_R   0.752887 0.586271 0.078456 0.001846
C71   C     C_R   0.741194 0.069701 0.916891 0.007863
C72   C     C_R   0.252771 0.083298 0.079219 -0.001894
H13   H     H_    0.135456 0.648278 0.055134 0.194214
H14   H     H_    0.867518 0.639800 0.944643 0.180945
H15   H     H_    0.637946 0.156628 0.054814 0.193574
H16   H     H_    0.370041 0.127119 0.946721 0.183527
H17   H     H_    0.877084 0.888127 0.063416 0.217330
H18   H     H_    0.180974 0.860440 0.939285 0.191572
H19   H     H_    0.312818 0.352612 0.060955 0.185389
H20   H     H_    0.684199 0.359384 0.939768 0.187375
H21   H     H_    0.397014 0.442778 0.067613 0.169413
H22   H     H_    0.601621 0.454073 0.931832 0.174093
H23   H     H_    0.890038 0.055592 0.062621 0.129325
H24   H     H_    0.100161 0.959262 0.931281 0.169244
H25   H     H_    0.402208 0.448051 0.940057 0.165351
H26   H     H_    0.595826 0.460818 0.059505 0.156918
H27   H     H_    0.898879 0.045400 0.931936 0.165352
H28   H     H_    0.093803 0.965642 0.058876 0.157738
H29   H     H_    0.318266 0.357957 0.933199 0.145586
H30   H     H_    0.678836 0.369288 0.067266 0.136339
H31   H     H_    0.878529 0.881327 0.934985 0.168207
H32   H     H_    0.175052 0.869772 0.066922 0.141949
C73   C     C_R   0.496869 0.836333 0.421909 0.007802
C74   C     C_R   0.489203 0.826638 0.572141 -0.009234
C75   C     C_R   0.000504 0.334051 0.423541 0.001963
C76   C     C_R   0.992768 0.324374 0.573632 -0.013036
C77   C     C_R   0.461537 0.740374 0.455299 -0.019339
C78   C     C_R   0.463034 0.733803 0.528352 0.022056
C79   C     C_R   0.965332 0.237341 0.456795 -0.028587
C80   C     C_R   0.966306 0.231248 0.530065 0.022737
C81   C     C_R   0.512336 0.932972 0.539161 -0.181480
C82   C     C_R   0.516571 0.937667 0.464476 -0.168368
C83   C     C_R   0.018818 0.428630 0.540970 -0.185723
C84   C     C_R   0.023034 0.433293 0.466416 -0.172792
C85   C     C_3   0.456788 0.603642 0.449494 0.168510
C86   C     C_3   0.472262 0.599477 0.529462 0.177168
C87   C     C_3   0.963817 0.099845 0.451300 0.164773
C88   C     C_3   0.979961 0.097814 0.531143 0.173184
H33   H     H_    0.528120 0.010903 0.570795 0.131091
H34   H     H_    0.540737 0.016771 0.440980 0.139310
H35   H     H_    0.035875 0.505596 0.572762 0.134859
H36   H     H_    0.048474 0.511394 0.443034 0.148807
H37   H     H_    0.401703 0.577658 0.433847 0.128787
H38   H     H_    0.528420 0.575887 0.542096 0.089470
H39   H     H_    0.910001 0.069218 0.434981 0.134775
H40   H     H_    0.036452 0.080073 0.542659 0.087058
C89   C     C_R   0.249718 0.581952 0.422995 0.021835
C90   C     C_R   0.753768 0.604666 0.580553 0.023902
C91   C     C_R   0.752391 0.092425 0.420485 0.010205
C92   C     C_R   0.250657 0.112992 0.583074 0.009779
C93   C     C_R   0.272001 0.698673 0.438527 -0.017770
C94   C     C_R   0.810823 0.644057 0.539744 0.011404
C95   C     C_R   0.731360 0.206919 0.444026 0.010758
C96   C     C_R   0.304871 0.167244 0.544308 0.014090
C97   C     C_R   0.281559 0.733282 0.508912 -0.016134
C98   C     C_R   0.804271 0.653162 0.467918 0.016165
C99   C     C_R   0.737475 0.235346 0.515651 -0.004734
C100  C     C_R   0.295351 0.194618 0.473886 0.021704
C101  C     C_R   0.251499 0.531241 0.548193 -0.095152
C102  C     C_R   0.679562 0.613390 0.475539 -0.173438
C103  C     C_R   0.786310 0.037303 0.540472 -0.094635
C104  C     C_R   0.172240 0.141854 0.481404 -0.178962
C105  C     C_R   0.242024 0.496753 0.477646 -0.143550
C106  C     C_R   0.686088 0.603457 0.549900 -0.183625
C107  C     C_R   0.781640 0.008676 0.468996 -0.170242
C108  C     C_R   0.182513 0.109784 0.553532 -0.181184
C109  C     C_3   0.237857 0.815074 0.417573 -0.262948
C110  C     C_3   0.883757 0.591798 0.533319 -0.246555
C111  C     C_3   0.659714 0.264356 0.437871 -0.270083
C112  C     C_3   0.378761 0.122720 0.532513 -0.262107
C113  C     C_3   0.247702 0.852884 0.494654 -0.276059
C114  C     C_3   0.876020 0.604807 0.453503 -0.269746
C115  C     C_3   0.664574 0.287499 0.516899 -0.275105
C116  C     C_3   0.368038 0.153087 0.454812 -0.253899
C117  C     C_R   0.268313 0.651710 0.563910 0.072962
C118  C     C_R   0.740993 0.624785 0.434210 0.017217
C119  C     C_R   0.765689 0.151819 0.563595 0.039157
C120  C     C_R   0.230772 0.171821 0.439585 -0.002403
H41   H     H_    0.241566 0.466508 0.590321 0.126009
H42   H     H_    0.627944 0.607636 0.450620 0.198826
H43   H     H_    0.803075 0.968498 0.577944 0.168373
H44   H     H_    0.120600 0.136900 0.457301 0.194726
H45   H     H_    0.222819 0.406926 0.465944 0.114765
H46   H     H_    0.640721 0.582171 0.581918 0.108055
H47   H     H_    0.795535 0.917558 0.452846 0.144729
H48   H     H_    0.140316 0.072824 0.584720 0.110928
H49   H     H_    0.181397 0.804198 0.401325 0.149755
H50   H     H_    0.885062 0.495643 0.550575 0.168766
H51   H     H_    0.615934 0.201239 0.423723 0.150297
H52   H     H_    0.384075 0.024191 0.542562 0.155871
H53   H     H_    0.270670 0.868282 0.380128 0.152154
H54   H     H_    0.925451 0.651169 0.557016 0.133496
H55   H     H_    0.661420 0.348928 0.405908 0.145059
H56   H     H_    0.419773 0.178854 0.559390 0.131091
H57   H     H_    0.286390 0.926833 0.500664 0.143341
H58   H     H_    0.911594 0.674529 0.430863 0.136216
H59   H     H_    0.664053 0.383697 0.530984 0.152846
H60   H     H_    0.402142 0.228542 0.437065 0.127888
H61   H     H_    0.197035 0.864352 0.523246 0.148228
H62   H     H_    0.874649 0.516718 0.424630 0.146432
H63   H     H_    0.627026 0.231229 0.547827 0.142236
H64   H     H_    0.367853 0.071680 0.419739 0.157142
O53   O     O_3   0.017819 0.047140 0.410629 -0.556979
C121  C     C_3   0.014521 0.919241 0.414000 -0.024695
H65   H     H_    0.960816 0.883315 0.426000 0.117766
H66   H     H_    0.052292 0.886903 0.455994 0.119136
C122  C     C_3   0.036495 0.866954 0.342566 -0.337725
H67   H     H_    0.089407 0.901970 0.327962 0.169223
H68   H     H_    0.038815 0.766541 0.345955 0.104142
H69   H     H_    0.997407 0.893180 0.300337 0.157346
O54   O     O_3   0.931240 0.030701 0.571682 -0.557359
C123  C     C_3   0.967700 0.936799 0.608665 -0.012502
H70   H     H_    0.011502 0.974226 0.642704 0.135605
H71   H     H_    0.989760 0.870580 0.570144 0.100007
C124  C     C_3   0.918066 0.869353 0.657934 -0.345205
H72   H     H_    0.874848 0.825544 0.626732 0.146517
H73   H     H_    0.947952 0.797564 0.687095 0.107508
H74   H     H_    0.895385 0.932408 0.697597 0.180571
O55   O     O_3   0.510767 0.549436 0.409455 -0.565067
C125  C     C_3   0.493290 0.428595 0.391459 -0.024297
H75   H     H_    0.435344 0.411879 0.385330 0.124303
H76   H     H_    0.515017 0.367098 0.433376 0.117094
C126  C     C_3   0.525984 0.397407 0.320025 -0.328545
H77   H     H_    0.583060 0.420797 0.320276 0.162324
H78   H     H_    0.519768 0.299036 0.309081 0.101484
H79   H     H_    0.499026 0.449451 0.276653 0.157260
O56   O     O_3   0.419807 0.538814 0.568811 -0.542675
C127  C     C_3   0.451100 0.437658 0.603512 -0.001319
H80   H     H_    0.498102 0.464745 0.636668 0.124308
H81   H     H_    0.467855 0.370122 0.563099 0.100408
C128  C     C_3   0.398831 0.378772 0.653723 -0.326526
H82   H     H_    0.347694 0.361971 0.625705 0.165102
H83   H     H_    0.420614 0.291243 0.673399 0.104658
H84   H     H_    0.390141 0.437676 0.700741 0.172958
N1    N     N_R   0.118468 0.631341 0.916939 0.069195
O57   O     O_R   0.103134 0.564975 0.861304 -0.345131
O58   O     O_R   0.071038 0.706077 0.940674 -0.377583
N2    N     N_R   0.882835 0.636434 0.083431 0.061220
O59   O     O_R   0.894841 0.582879 0.144457 -0.344780
O60   O     O_R   0.935605 0.690499 0.053025 -0.377351
N3    N     N_R   0.615313 0.139398 0.915596 0.071765
O61   O     O_R   0.597713 0.081086 0.857509 -0.337867
O62   O     O_R   0.568901 0.210743 0.944330 -0.380048
N4    N     N_R   0.382743 0.130148 0.085594 0.065592
O63   O     O_R   0.395010 0.075077 0.146084 -0.342477
O64   O     O_R   0.433592 0.192934 0.057686 -0.362800

loop_
_geom_bond_atom_site_label_1
_geom_bond_atom_site_label_2
_geom_bond_distance
_ccdc_geom_bond_type
O4    C12   1.263441 A    
O25   C21   1.295235 A    
C54   C70   1.421914 A    
C41   C57   1.410416 A    
Cr7   O51   1.987929 S    
C5    C33   1.453623 S    
C79   C87   1.521216 S    
N2    O59   1.302862 A    
C113  H61   1.111824 S    
O39   C19   1.290456 A    
C108  H48   1.076742 S    
C31   H3    1.106948 S    
C121  H66   1.111252 S    
C24   C120  1.447222 S    
O21   C9    1.279347 A    
C127  H80   1.115373 S    
C1    O9    1.258970 A    
O44   Cr12  2.068290 S    
C3    O11   1.258678 A    
C12   C72   1.454467 S    
C4    O12   1.262077 A    
C25   C34   1.522067 S    
C102  H42   1.075430 S    
N3    O62   1.301284 A    
C53   C69   1.414876 A    
C29   C38   1.535893 S    
O2    C10   1.260947 A    
C121  C122  1.520831 S    
C116  H64   1.112747 S    
C63   H23   1.108996 S    
C68   H28   1.109542 S    
O17   Cr9   2.075957 S    
C54   C58   1.394486 A    
C109  H49   1.110478 S    
C67   H27   1.104333 S    
C60   H16   1.081516 S    
O31   Cr3   1.955784 S    
O16   Cr8   1.954891 S    
O13   C5    1.271639 A    
O28   Cr4   2.081804 S    
O12   Cr8   2.075501 S    
O22   Cr10  1.949033 S    
O15   C7    1.269326 A    
C87   C88   1.520692 S    
O6    C2    1.281699 A    
O46   Cr10  1.955283 S    
C79   C80   1.373329 A    
O14   Cr6   1.954891 S    
C7    C35   1.450730 S    
C111  H51   1.110094 S    
C51   C67   1.493286 S    
C52   C68   1.494023 S    
C86   O56   1.413922 S    
C53   C57   1.395858 A    
C76   C83   1.396968 A    
C126  H78   1.110732 S    
C2    O10   1.267729 A    
C111  H55   1.109657 S    
C94   C110  1.499914 S    
C122  H68   1.110848 S    
C74   C78   1.397335 A    
C80   C88   1.495011 S    
C25   H5    1.102086 S    
Cr12  O52   1.988229 S    
C26   C33   1.530308 S    
C27   H7    1.100874 S    
C17   O41   1.263463 A    
C43   C47   1.398374 A    
C30   C37   1.544266 S    
C19   O43   1.260667 A    
C20   O44   1.268479 A    
Cr8   O52   1.986847 S    
C10   C70   1.454260 S    
O46   C22   1.261543 A    
O23   C11   1.284033 A    
C21   C117  1.425603 S    
C28   H8    1.104753 S    
C4    C41   1.464486 S    
C92   C108  1.392552 A    
C16   O36   1.263599 A    
C63   H17   1.104765 S    
C86   H38   1.113488 S    
O31   C15   1.285328 A    
O32   C16   1.263787 A    
O47   Cr11  1.955573 S    
C16   C89   1.417531 S    
C39   C40   1.542759 S    
C97   C117  1.393961 A    
C78   C86   1.492722 S    
C45   C49   1.388655 A    
O53   C121  1.414461 S    
C95   C111  1.496677 S    
O24   C12   1.278859 A    
C110  H54   1.111216 S    
C124  H72   1.106909 S    
C59   H15   1.082569 S    
C90   C106  1.392229 A    
C47   C63   1.485630 S    
O8    Cr4   1.962421 S    
C61   H19   1.107453 S    
O54   C123  1.417971 S    
C42   C46   1.391598 A    
C45   C61   1.486013 S    
O32   Cr4   1.955303 S    
C102  C106  1.399904 A    
C26   H6    1.105074 S    
C2    C43   1.470621 S    
C63   C67   1.528972 S    
O11   Cr7   2.074635 S    
C49   C65   1.492429 S    
C94   C98   1.352129 A    
C55   C71   1.419766 A    
O27   Cr3   2.081658 S    
O3    Cr3   2.076008 S    
C38   H10   1.108242 S    
C42   C58   1.411434 A    
C96   C100  1.361618 A    
C13   C92   1.442949 S    
Cr5   O49   1.987929 S    
C128  H82   1.106861 S    
C103  C107  1.376374 A    
C104  C108  1.406323 A    
C91   C95   1.397893 A    
C32   C39   1.543390 S    
O22   C10   1.281061 A    
C112  H56   1.106381 S    
C18   C73   1.454478 S    
C110  C114  1.505913 S    
C27   C28   1.546975 S    
C11   C71   1.473612 S    
C82   H34   1.082477 S    
O5    C1    1.283794 A    
C66   H30   1.111323 S    
C62   H22   1.111641 S    
C47   C51   1.383228 A    
O3    C11   1.266102 A    
C56   C60   1.393128 A    
Cr1   O49   1.976092 S    
C101  H41   1.083207 S    
C67   H31   1.111561 S    
C125  H76   1.110725 S    
Cr3   O51   1.976092 S    
C29   H1    1.098370 S    
C40   H12   1.107367 S    
C17   C74   1.451099 S    
O26   Cr2   2.081804 S    
C33   C37   1.524706 S    
O27   C23   1.284436 A    
O28   C24   1.292320 A    
O14   C6    1.281428 A    
C20   C75   1.450561 S    
C35   C39   1.524164 S    
C8    O20   1.259480 A    
C125  C126  1.522176 S    
C124  H74   1.108984 S    
C104  C120  1.405520 A    
C65   H29   1.111418 S    
O40   Cr8   1.953768 S    
C61   H21   1.111569 S    
C98   C114  1.485294 S    
N2    O60   1.301657 A    
C123  H70   1.115033 S    
C49   C69   1.398496 A    
C104  H44   1.069026 S    
C90   C94   1.401299 A    
C102  C118  1.411567 A    
C32   H4    1.101771 S    
C96   C112  1.499329 S    
O33   Cr5   2.074043 S    
C127  H81   1.111808 S    
C114  H58   1.110865 S    
O5    Cr1   1.962148 S    
O35   Cr7   2.074043 S    
O29   Cr1   1.955784 S    
C128  H84   1.108717 S    
C1    C44   1.458784 S    
C73   C77   1.404827 A    
C3    C42   1.460242 S    
Cr9   O49   1.987160 S    
C76   C80   1.399189 A    
C18   O42   1.272624 A    
Cr11  O51   1.987160 S    
O26   C22   1.260523 A    
O20   Cr12  2.075728 S    
C127  C128  1.521277 S    
C85   C86   1.521241 S    
C103  C119  1.393401 A    
C107  H47   1.083480 S    
C100  C116  1.496290 S    
C31   C40   1.539611 S    
C34   C38   1.538253 S    
C83   H35   1.083133 S    
C30   H2    1.097356 S    
C81   H33   1.083262 S    
N4    O63   1.302625 A    
O30   C14   1.266784 A    
C5    O17   1.265690 A    
C84   H36   1.083309 S    
C85   H37   1.113732 S    
C88   H40   1.102321 S    
C26   C30   1.547399 S    
C8    C36   1.457654 S    
O8    C4    1.283516 A    
C48   C52   1.387551 A    
O42   Cr10  2.068290 S    
C77   C85   1.515566 S    
O18   Cr10  2.075728 S    
C126  H77   1.108670 S    
C95   C99   1.380131 A    
C110  H50   1.109523 S    
O34   Cr6   2.074383 S    
O6    Cr2   1.962421 S    
O24   Cr12  1.949033 S    
O30   Cr2   1.955303 S    
C74   C81   1.399933 A    
O48   Cr12  1.955283 S    
C112  C116  1.503243 S    
C46   C62   1.484000 S    
C62   C66   1.513589 S    
O37   C17   1.287181 A    
C52   C72   1.400311 A    
C15   O35   1.247900 A    
C121  H65   1.115890 S    
Cr10  O50   1.988229 S    
C50   C66   1.493802 S    
C43   C59   1.411201 A    
C36   C40   1.535812 S    
O43   Cr11  2.068779 S    
C44   C60   1.410392 A    
O37   Cr5   1.952998 S    
O21   Cr9   1.949655 S    
C111  C115  1.502767 S    
C122  H69   1.110670 S    
O39   Cr7   1.952998 S    
O45   Cr9   1.955573 S    
N3    O61   1.301914 A    
C13   O33   1.248577 A    
O13   Cr5   1.954547 S    
C106  H46   1.080328 S    
C99   C119  1.386612 A    
O15   Cr7   1.954547 S    
C31   C35   1.535586 S    
C85   O55   1.408965 S    
C103  H43   1.077657 S    
C112  H52   1.107821 S    
C56   N4    1.447085 S    
N1    O58   1.301265 A    
C19   C76   1.450266 S    
C93   C109  1.486809 S    
C61   C65   1.515745 S    
C27   C36   1.521918 S    
C48   C64   1.484637 S    
C64   C68   1.513673 S    
C66   H26   1.109750 S    
C109  H53   1.111885 S    
O1    Cr1   2.076008 S    
O19   Cr11  2.075957 S    
O29   C13   1.287379 A    
C37   C38   1.542814 S    
C122  H67   1.110405 S    
O45   C21   1.301681 A    
C22   C118  1.424121 S    
O47   C23   1.296921 A    
C113  H57   1.100295 S    
C83   C84   1.400511 A    
O40   C20   1.281205 A    
C81   C82   1.403009 A    
C6    O18   1.258139 A    
C126  H79   1.110911 S    
O41   Cr9   2.068779 S    
C25   C26   1.547147 S    
O36   Cr8   2.074383 S    
C64   H24   1.111696 S    
O38   Cr6   1.953768 S    
C65   H25   1.111815 S    
C98   C118  1.378082 A    
C15   C90   1.432261 S    
C28   C32   1.548006 S    
C92   C96   1.400282 A    
C50   C70   1.399416 A    
O1    C9    1.267279 A    
C14   C91   1.423301 S    
C77   C78   1.369532 A    
O7    C3    1.285176 A    
C116  H60   1.107765 S    
C68   H32   1.111138 S    
C114  H62   1.112418 S    
C55   C59   1.402668 A    
C58   H14   1.081783 S    
O23   Cr11  1.949655 S    
C41   C45   1.395051 A    
C54   N2    1.450128 S    
C29   C33   1.535088 S    
O16   C8    1.279026 A    
C93   C97   1.380876 A    
C7    O19   1.265188 A    
O55   C125  1.413415 S    
Cr4   O52   1.976114 S    
N4    O64   1.301606 A    
O2    Cr2   2.075368 S    
O48   C24   1.307005 A    
Cr6   O50   1.986847 S    
C100  C120  1.391684 A    
C25   C29   1.537072 S    
O9    Cr5   2.074635 S    
C23   C119  1.421469 S    
C56   C72   1.418843 A    
C57   H13   1.083075 S    
C124  H73   1.110590 S    
C109  C113  1.510661 S    
O7    Cr3   1.962148 S    
N1    O57   1.301905 A    
C6    C34   1.459878 S    
C75   C79   1.408479 A    
C46   C50   1.387052 A    
C123  H71   1.112567 S    
C87   O53   1.408834 S    
C91   C107  1.402421 A    
C28   C35   1.529543 S    
C89   C105  1.399328 A    
C101  C105  1.383215 A    
O56   C127  1.415628 S    
C105  H45   1.077064 S    
Cr2   O50   1.976114 S    
C53   N1    1.440175 S    
C9    C69   1.463798 S    
C128  H83   1.110221 S    
C75   C84   1.419015 A    
C123  C124  1.521607 S    
C73   C82   1.419286 A    
O38   C18   1.279706 A    
C62   H20   1.108547 S    
O25   Cr1   2.081658 S    
C30   C34   1.534907 S    
C87   H39   1.109294 S    
C37   H9    1.108110 S    
C14   O34   1.260628 A    
C88   O54   1.413161 S    
C99   C115  1.492694 S    
C97   C113  1.488558 S    
C55   N3    1.441391 S    
C89   C93   1.384739 A    
C101  C117  1.397277 A    
C115  H59   1.093997 S    
C115  H63   1.113100 S    
O10   Cr6   2.075501 S    
O4    Cr4   2.075368 S    
C125  H75   1.114021 S    
C27   C31   1.535920 S    
C51   C71   1.402810 A    
C32   C36   1.536419 S    
C39   H11   1.108167 S    
C44   C48   1.391718 A    
C64   H18   1.108184 S    
