data_mof_unit_50140.cif
_audit_creation_date              2012-12-10T19:13:33-0500
_audit_creation_method            fapswitch 2.2
_symmetry_space_group_name_H-M    P1
_symmetry_Int_Tables_number       1
_space_group_crystal_system       triclinic
_cell_length_a                    9.73955
_cell_length_b                    10.663055
_cell_length_c                    16.754191
_cell_angle_alpha                 88.655426
_cell_angle_beta                  84.838726
_cell_angle_gamma                 90.540452
_cell_volume                      1732.33053341

loop_
_atom_site_label
_atom_site_type_symbol
_atom_type_description
_atom_site_fract_x
_atom_site_fract_y
_atom_site_fract_z
_atom_type_partial_charge
Br1   Br    Br    0.299515 0.714290 0.296014 -0.638340
Br2   Br    Br    0.113725 0.721517 0.600000 -0.556197
Br3   Br    Br    0.108170 0.254070 0.576958 -0.540758
Br4   Br    Br    0.423423 0.820651 0.885770 -0.486596
C1    C     C_R   0.501432 0.742336 0.498268 0.891192
C2    C     C_R   0.534486 0.545895 0.262351 -0.155568
C3    C     C_3   0.422259 0.927888 0.427834 -0.412930
C4    C     C_R   0.480398 0.498186 0.652836 0.981530
C5    C     C_3   0.419539 0.072298 0.426201 0.416702
C6    C     C_3   0.440525 0.924899 0.577819 -0.385114
C7    C     C_3   0.654906 0.930351 0.481662 -0.401473
C8    C     C_3   0.504906 0.878595 0.496396 0.072331
C9    C     C_3   0.502308 0.120929 0.495043 0.074044
C10   C     C_3   0.441130 0.068068 0.577415 -0.376108
C11   C     C_3   0.653491 0.073572 0.480377 -0.477928
C12   C     C_R   0.476347 0.407677 0.790479 0.419930
C13   C     C_3   0.918697 0.630062 0.495007 -0.268639
C14   C     C_3   0.079282 0.632659 0.502602 0.139050
C15   C     C_3   0.905481 0.443834 0.576541 -0.232280
C16   C     C_R   0.500506 0.257646 0.497120 0.856694
C17   C     C_3   0.929454 0.430604 0.433359 -0.275513
C18   C     C_3   0.067060 0.432351 0.572482 0.204139
C19   C     C_3   0.091390 0.444415 0.428425 -0.288802
C20   C     C_R   0.519468 0.508540 0.346952 0.910188
C21   C     C_R   0.466815 0.511741 0.738340 -0.269151
C22   C     C_R   0.450316 0.632537 0.767629 -0.295074
C23   C     C_R   0.468843 0.674555 0.150389 0.480341
C24   C     C_R   0.450849 0.652639 0.848980 0.322201
C25   C     C_R   0.470466 0.550322 0.900976 -0.085766
C26   C     C_R   0.479715 0.427420 0.872448 0.438310
C27   C     C_3   0.224822 0.118785 0.360776 -0.293699
C28   C     C_3   0.759200 0.778997 0.000002 -0.207438
C29   C     C_3   0.383461 0.268561 0.953256 -0.238679
C30   C     C_3   0.255903 0.714954 0.105623 -0.234473
C31   C     C_3   0.356585 0.243523 0.746159 -0.305478
C32   C     C_R   0.446573 0.636137 0.231106 0.160300
C33   C     C_R   0.648175 0.502041 0.214238 -0.244453
C34   C     C_R   0.670654 0.541230 0.134616 -0.237863
C35   C     C_R   0.580409 0.625537 0.102416 -0.150501
C36   C     C_2   0.478063 0.568114 0.985977 -0.165191
C37   C     C_2   0.579532 0.633784 0.014923 0.621309
H1    H     H_    0.439458 0.711501 0.726854 0.192233
H2    H     H_    0.701917 0.110209 0.421582 0.168424
H3    H     H_    0.717303 0.107390 0.527662 0.232223
H4    H     H_    0.499438 0.888622 0.627254 0.176339
H5    H     H_    0.504232 0.101233 0.625083 0.193758
H6    H     H_    0.863958 0.688458 0.541556 0.201804
H7    H     H_    0.897172 0.673697 0.436475 0.148070
H8    H     H_    0.130148 0.690202 0.452104 0.174798
H9    H     H_    0.869706 0.502244 0.628391 0.171137
H10   H     H_    0.103263 0.467955 0.628713 0.164188
H11   H     H_    0.899534 0.329600 0.439242 0.179574
H12   H     H_    0.753935 0.500556 0.096816 0.181283
H13   H     H_    0.718096 0.435196 0.237979 0.161077
H14   H     H_    0.892570 0.465707 0.376173 0.165489
H15   H     H_    0.139984 0.351823 0.419519 0.222532
H16   H     H_    0.127183 0.501651 0.374115 0.183010
H17   H     H_    0.852862 0.351401 0.588239 0.200771
H18   H     H_    0.404270 0.515263 0.026603 0.094585
H19   H     H_    0.112617 0.136290 0.371159 0.190222
H20   H     H_    0.237459 0.029144 0.328372 0.187909
H21   H     H_    0.272291 0.197738 0.323071 0.145818
H22   H     H_    0.823487 0.737917 0.045305 0.139273
H23   H     H_    0.315028 0.889593 0.435856 0.244451
H24   H     H_    0.687915 0.850388 0.027345 0.186610
H25   H     H_    0.829834 0.827952 0.953507 0.203198
H26   H     H_    0.295586 0.334084 0.964444 0.107100
H27   H     H_    0.399491 0.221623 0.011420 0.193893
H28   H     H_    0.356263 0.194458 0.911901 0.211090
H29   H     H_    0.243998 0.716399 0.040398 0.191846
H30   H     H_    0.175213 0.776098 0.134370 0.207842
H31   H     H_    0.235563 0.617192 0.129328 0.129373
H32   H     H_    0.333666 0.275214 0.685422 0.196814
H33   H     H_    0.272141 0.273362 0.790877 0.150797
H34   H     H_    0.470751 0.895560 0.369357 0.160757
H35   H     H_    0.356460 0.139492 0.747941 0.216494
H36   H     H_    0.473893 0.108546 0.368428 0.031351
H37   H     H_    0.332899 0.890501 0.589745 0.244590
H38   H     H_    0.334415 0.100704 0.591538 0.245918
H39   H     H_    0.717877 0.896725 0.530010 0.211927
H40   H     H_    0.704525 0.897022 0.423619 0.179776
N1    N     N_3   0.861190 0.500250 0.501720 -0.070657
N2    N     N_3   0.138550 0.503270 0.501080 -0.076446
O1    O     O_R   0.383960 0.685090 0.500020 -0.583189
O2    O     O_3   0.687048 0.684377 0.963050 -0.585299
O3    O     O_3   0.507915 0.328881 0.923546 -0.564822
O4    O     O_3   0.387089 0.765278 0.118307 -0.581460
O5    O     O_3   0.488485 0.287213 0.762171 -0.582932
O6    O     O_R   0.616040 0.685320 0.499960 -0.645854
O7    O     O_R   0.370240 0.499890 0.615830 -0.604587
O8    O     O_R   0.602330 0.500120 0.615770 -0.610256
O9    O     O_R   0.383960 0.314680 0.500040 -0.543506
O10   O     O_R   0.616040 0.314910 0.499980 -0.643543
O11   O     O_R   0.397670 0.499880 0.384230 -0.593374
O12   O     O_R   0.629760 0.500110 0.384170 -0.634044
O13   O     O_3   0.280827 0.112933 0.435661 -0.547748
Zn1   Zn    Zn3+2 0.345040 0.499850 0.500040 0.995369
Zn2   Zn    Zn3+2 0.654960 0.500150 0.499960 0.919754

loop_
_geom_bond_atom_site_label_1
_geom_bond_atom_site_label_2
_ccdc_geom_bond_type
C16   O10   A    
C31   H33   S    
Br2   C14   S    
C27   H20   S    
C13   H7    S    
C6    H37   S    
O12   Zn2   S    
C19   H15   S    
C10   H5    S    
C7    H40   S    
C16   O9    A    
C22   H1    S    
C25   C26   A    
C19   N2    S    
O1    Zn1   S    
C24   C25   A    
C11   H3    S    
C34   C35   A    
C12   C26   A    
C27   O13   S    
C3    C5    S    
C13   N1    S    
C5    C9    S    
C7    C11   S    
C23   C35   A    
C26   O3    S    
C15   N1    S    
C30   H29   S    
O7    Zn1   S    
C29   H28   S    
C14   H8    S    
C36   H18   S    
C9    C10   S    
C4    C21   S    
N1    Zn2   S    
C27   H21   S    
Br4   C24   S    
O9    Zn1   S    
C13   C14   S    
C15   H17   S    
C3    C8    S    
C31   H35   S    
C15   C18   S    
C1    C8    S    
C35   C37   S    
C6    C10   S    
C20   O12   A    
C17   H14   S    
C1    O1    A    
C3    H34   S    
O11   Zn1   S    
C21   C22   A    
C27   H19   S    
C29   O3    S    
C33   C34   A    
C20   O11   A    
C31   O5    S    
C2    C20   S    
C6    H4    S    
C14   N2    S    
C2    C33   A    
C4    O8    A    
C5    H36   S    
C10   H38   S    
C23   O4    S    
C5    O13   S    
C6    C8    S    
C33   H13   S    
C36   C37   D    
C17   C19   S    
C4    O7    A    
C30   H31   S    
C29   H26   S    
C28   H25   S    
C12   C21   A    
C19   H16   S    
C31   H32   S    
C9    C16   S    
C13   H6    S    
C28   H22   S    
C7    C8    S    
C23   C32   A    
C37   O2    S    
C22   C24   A    
O6    Zn2   S    
C18   N2    S    
C9    C11   S    
C11   H2    S    
C15   H9    S    
C34   H12   S    
C28   O2    S    
O10   Zn2   S    
C25   C36   S    
C2    C32   A    
C30   O4    S    
O8    Zn2   S    
C3    H23   S    
C7    H39   S    
C17   N1    S    
Br1   C32   S    
N2    Zn1   S    
C12   O5    S    
C28   H24   S    
Br3   C18   S    
C30   H30   S    
C17   H11   S    
C1    O6    A    
C29   H27   S    
C18   H10   S    
