data_mof_unit_21753.cif
_audit_creation_date              2012-12-10T20:49:48-0500
_audit_creation_method            fapswitch 2.2
_symmetry_space_group_name_H-M    P1
_symmetry_Int_Tables_number       1
_space_group_crystal_system       triclinic
_cell_length_a                    8.105719
_cell_length_b                    8.934326
_cell_length_c                    16.894325
_cell_angle_alpha                 90.013716
_cell_angle_beta                  85.435591
_cell_angle_gamma                 90.001798
_cell_volume                      1219.5921472

loop_
_atom_site_label
_atom_site_type_symbol
_atom_type_description
_atom_site_fract_x
_atom_site_fract_y
_atom_site_fract_z
_atom_type_partial_charge
C1    C     C_R   0.500005 0.782022 0.499989 0.939597
C2    C     C_R   0.406074 0.397398 0.227414 -0.283066
C3    C     C_R   0.585436 0.621192 0.855063 0.482322
C4    C     C_R   0.414724 0.374576 0.145555 0.481688
C5    C     C_R   0.446530 0.567291 0.901197 -0.036644
C6    C     C_R   0.553821 0.427351 0.099153 -0.036620
C7    C     C_R   0.312785 0.502249 0.865841 0.394957
C8    C     C_R   0.687686 0.492916 0.134201 0.394733
C9    C     C_R   0.321676 0.484534 0.784055 -0.242417
C10   C     C_R   0.678614 0.512517 0.215874 -0.242234
C11   C     C_2   0.456530 0.553995 0.986032 0.378294
C12   C     C_R   0.499995 0.217978 0.500009 0.939377
C13   C     C_2   0.543364 0.440157 0.014315 0.378939
C14   C     C_1   0.500005 0.934815 0.499997 -0.171470
C15   C     C_1   0.499995 0.065185 0.500001 -0.171447
C16   C     C_R   0.477666 0.504744 0.653147 0.922345
C17   C     C_R   0.522336 0.495093 0.346859 0.922340
C18   C     C_R   0.464379 0.528587 0.738103 -0.137463
C19   C     C_R   0.535631 0.469791 0.262011 -0.137113
C20   C     C_R   0.593909 0.600267 0.773064 -0.283302
Cl1   Cl    Cl    0.138936 0.430959 0.922700 -0.384390
Cl2   Cl    Cl    0.861835 0.562775 0.077011 -0.384113
Cl3   Cl    Cl    0.642978 0.301998 0.952673 -0.441790
Cl4   Cl    Cl    0.357035 0.692257 0.047662 -0.442230
H1    H     H_    0.702073 0.638291 0.736763 0.167649
H2    H     H_    0.297740 0.360273 0.263880 0.167651
H3    H     H_    0.779996 0.566449 0.242840 0.198159
H4    H     H_    0.220394 0.431007 0.756824 0.198090
H5    H     H_    0.197114 0.281087 0.150040 0.359688
H6    H     H_    0.802530 0.715543 0.851015 0.359812
N1    N     N_1   0.926360 0.500000 0.499990 -0.027279
N2    N     N_1   0.073640 0.500000 0.500010 -0.027294
O1    O     O_R   0.363150 0.714660 0.500000 -0.611704
O2    O     O_3   0.713831 0.686258 0.891902 -0.657812
O3    O     O_R   0.636850 0.285340 0.500000 -0.611758
O4    O     O_R   0.636850 0.714660 0.500000 -0.616723
O5    O     O_R   0.363150 0.285340 0.500000 -0.616848
O6    O     O_R   0.346950 0.500000 0.615800 -0.622437
O7    O     O_R   0.653050 0.500000 0.384200 -0.622500
O8    O     O_R   0.620700 0.500000 0.615800 -0.616247
O9    O     O_R   0.379300 0.500000 0.384200 -0.616262
O10   O     O_3   0.286184 0.308999 0.109044 -0.657922
Zn1   Zn    Zn3+2 0.317220 0.500000 0.500010 1.006704
Zn2   Zn    Zn3+2 0.682780 0.500000 0.499990 1.006740

loop_
_geom_bond_atom_site_label_1
_geom_bond_atom_site_label_2
_ccdc_geom_bond_type
C10   H3    S    
O5    Zn1   S    
C8    Cl2   S    
O7    Zn2   S    
H5    O10   S    
O9    Zn1   S    
C11   Cl4   S    
C2    C4    A    
N1    N2    T    
C12   C15   S    
C10   C19   A    
C1    O1    A    
C3    C20   A    
C2    H2    S    
C6    C13   S    
O3    Zn2   S    
C11   C13   D    
C4    O10   S    
C16   O8    A    
C16   C18   S    
C17   C19   S    
N2    Zn1   S    
C5    C11   S    
C18   C20   A    
C1    O4    A    
C17   O9    A    
O4    Zn2   S    
C4    C6    A    
N1    Zn2   S    
H6    O2    S    
O1    Zn1   S    
C7    C9    A    
C9    C18   A    
O8    Zn2   S    
C13   Cl3   S    
C8    C10   A    
C17   O7    A    
C12   O5    A    
C5    C7    A    
C14   C15   T    
C6    C8    A    
C1    C14   S    
C3    O2    S    
C3    C5    A    
C2    C19   A    
C7    Cl1   S    
O6    Zn1   S    
C9    H4    S    
C16   O6    A    
C12   O3    A    
C20   H1    S    
