data_mof_unit_30514.cif
_audit_creation_date              2012-12-10T17:31:05-0500
_audit_creation_method            fapswitch 2.2
_symmetry_space_group_name_H-M    P1
_symmetry_Int_Tables_number       1
_space_group_crystal_system       triclinic
_cell_length_a                    12.054241
_cell_length_b                    12.812637
_cell_length_c                    15.557622
_cell_angle_alpha                 86.24763
_cell_angle_beta                  115.452458
_cell_angle_gamma                 94.62916
_cell_volume                      2161.26858017

loop_
_atom_site_label
_atom_site_type_symbol
_atom_type_description
_atom_site_fract_x
_atom_site_fract_y
_atom_site_fract_z
_atom_type_partial_charge
C1    C     C_R   0.476652 0.299480 0.499098 0.885945
C2    C     C_R   0.663612 0.968172 0.570175 -0.213312
C3    C     C_R   0.345814 0.138889 0.440932 -0.216980
C4    C     C_R   0.654310 0.861231 0.557930 -0.217109
C5    C     C_R   0.565488 0.130856 0.541298 -0.275431
C6    C     C_R   0.434457 0.869136 0.458124 -0.275948
C7    C     C_R   0.557717 0.024903 0.528069 0.187031
C8    C     C_R   0.442313 0.975158 0.471070 0.187677
C9    C     C_R   0.004037 0.594647 0.405943 -0.331596
C10   C     C_R   0.996088 0.405323 0.594056 -0.337631
C11   C     C_R   0.124795 0.587292 0.416953 -0.041398
C12   C     C_R   0.523308 0.700519 0.500762 0.884745
C13   C     C_R   0.875708 0.413504 0.583736 -0.041555
C14   C     C_R   0.160034 0.456009 0.539279 0.306109
C15   C     C_R   0.839194 0.542535 0.459377 0.306751
C16   C     C_R   0.575792 0.494173 0.680033 0.871848
C17   C     C_R   0.423775 0.503301 0.320034 0.872082
C18   C     C_R   0.039620 0.464735 0.533964 0.015988
C19   C     C_R   0.960155 0.534686 0.465564 0.015168
C20   C     C_R   0.618992 0.478280 0.782812 -0.057748
C21   C     C_R   0.375588 0.494000 0.217189 -0.058939
C22   C     C_R   0.767043 0.418840 0.937433 -0.208503
C23   C     C_R   0.623680 0.405782 0.105572 -0.236883
C24   C     C_R   0.210143 0.492369 0.058522 -0.207743
C25   C     C_R   0.736507 0.444806 0.841718 -0.206143
C26   C     C_R   0.250655 0.501969 0.156310 -0.204147
C27   C     C_R   0.533891 0.486789 0.820108 -0.260356
C28   C     C_R   0.458020 0.472551 0.180504 -0.262892
C29   C     C_R   0.558530 0.453051 0.913046 0.091235
C30   C     C_R   0.419168 0.458876 0.083664 0.092133
C31   C     C_R   0.678753 0.422624 0.973485 0.180023
C32   C     C_R   0.294189 0.473528 0.021622 0.180277
C33   C     C_R   0.467551 0.452533 0.947864 0.070789
C34   C     C_R   0.341435 0.464444 0.887098 -0.230082
C35   C     C_R   0.503904 0.438660 0.046832 0.067843
C36   C     C_3   0.785378 0.723357 0.424062 -0.740769
C37   C     C_3   0.204690 0.273088 0.565878 -0.743925
C38   C     C_R   0.708967 0.396598 0.068860 -0.241208
C39   C     C_R   0.255818 0.472120 0.923679 -0.242317
C40   C     C_R   0.539365 0.812209 0.503213 -0.051953
C41   C     C_R   0.460582 0.187805 0.496229 -0.049712
C42   C     C_R   0.336497 0.031951 0.428702 -0.213670
H1    H     H_    0.799693 0.371190 0.115798 0.146037
H2    H     H_    0.803636 0.437510 0.813750 0.150026
H3    H     H_    0.858724 0.394336 0.982815 0.132862
H4    H     H_    0.113935 0.501718 0.011679 0.133444
H5    H     H_    0.652713 0.383307 0.179805 0.149305
H6    H     H_    0.305462 0.465617 0.810675 0.135086
H7    H     H_    0.345942 0.830193 0.415143 0.146223
H8    H     H_    0.653950 0.169741 0.584495 0.146511
H9    H     H_    0.735101 0.816453 0.594376 0.150751
H10   H     H_    0.265192 0.183726 0.404052 0.150083
H11   H     H_    0.247802 0.994211 0.384872 0.138132
H12   H     H_    0.160222 0.481420 0.875026 0.144379
H13   H     H_    0.752368 0.005968 0.613783 0.138382
H14   H     H_    0.742346 0.607884 0.324617 0.197939
H15   H     H_    0.813341 0.727568 0.501754 0.244323
H16   H     H_    0.701867 0.768095 0.385207 0.242054
H17   H     H_    0.860479 0.760966 0.407635 0.209975
H18   H     H_    0.256090 0.383005 0.670496 0.193836
H19   H     H_    0.125848 0.238405 0.579054 0.212566
H20   H     H_    0.284195 0.223644 0.604093 0.243571
H21   H     H_    0.179018 0.272366 0.488303 0.242603
H22   H     H_    0.843581 0.366924 0.630016 0.135197
H23   H     H_    0.157370 0.634640 0.371335 0.136496
H24   H     H_    0.946312 0.647127 0.350355 0.157068
H25   H     H_    0.054014 0.352875 0.649640 0.155950
H26   H     H_    0.554274 0.471252 0.228278 0.157779
H27   H     H_    0.448092 0.520959 0.775260 0.158127
H28   H     H_    0.185182 0.517247 0.183916 0.154054
N1    N     N_R   0.799120 0.480200 0.517090 -0.107418
N2    N     N_R   0.200880 0.519800 0.482910 -0.107709
N3    N     N_2   0.758629 0.615741 0.394647 -0.269932
N4    N     N_2   0.238074 0.378759 0.599858 -0.266747
O1    O     O_R   0.580150 0.341050 0.504560 -0.622950
O2    O     O_R   0.419850 0.658950 0.495440 -0.621741
O3    O     O_R   0.388090 0.353760 0.493600 -0.598241
O4    O     O_R   0.611910 0.646240 0.506400 -0.600253
O5    O     O_R   0.650890 0.490020 0.640860 -0.627449
O6    O     O_R   0.349110 0.509980 0.359140 -0.628197
O7    O     O_R   0.458830 0.502730 0.629890 -0.600971
O8    O     O_R   0.541170 0.497270 0.370110 -0.600714
Zn1   Zn    Zn3+2 0.628240 0.491510 0.507320 0.950329
Zn2   Zn    Zn3+2 0.371760 0.508490 0.492680 0.951539

loop_
_geom_bond_atom_site_label_1
_geom_bond_atom_site_label_2
_ccdc_geom_bond_type
C30   C32   A    
C37   N4    S    
C3    C42   A    
C27   C29   A    
C1    O3    A    
C14   C18   A    
C2    C7    A    
O6    Zn2   S    
C36   H17   S    
O2    Zn2   S    
C37   H20   S    
C7    C8    A    
C10   H25   S    
C15   C19   A    
C30   C35   A    
C14   N4    S    
C28   H26   S    
C24   C26   A    
C18   C19   A    
C36   H16   S    
C2    H13   S    
C42   H11   S    
C39   H12   S    
C20   C25   A    
C29   C33   A    
C17   O8    A    
C32   C39   A    
C9    H24   S    
O4    Zn1   S    
C9    C19   A    
C4    C40   A    
C22   C25   A    
C12   O4    A    
C27   H27   S    
C25   H2    S    
C37   H21   S    
C21   C26   A    
N1    Zn1   S    
C23   H5    S    
C22   C31   A    
C4    H9    S    
C34   C39   A    
C1    O1    A    
C36   H15   S    
C5    C7    A    
C11   N2    A    
C6    C8    A    
C13   N1    A    
O3    Zn2   S    
C17   O6    A    
C17   C21   S    
C12   C40   S    
C2    C4    A    
C24   C32   A    
C16   C20   S    
C33   C34   A    
C9    C11   A    
N2    Zn2   S    
C1    C41   S    
C15   N3    S    
C21   C28   A    
C23   C35   A    
C12   O2    A    
C26   H28   S    
C6    C40   A    
C5    H8    S    
C34   H6    S    
O7    Zn2   S    
C5    C41   A    
C3    C41   A    
H14   N3    S    
C14   N2    A    
C8    C42   A    
C10   C13   A    
C37   H19   S    
C3    H10   S    
C20   C27   A    
C23   C38   A    
C15   N1    A    
C31   C38   A    
C16   O5    A    
C24   H4    S    
C28   C30   A    
C38   H1    S    
C29   C31   A    
O5    Zn1   S    
O1    Zn1   S    
C13   H22   S    
C10   C18   A    
H18   N4    S    
C16   O7    A    
C33   C35   A    
C6    H7    S    
C36   N3    S    
C22   H3    S    
O8    Zn1   S    
C11   H23   S    
