data_mof_unit_64655.cif
_audit_creation_date              2012-12-10T18:55:55-0500
_audit_creation_method            fapswitch 2.2
_symmetry_space_group_name_H-M    P1
_symmetry_Int_Tables_number       1
_space_group_crystal_system       triclinic
_cell_length_a                    17.023714
_cell_length_b                    18.164938
_cell_length_c                    19.416759
_cell_angle_alpha                 90.265901
_cell_angle_beta                  89.312134
_cell_angle_gamma                 93.741582
_cell_volume                      5991.06116076

loop_
_atom_site_label
_atom_site_type_symbol
_atom_type_description
_atom_site_fract_x
_atom_site_fract_y
_atom_site_fract_z
_atom_type_partial_charge
C1    C     C_R   0.500251 0.499923 0.367482 0.784973
C2    C     C_R   0.499432 0.500079 0.632523 0.786306
C3    C     C_R   0.489859 0.433356 0.816130 -0.091761
C4    C     C_R   0.512617 0.566709 0.183967 -0.090383
C5    C     C_R   0.495162 0.500235 0.852443 0.150140
C6    C     C_R   0.503183 0.500058 0.147518 0.154322
C7    C     C_R   0.502465 0.567098 0.816617 -0.147012
C8    C     C_R   0.491511 0.433412 0.183345 -0.151228
C9    C     C_R   0.503484 0.567163 0.744863 -0.157377
C10   C     C_R   0.490509 0.433284 0.255088 -0.186042
C11   C     C_R   0.498015 0.500215 0.708171 -0.042482
C12   C     C_R   0.500949 0.499891 0.291845 -0.033432
C13   C     C_R   0.563730 0.529125 0.961414 -0.235173
C14   C     C_R   0.434633 0.471296 0.038382 -0.236756
C15   C     C_R   0.567546 0.528924 0.033082 0.285641
C16   C     C_R   0.430942 0.471311 0.966711 0.288585
C17   C     C_R   0.502366 0.500134 0.071975 -0.038476
C18   C     C_R   0.496008 0.500290 0.927898 -0.038679
C19   C     C_R   0.549910 0.723688 0.456957 0.019819
C20   C     C_R   0.449627 0.276486 0.542770 0.017262
C21   C     C_R   0.551061 0.801052 0.455890 -0.272884
C22   C     C_R   0.448297 0.199153 0.544052 -0.271852
C23   C     C_R   0.651216 0.509069 0.499237 0.854192
C24   C     C_R   0.348804 0.490941 0.500800 0.851881
C25   C     C_R   0.500627 0.838525 0.499720 0.052500
C26   C     C_R   0.499864 0.161485 0.501489 0.052889
C27   C     C_R   0.450074 0.795966 0.543805 -0.359719
C28   C     C_R   0.551309 0.203893 0.457977 -0.361075
C29   C     C_R   0.449039 0.717988 0.542516 0.700250
C30   C     C_R   0.549821 0.281874 0.456489 0.711258
C31   C     C_R   0.429979 0.956857 0.508815 -0.169977
C32   C     C_R   0.570914 0.043036 0.493587 -0.168530
C33   C     C_R   0.429783 0.034190 0.509747 -0.167021
C34   C     C_R   0.571073 0.965696 0.492473 -0.166207
C35   C     C_R   0.500224 0.078647 0.502015 0.138794
C36   C     C_R   0.500614 0.921307 0.500095 0.140096
C37   C     C_R   0.737521 0.513977 0.501680 -0.189455
C38   C     C_R   0.262527 0.486059 0.498663 -0.188643
C39   C     C_R   0.775642 0.455519 0.530586 -0.299414
C40   C     C_R   0.224322 0.544007 0.468975 -0.340494
C41   C     C_R   0.857264 0.459039 0.536071 0.281247
C42   C     C_R   0.142657 0.540581 0.464075 0.283926
C43   C     C_R   0.902110 0.521594 0.511206 0.261051
C44   C     C_R   0.097913 0.478518 0.490040 0.264260
C45   C     C_R   0.864265 0.580549 0.483698 -0.274790
C46   C     C_R   0.135842 0.420008 0.518295 -0.275100
C47   C     C_R   0.782440 0.576708 0.477195 0.457491
C48   C     C_R   0.217707 0.423874 0.524380 0.459754
C49   C     C_R   0.491113 0.433287 0.744411 -0.191714
C50   C     C_R   0.511846 0.566659 0.255687 -0.190240
Cu1   Cu    Cu3+1 0.500020 0.573360 0.500000 0.996411
Cu2   Cu    Cu3+1 0.499980 0.426640 0.500000 0.999899
H1    H     H_    0.258138 0.591415 0.447882 0.204262
H2    H     H_    0.741784 0.407584 0.550627 0.213546
H3    H     H_    0.588906 0.695546 0.422958 0.162174
H4    H     H_    0.410485 0.304779 0.576515 0.164839
H5    H     H_    0.590649 0.831189 0.420448 0.151248
H6    H     H_    0.408185 0.169248 0.579222 0.152011
H7    H     H_    0.413016 0.823211 0.580230 0.147343
H8    H     H_    0.591969 0.176402 0.425084 0.143616
H9    H     H_    0.374323 0.924820 0.513776 0.138737
H10   H     H_    0.626646 0.074946 0.488802 0.144051
H11   H     H_    0.374000 0.059143 0.515181 0.142084
H12   H     H_    0.626788 0.940647 0.486857 0.143621
H13   H     H_    0.898720 0.629008 0.465522 0.206231
H14   H     H_    0.101443 0.371913 0.537339 0.206530
H15   H     H_    0.486745 0.380884 0.717435 0.154283
H16   H     H_    0.519808 0.618844 0.282737 0.150959
H17   H     H_    0.485291 0.381327 0.843401 0.155375
H18   H     H_    0.520170 0.618703 0.156819 0.156515
H19   H     H_    0.507105 0.619097 0.844290 0.147752
H20   H     H_    0.483345 0.381594 0.155690 0.143882
H21   H     H_    0.508931 0.619528 0.718215 0.175242
H22   H     H_    0.480947 0.381190 0.281685 0.155020
H23   H     H_    0.614234 0.550728 0.931599 0.185918
H24   H     H_    0.384090 0.449649 0.068120 0.185300
N1    N     N_2   0.985096 0.527332 0.513651 -0.164175
N2    N     N_2   0.014944 0.472734 0.487682 -0.159034
N3    N     N_R   0.500010 0.683620 0.500020 -0.212345
N4    N     N_R   0.499990 0.316380 0.499980 -0.214686
O1    O     O_R   0.500030 0.561980 0.400180 -0.604736
O2    O     O_R   0.499970 0.438020 0.599820 -0.604773
O3    O     O_R   0.500000 0.438070 0.400190 -0.551925
O4    O     O_R   0.500000 0.561930 0.599810 -0.542160
O5    O     O_R   0.613940 0.568730 0.499360 -0.549461
O6    O     O_R   0.386060 0.431270 0.500640 -0.548632
O7    O     O_R   0.613910 0.444830 0.499370 -0.544628
O8    O     O_R   0.386090 0.555170 0.500630 -0.561308
Br1   Br    Br    0.664355 0.564722 0.074941 -0.503852
Br2   Br    Br    0.334750 0.434455 0.924500 -0.499764
O9    O     O_3   0.401717 0.675406 0.587594 -0.564640
C51   C     C_3   0.322267 0.692548 0.582480 -0.306890
H25   H     H_    0.284515 0.645464 0.603161 0.203164
H26   H     H_    0.304309 0.700847 0.528187 0.158714
H27   H     H_    0.310794 0.741649 0.614410 0.163383
O10   O     O_3   0.601736 0.325387 0.415727 -0.551984
C52   C     C_3   0.608256 0.296674 0.348347 -0.335469
H28   H     H_    0.629193 0.342315 0.313586 0.204355
H29   H     H_    0.550812 0.273377 0.328204 0.141909
H30   H     H_    0.652963 0.254833 0.346326 0.174860
Br3   Br    Br    0.095864 0.619533 0.417503 -0.487509
Br4   Br    Br    0.903762 0.379468 0.581982 -0.472651
O11   O     O_3   0.746920 0.635528 0.448776 -0.564789
C53   C     C_3   0.742774 0.624481 0.376941 -0.273410
H31   H     H_    0.705506 0.573734 0.364068 0.151045
H32   H     H_    0.802466 0.622058 0.353292 0.181932
H33   H     H_    0.715034 0.671936 0.353775 0.180408
O12   O     O_3   0.253356 0.365573 0.553603 -0.565951
C54   C     C_3   0.258487 0.378227 0.625166 -0.276936
H34   H     H_    0.199108 0.381231 0.649289 0.181485
H35   H     H_    0.295971 0.429217 0.636756 0.149862
H36   H     H_    0.286506 0.331280 0.648964 0.183020

loop_
_geom_bond_atom_site_label_1
_geom_bond_atom_site_label_2
_ccdc_geom_bond_type
C16   Br2   S    
C27   C29   A    
C31   H9    S    
C2    O4    A    
C20   H4    S    
Cu1   O5    S    
C4    H18   S    
C52   H28   S    
C3    C49   A    
C39   C41   A    
N1    N2    D    
C41   Br4   S    
C9    H21   S    
C13   C18   A    
C1    O3    A    
C3    H17   S    
C46   H14   S    
C54   H35   S    
C7    H19   S    
C39   H2    S    
C1    O1    A    
C23   O5    A    
O12   C54   S    
C15   C17   A    
C30   O10   S    
C13   H23   S    
C24   C38   S    
C31   C33   A    
C37   C47   A    
Cu1   O1    S    
C38   C48   A    
C30   N4    A    
C45   C47   A    
C23   O7    A    
C41   C43   A    
C14   C17   A    
C1    C12   S    
C42   C44   A    
Cu2   O6    S    
C2    C11   S    
C51   H26   S    
C53   H31   S    
C52   H29   S    
C44   C46   A    
C28   H8    S    
C46   C48   A    
C8    H20   S    
C47   O11   S    
C20   N4    A    
Cu1   Cu2   S    
C32   C35   A    
C4    C6    A    
C54   H36   S    
O9    C51   S    
C5    C7    A    
C6    C8    A    
C5    C18   S    
C23   C37   S    
C51   H27   S    
C4    C50   A    
C14   H24   S    
Cu2   O3    S    
Cu2   O2    S    
C21   H5    S    
C11   C49   A    
C15   Br1   S    
C9    C11   A    
C29   N3    A    
C33   H11   S    
O10   C52   S    
C34   H12   S    
C19   N3    A    
C43   C45   A    
C10   C12   A    
C8    C10   A    
C20   C22   A    
C13   C15   A    
C45   H13   S    
C14   C16   A    
C2    O2    A    
C43   N1    S    
C42   Br3   S    
C29   O9    S    
C52   H30   S    
C19   H3    S    
C7    C9    A    
C6    C17   S    
C21   C25   A    
C49   H15   S    
C19   C21   A    
C24   O8    A    
Cu2   O7    S    
C3    C5    A    
Cu1   O8    S    
C22   H6    S    
C12   C50   A    
C53   H32   S    
C25   C27   A    
C26   C28   A    
C44   N2    S    
C32   H10   S    
C28   C30   A    
C37   C39   A    
C27   H7    S    
C54   H34   S    
C38   C40   A    
C10   H22   S    
C48   O12   S    
C24   O6    A    
C40   C42   A    
C51   H25   S    
C33   C35   A    
C34   C36   A    
Cu1   N3    S    
C25   C36   S    
C26   C35   S    
C16   C18   A    
C40   H1    S    
C22   C26   A    
O11   C53   S    
C31   C36   A    
Cu2   N4    S    
C50   H16   S    
Cu1   O4    S    
C53   H33   S    
C32   C34   A    
