data_mof_unit_22126.cif
_audit_creation_date              2012-10-26T20:43:27-0400
_audit_creation_method            fapswitch 2.2
_symmetry_space_group_name_H-M    P1
_symmetry_Int_Tables_number       1
_space_group_crystal_system       triclinic
_cell_length_a                    10.844803
_cell_length_b                    9.507632
_cell_length_c                    23.515001
_cell_angle_alpha                 90.003576
_cell_angle_beta                  89.256609
_cell_angle_gamma                 90.000365
_cell_volume                      2424.38995499

loop_
_atom_site_label
_atom_site_type_symbol
_atom_type_description
_atom_site_fract_x
_atom_site_fract_y
_atom_site_fract_z
_atom_type_partial_charge
C1    C     C_R   0.262008 0.500000 0.500000 0.553441
C2    C     C_R   0.495720 0.372017 0.701893 -0.144234
C3    C     C_R   0.509179 0.371758 0.238830 -0.064031
C4    C     C_R   0.491476 0.371804 0.761166 -0.063977
C5    C     C_R   0.515399 0.498892 0.209002 0.254344
C6    C     C_R   0.484603 0.498907 0.790996 0.254323
C7    C     C_R   0.063816 0.372202 0.499981 -0.134782
C8    C     C_R   0.936184 0.627797 0.500019 -0.134451
C9    C     C_R   0.936183 0.372202 0.500015 -0.134789
C10   C     C_R   0.063817 0.627796 0.499986 -0.134459
C11   C     C_R   0.871820 0.499999 0.500019 0.021953
C12   C     C_R   0.737992 0.500000 0.499999 0.553442
C13   C     C_R   0.128180 0.499999 0.499981 0.021952
C14   C     C_R   0.423400 0.074448 0.465132 0.009961
C15   C     C_R   0.576602 0.925553 0.534867 0.009889
C16   C     C_R   0.576600 0.074460 0.534868 0.009977
C17   C     C_R   0.423398 0.925541 0.465133 0.009891
C18   C     C_R   0.501479 0.499977 0.390847 0.553665
C19   C     C_R   0.498521 0.499984 0.609153 0.553663
C20   C     C_R   0.601762 0.497569 0.877240 0.385992
C21   C     C_R   0.398238 0.497574 0.122758 0.385987
C22   C     C_R   0.381994 0.497926 0.882608 0.394690
C23   C     C_R   0.518037 0.626470 0.238602 -0.056840
C24   C     C_R   0.618007 0.497802 0.117390 0.394705
C25   C     C_R   0.384710 0.496444 0.942142 0.013552
C26   C     C_R   0.615290 0.496353 0.057856 0.013549
C27   C     C_R   0.499004 0.495008 0.969875 -0.044746
C28   C     C_R   0.500996 0.494991 0.030121 -0.044746
C29   C     C_R   0.610770 0.492949 0.937398 0.031728
C30   C     C_R   0.389229 0.492966 0.062599 0.031727
C31   C     C_R   0.274920 0.493234 0.973943 -0.123129
C32   C     C_R   0.725079 0.493129 0.026055 -0.123128
C33   C     C_R   0.274560 0.486850 0.033450 -0.011037
C34   C     C_R   0.481313 0.626453 0.761397 -0.056873
C35   C     C_R   0.725438 0.486792 0.966546 -0.011038
C36   C     C_3   0.149860 0.464897 0.062413 -0.214801
C37   C     C_3   0.135315 0.312112 0.082750 -0.282837
C38   C     C_3   0.010590 0.288421 0.111918 -0.417681
C39   C     C_3   0.850141 0.464866 0.937580 -0.214788
C40   C     C_3   0.864709 0.312088 0.917231 -0.282834
C41   C     C_3   0.989438 0.288427 0.888063 -0.417689
C42   C     C_R   0.513593 0.627079 0.297911 -0.144891
C43   C     C_R   0.485770 0.627063 0.702086 -0.144947
C44   C     C_R   0.506349 0.499748 0.328217 0.004926
C45   C     C_R   0.493653 0.499766 0.671782 0.004927
C46   C     C_R   0.504921 0.371972 0.298105 -0.144286
Cu1   Cu    Cu3+1 0.500000 0.640660 0.500000 0.940103
Cu2   Cu    Cu3+1 0.500000 0.359340 0.500000 0.940018
H1    H     H_    0.187742 0.492249 0.952034 0.147590
H2    H     H_    0.495181 0.273054 0.784024 0.114210
H3    H     H_    0.111805 0.272275 0.499959 0.128488
H4    H     H_    0.888195 0.727724 0.500040 0.128529
H5    H     H_    0.888193 0.272275 0.500033 0.128484
H6    H     H_    0.111807 0.727724 0.499968 0.128526
H7    H     H_    0.362076 0.130636 0.437209 0.108530
H8    H     H_    0.637930 0.869366 0.562787 0.109341
H9    H     H_    0.637925 0.130658 0.562790 0.108498
H10   H     H_    0.362069 0.869345 0.437213 0.109311
H11   H     H_    0.997952 0.362571 0.148034 0.202530
H12   H     H_    0.812256 0.492111 0.047964 0.147586
H13   H     H_    0.935107 0.303124 0.081083 0.155503
H14   H     H_    0.005656 0.179190 0.128492 0.147885
H15   H     H_    0.143088 0.240176 0.045576 0.151228
H16   H     H_    0.209293 0.283783 0.112835 0.203989
H17   H     H_    0.133306 0.542430 0.096825 0.207171
H18   H     H_    0.074548 0.486277 0.032280 0.103968
H19   H     H_    0.002054 0.362562 0.851944 0.202515
H20   H     H_    0.064921 0.303178 0.918896 0.155513
H21   H     H_    0.994403 0.179189 0.871493 0.147881
H22   H     H_    0.856946 0.240146 0.954400 0.151229
H23   H     H_    0.521724 0.725034 0.215575 0.119411
H24   H     H_    0.790735 0.283747 0.887145 0.203967
H25   H     H_    0.866686 0.542408 0.903176 0.207178
H26   H     H_    0.925450 0.486258 0.967715 0.103963
H27   H     H_    0.477117 0.725001 0.784425 0.119459
H28   H     H_    0.515169 0.727076 0.319946 0.127207
H29   H     H_    0.483679 0.727034 0.680049 0.127267
H30   H     H_    0.499531 0.272260 0.320260 0.126704
H31   H     H_    0.501621 0.272332 0.679736 0.126636
H32   H     H_    0.505982 0.272973 0.215974 0.114230
N1    N     N_R   0.489226 0.498590 0.851839 -0.394151
N2    N     N_R   0.510775 0.498530 0.148159 -0.394157
N3    N     N_R   0.500000 0.852070 0.500000 -0.224764
N4    N     N_R   0.500000 0.147930 0.500000 -0.224467
O1    O     O_R   0.319640 0.618740 0.500000 -0.507756
O2    O     O_2   0.296763 0.503115 0.156274 -0.524501
O3    O     O_2   0.273042 0.498422 0.855475 -0.517056
O4    O     O_2   0.726956 0.498228 0.144523 -0.517052
O5    O     O_R   0.680360 0.381260 0.500000 -0.507767
O6    O     O_R   0.680360 0.618740 0.500000 -0.507733
O7    O     O_R   0.319640 0.381260 0.500000 -0.507743
O8    O     O_R   0.499960 0.618810 0.417880 -0.503502
O9    O     O_R   0.500040 0.381190 0.582120 -0.503626
O10   O     O_R   0.500040 0.618810 0.582120 -0.503508
O11   O     O_R   0.499960 0.381190 0.417880 -0.503638
O12   O     O_2   0.703240 0.503066 0.843724 -0.524502

loop_
_geom_bond_atom_site_label_1
_geom_bond_atom_site_label_2
_ccdc_geom_bond_type
C25   C31   A    
C26   C32   A    
Cu2   O11   S    
C27   C29   A    
Cu1   O8    S    
C2    C4    A    
C14   N4    A    
C41   H19   S    
C23   C42   A    
C40   H22   S    
Cu1   O1    S    
C12   O6    A    
C36   C37   S    
C24   C26   A    
C43   H29   S    
C36   H18   S    
C15   C16   A    
C16   N4    A    
C33   C36   S    
C39   H26   S    
C24   N2    A    
C2    H31   S    
Cu2   O7    S    
C31   C33   A    
Cu1   N3    S    
C8    H4    S    
C19   O9    A    
C34   H27   S    
C38   H13   S    
C14   H7    S    
C20   O12   S    
C1    O7    A    
C6    N1    S    
C20   N1    A    
C18   O11   A    
C14   C17   A    
C42   C44   A    
C31   H1    S    
C3    H32   S    
C37   H15   S    
C44   C46   A    
C41   H20   S    
C20   C29   A    
C2    C45   A    
C1    O1    A    
Cu2   O9    S    
C22   N1    A    
C23   H23   S    
C12   O5    A    
C4    C6    A    
C39   C40   S    
C46   H30   S    
C36   H17   S    
C15   N3    A    
C22   C25   A    
Cu2   N4    S    
C4    H2    S    
C17   N3    A    
C35   C39   S    
C32   C35   A    
C37   C38   S    
C18   C44   S    
C9    C11   A    
Cu1   Cu2   S    
C5    C23   A    
C22   O3    S    
C24   O4    S    
C19   O10   A    
C40   C41   S    
Cu2   O5    S    
Cu1   O6    S    
C9    H5    S    
C32   H12   S    
C37   H16   S    
C41   H21   S    
C7    C9    A    
C29   C35   A    
C21   O2    S    
C40   H24   S    
C30   C33   A    
C26   C28   A    
C34   C43   A    
C3    C5    A    
C10   C13   A    
C11   C12   S    
C19   C45   S    
C25   C27   A    
C21   C30   A    
C17   H10   S    
C3    C46   A    
C42   H28   S    
C18   O8    A    
C15   H8    S    
C28   C30   A    
C7    H3    S    
C43   C45   A    
C5    N2    S    
C8    C11   A    
Cu1   O10   S    
C16   H9    S    
C39   H25   S    
C10   H6    S    
C38   H11   S    
C6    C34   A    
C7    C13   A    
C1    C13   S    
C21   N2    A    
C8    C10   A    
C27   C28   A    
C38   H14   S    
