data_mof_unit_13505.cif
_audit_creation_date              2012-12-10T18:47:42-0500
_audit_creation_method            fapswitch 2.2
_symmetry_space_group_name_H-M    P1
_symmetry_Int_Tables_number       1
_space_group_crystal_system       triclinic
_cell_length_a                    9.921206
_cell_length_b                    10.651853
_cell_length_c                    15.505026
_cell_angle_alpha                 90.800436
_cell_angle_beta                  67.298252
_cell_angle_gamma                 89.324032
_cell_volume                      1511.20400987

loop_
_atom_site_label
_atom_site_type_symbol
_atom_type_description
_atom_site_fract_x
_atom_site_fract_y
_atom_site_fract_z
_atom_type_partial_charge
C1    C     C_R   0.500315 0.739556 0.498647 0.880721
C2    C     C_R   0.499643 0.260457 0.501424 0.881131
C3    C     C_R   0.360574 0.372812 0.089136 -0.225216
C4    C     C_R   0.681820 0.492173 0.891179 -0.227101
C5    C     C_R   0.259439 0.357447 0.048105 -0.242205
C6    C     C_R   0.783489 0.507055 0.931705 -0.246298
C7    C     C_R   0.624634 0.934289 0.437485 0.126885
C8    C     C_R   0.375358 0.065770 0.562750 0.127273
C9    C     C_R   0.623100 0.063793 0.441435 -0.259089
C10   C     C_R   0.376818 0.936250 0.558727 -0.258595
C11   C     C_R   0.499424 0.127982 0.502989 -0.052134
C12   C     C_R   0.500513 0.872056 0.497165 -0.053121
C13   C     C_R   0.969648 0.429867 0.435038 -0.067205
C14   C     C_R   0.030180 0.569471 0.565376 -0.069868
C15   C     C_R   0.113019 0.427592 0.436689 0.525906
C16   C     C_R   0.886672 0.571600 0.563865 0.519657
C17   C     C_R   0.408236 0.499343 0.676027 0.859519
C18   C     C_R   0.591913 0.498184 0.323905 0.858297
C19   C     C_R   0.352933 0.482094 0.776787 -0.062514
C20   C     C_R   0.650236 0.490145 0.221916 -0.064265
C21   C     C_R   0.186882 0.385765 0.917049 -0.218584
C22   C     C_R   0.839661 0.523700 0.070017 -0.211485
C23   C     C_R   0.219582 0.424544 0.825661 -0.228861
C24   C     C_R   0.794159 0.521667 0.167009 -0.216303
C25   C     C_R   0.449687 0.504380 0.820399 -0.245494
C26   C     C_R   0.555430 0.454143 0.179468 -0.250223
C27   C     C_R   0.426593 0.454642 0.907477 0.087763
C28   C     C_R   0.598101 0.455108 0.082598 0.084801
C29   C     C_R   0.290023 0.399553 0.958072 0.179141
C30   C     C_R   0.741545 0.494101 0.027661 0.179751
C31   C     C_R   0.535548 0.459693 0.945419 0.069761
C32   C     C_R   0.497715 0.428402 0.040122 0.068331
H1    H     H_    0.156236 0.313631 0.087460 0.150883
H2    H     H_    0.893770 0.533732 0.888274 0.148113
H3    H     H_    0.444911 0.432959 0.223908 0.195015
H4    H     H_    0.545303 0.558535 0.783610 0.183815
H5    H     H_    0.869152 0.549493 0.198945 0.153557
H6    H     H_    0.143802 0.405551 0.792369 0.153670
H7    H     H_    0.083505 0.341102 0.954384 0.147323
H8    H     H_    0.949460 0.553355 0.028488 0.151362
H9    H     H_    0.330228 0.335880 0.158334 0.156634
H10   H     H_    0.721959 0.503699 0.816485 0.163130
H11   H     H_    0.716236 0.114693 0.395057 0.136859
H12   H     H_    0.283642 0.885333 0.605055 0.137320
N1    N     N_R   0.142780 0.500030 0.500020 -0.125467
N2    N     N_R   0.857220 0.499970 0.499980 -0.125414
O1    O     O_R   0.385370 0.683250 0.500010 -0.643151
O2    O     O_R   0.614630 0.316750 0.499990 -0.643660
O3    O     O_R   0.614700 0.683220 0.500000 -0.543846
O4    O     O_R   0.385300 0.316780 0.500000 -0.544381
O5    O     O_R   0.319830 0.500020 0.632250 -0.642615
O6    O     O_R   0.680170 0.499980 0.367750 -0.641023
O7    O     O_R   0.549160 0.499990 0.632240 -0.554788
O8    O     O_R   0.450840 0.500010 0.367760 -0.558381
Zn1   Zn    Zn3+2 0.346870 0.500020 0.500000 0.982512
Zn2   Zn    Zn3+2 0.653130 0.499980 0.500000 0.984088
N3    N     N_3   0.749149 0.865684 0.372540 -0.426497
H13   H     H_    0.716947 0.823158 0.322521 0.166901
H14   H     H_    0.833206 0.926766 0.336586 0.179995
N4    N     N_3   0.251012 0.134413 0.627843 -0.428264
H15   H     H_    0.283473 0.176889 0.677765 0.169791
H16   H     H_    0.166999 0.073353 0.663904 0.180653
N5    N     N_3   0.946898 0.362349 0.361654 -0.487169
H17   H     H_    0.927022 0.426727 0.317778 0.214981
H18   H     H_    0.858979 0.302901 0.390005 0.231602
N6    N     N_3   0.052791 0.635820 0.639285 -0.486542
H19   H     H_    0.141296 0.694812 0.611439 0.233622
H20   H     H_    0.071777 0.570623 0.683044 0.211159
O9    O     O_3   0.224852 0.352806 0.375840 -0.746838
H21   H     H_    0.187898 0.298037 0.338136 0.326875
O10   O     O_3   0.774216 0.644925 0.625700 -0.743662
H22   H     H_    0.810000 0.697030 0.665428 0.331461

loop_
_geom_bond_atom_site_label_1
_geom_bond_atom_site_label_2
_ccdc_geom_bond_type
C2    O2    A    
N6    H20   S    
N5    H18   S    
C21   C29   A    
C14   C16   A    
C25   C27   A    
C23   H6    S    
C2    O4    A    
N2    Zn2   S    
C19   C23   A    
C31   C32   A    
C21   H7    S    
C22   H8    S    
C7    C9    A    
C17   O5    A    
C28   C30   A    
N6    H19   S    
C14   N6    S    
O1    Zn1   S    
C18   O6    A    
O10   H22   S    
C8    N4    S    
C20   C24   A    
C9    C11   A    
N1    Zn1   S    
N3    H13   S    
C7    C12   A    
C16   O10   S    
C20   C26   A    
C8    C11   A    
C15   O9    S    
C2    C11   S    
C10   C12   A    
C4    C6    A    
C6    C30   A    
C24   H5    S    
C14   N1    A    
C5    C29   A    
O9    H21   S    
C13   C15   A    
C21   C23   A    
C3    H9    S    
C3    C32   A    
C19   C25   A    
C4    H10   S    
C22   C24   A    
C9    H11   S    
C4    C31   A    
N3    H14   S    
C15   N1    A    
C25   H4    S    
C10   H12   S    
N5    H17   S    
O3    Zn2   S    
C17   O7    A    
C26   H3    S    
C28   C32   A    
C27   C29   A    
C27   C31   A    
C18   C20   S    
N4    H16   S    
C6    H2    S    
C1    O3    A    
O7    Zn2   S    
C16   N2    A    
O2    Zn2   S    
C18   O8    A    
C13   N2    A    
C1    O1    A    
C22   C30   A    
O5    Zn1   S    
C17   C19   S    
O8    Zn1   S    
O6    Zn2   S    
C26   C28   A    
C7    N3    S    
C8    C10   A    
C1    C12   S    
O4    Zn1   S    
C5    H1    S    
N4    H15   S    
C3    C5    A    
C13   N5    S    
