data_mof_unit_58689.cif
_audit_creation_date              2012-12-10T20:32:00-0500
_audit_creation_method            fapswitch 2.2
_symmetry_space_group_name_H-M    P1
_symmetry_Int_Tables_number       1
_space_group_crystal_system       triclinic
_cell_length_a                    9.879517
_cell_length_b                    10.680926
_cell_length_c                    15.528704
_cell_angle_alpha                 89.917529
_cell_angle_beta                  67.761362
_cell_angle_gamma                 89.799011
_cell_volume                      1516.72836412

loop_
_atom_site_label
_atom_site_type_symbol
_atom_type_description
_atom_site_fract_x
_atom_site_fract_y
_atom_site_fract_z
_atom_type_partial_charge
C1    C     C_R   0.501606 0.740082 0.497019 0.882771
C2    C     C_R   0.405145 0.452555 0.915492 0.096720
C3    C     C_R   0.259603 0.488752 0.970455 0.179510
C4    C     C_R   0.506420 0.426452 0.958031 0.067386
C5    C     C_R   0.466194 0.455213 0.053368 0.072212
C6    C     C_R   0.318161 0.484474 0.107327 -0.231018
C7    C     C_R   0.216341 0.499181 0.066386 -0.248553
C8    C     C_R   0.646649 0.374013 0.908612 -0.236907
C9    C     C_R   0.747717 0.358863 0.950377 -0.243324
C10   C     C_R   0.714165 0.398842 0.041396 0.177502
C11   C     C_R   0.574776 0.451285 0.092167 0.097402
C12   C     C_R   0.408595 0.497956 0.675891 0.871886
C13   C     C_R   0.817370 0.386051 0.083057 -0.223197
C14   C     C_R   0.782611 0.424567 0.174810 -0.209020
C15   C     C_R   0.548641 0.500189 0.180151 -0.263155
C16   C     C_R   0.390025 0.936851 0.478883 0.141610
C17   C     C_R   0.510539 0.871511 0.481573 -0.109431
C18   C     C_R   0.642069 0.934863 0.465718 -0.225769
C19   C     C_R   0.642450 0.064362 0.465530 -0.224652
C20   C     C_R   0.511291 0.128754 0.481246 -0.107756
C21   C     C_R   0.390437 0.064617 0.478774 0.138933
C22   C     C_3   0.233102 0.072810 0.542132 -0.471905
C23   C     C_R   0.502120 0.260014 0.496827 0.881493
C24   C     C_3   0.232577 0.930968 0.542303 -0.500004
C25   C     C_R   0.880843 0.517882 0.580678 0.222866
C26   C     C_R   0.974495 0.470893 0.421899 -0.150498
C27   C     C_R   0.118183 0.470634 0.421933 -0.131541
C28   C     C_R   0.023140 0.517475 0.580795 0.208054
C29   C     C_3   0.991310 0.629517 0.642472 -0.524184
C30   C     C_3   0.837958 0.630155 0.641999 -0.493351
C31   C     C_R   0.591426 0.498819 0.324097 0.868044
C32   C     C_R   0.351466 0.488660 0.777078 -0.057418
C33   C     C_R   0.646613 0.480271 0.223735 -0.053309
C34   C     C_R   0.160266 0.517745 0.928350 -0.218161
C35   C     C_R   0.205977 0.517261 0.831846 -0.203738
C36   C     C_R   0.448140 0.453393 0.818947 -0.271636
H1    H     H_    0.104626 0.523616 0.109652 0.148633
H2    H     H_    0.922794 0.342863 0.045717 0.146842
H3    H     H_    0.741028 0.885577 0.460241 0.171615
H4    H     H_    0.741563 0.112846 0.459950 0.172385
H5    H     H_    0.164186 0.114341 0.507006 0.206199
H6    H     H_    0.216380 0.889886 0.611356 0.201915
H7    H     H_    0.163329 0.890816 0.507138 0.204376
H8    H     H_    0.958206 0.449345 0.358473 0.142062
H9    H     H_    0.209141 0.448210 0.358397 0.150568
H10   H     H_    0.993062 0.607448 0.711883 0.195719
H11   H     H_    0.450249 0.552587 0.217349 0.149960
H12   H     H_    0.057005 0.712010 0.607526 0.213833
H13   H     H_    0.752301 0.608432 0.711123 0.204333
H14   H     H_    0.814643 0.713095 0.606397 0.214351
H15   H     H_    0.859282 0.407175 0.208190 0.147850
H16   H     H_    0.853333 0.317350 0.910763 0.150487
H17   H     H_    0.049018 0.545493 0.969812 0.150692
H18   H     H_    0.129492 0.543511 0.800291 0.148524
H19   H     H_    0.559586 0.433478 0.774481 0.153120
H20   H     H_    0.276950 0.493663 0.182016 0.138476
H21   H     H_    0.679808 0.339483 0.838394 0.146691
N1    N     N_R   0.856900 0.500860 0.500610 -0.104511
N2    N     N_R   0.142540 0.500820 0.500610 -0.102858
O1    O     O_R   0.385310 0.683210 0.499990 -0.611607
O2    O     O_R   0.614650 0.683240 0.500000 -0.618800
O3    O     O_R   0.319830 0.499970 0.632240 -0.614596
O4    O     O_R   0.549170 0.500000 0.632250 -0.616314
O5    O     O_R   0.385350 0.316760 0.500000 -0.612224
O6    O     O_R   0.614690 0.316790 0.500010 -0.620467
O7    O     O_R   0.450830 0.500000 0.367750 -0.623489
O8    O     O_R   0.680170 0.500030 0.367760 -0.622188
Zn1   Zn    Zn3+2 0.346870 0.499980 0.499990 0.940265
Zn2   Zn    Zn3+2 0.653130 0.500020 0.500010 0.936766
H22   H     H_    0.217197 0.114085 0.611034 0.203529

loop_
_geom_bond_atom_site_label_1
_geom_bond_atom_site_label_2
_ccdc_geom_bond_type
C31   O7    A    
O7    Zn1   S    
C18   H3    S    
C31   C33   S    
N1    Zn2   S    
C29   C30   S    
C15   H11   S    
N2    Zn1   S    
C24   H6    S    
C9    C10   A    
C1    C17   S    
C19   C20   A    
C20   C23   S    
O3    Zn1   S    
C29   H10   S    
C4    C8    A    
C27   H9    S    
C14   C33   A    
C17   C18   A    
C7    H1    S    
C26   H8    S    
C16   C24   S    
C36   H19   S    
C27   N2    A    
C21   C22   S    
C12   C32   S    
C35   H18   S    
C31   O8    A    
C26   N1    A    
C23   O6    A    
C13   H2    S    
C6    C7    A    
C9    H16   S    
C11   C15   A    
O6    Zn2   S    
C2    C4    A    
O5    Zn1   S    
C23   O5    A    
C30   H13   S    
C15   C33   A    
C5    C11   A    
C3    C7    A    
C2    C3    A    
C10   C11   A    
C14   H15   S    
C26   C27   A    
C5    C6    A    
C30   H14   S    
C22   C24   S    
C28   N2    A    
C22   H5    S    
C16   C17   A    
C25   N1    A    
C25   C28   A    
C29   H12   S    
C2    C36   A    
C13   C14   A    
C28   C29   S    
C32   C35   A    
C32   C36   A    
C12   O3    A    
C20   C21   A    
O1    Zn1   S    
C34   H17   S    
C34   C35   A    
C19   H4    S    
C1    O1    A    
O2    Zn2   S    
C25   C30   S    
C24   H7    S    
C18   C19   A    
C4    C5    A    
C3    C34   A    
C12   O4    A    
C16   C21   A    
C22   H22   S    
C8    H21   S    
O4    Zn2   S    
C6    H20   S    
C8    C9    A    
O8    Zn2   S    
C10   C13   A    
C1    O2    A    
