data_mof_unit_53422.cif
_audit_creation_date              2012-12-10T16:57:42-0500
_audit_creation_method            fapswitch 2.2
_symmetry_space_group_name_H-M    P1
_symmetry_Int_Tables_number       1
_space_group_crystal_system       triclinic
_cell_length_a                    7.816855
_cell_length_b                    8.676021
_cell_length_c                    19.233945
_cell_angle_alpha                 92.014133
_cell_angle_beta                  84.513838
_cell_angle_gamma                 93.698371
_cell_volume                      1295.1999405

loop_
_atom_site_label
_atom_site_type_symbol
_atom_type_description
_atom_site_fract_x
_atom_site_fract_y
_atom_site_fract_z
_atom_type_partial_charge
Br1   Br    Br    0.781955 0.264661 0.851790 -0.425448
Br2   Br    Br    0.208508 0.681509 0.140554 -0.470421
Br3   Br    Br    0.772958 0.266903 0.682134 -0.367151
Br4   Br    Br    0.235517 0.725854 0.309530 -0.384495
Br5   Br    Br    0.787171 0.026389 0.536287 -0.257310
Br6   Br    Br    0.219295 0.972766 0.457069 -0.272049
Br7   Br    Br    0.042390 0.313320 0.416141 -0.279136
Br8   Br    Br    0.957987 0.689441 0.582598 -0.274648
C1    C     C_R   0.544994 0.794060 0.497184 0.911005
C2    C     C_R   0.583292 0.372228 0.177241 0.375968
C3    C     C_R   0.501375 0.468954 0.855583 -0.230454
C4    C     C_R   0.474394 0.464320 0.145588 -0.205794
C5    C     C_R   0.616921 0.384402 0.811879 0.209555
C6    C     C_R   0.369139 0.566078 0.185227 0.177764
C7    C     C_R   0.616096 0.391375 0.739430 0.173044
C8    C     C_R   0.377591 0.579989 0.257452 0.175260
C9    C     C_R   0.497943 0.483124 0.710781 -0.339637
C10   C     C_R   0.495838 0.494801 0.289415 -0.315441
C11   C     C_R   0.483511 0.463905 0.070228 0.423449
C12   C     C_R   0.455204 0.205765 0.501882 0.909822
C13   C     C_R   0.505909 0.465376 0.930274 0.379326
C14   C     C_3   0.095399 0.573715 0.734004 -0.054004
C15   C     C_3   0.892320 0.391578 0.258057 -0.066802
C16   C     C_3   0.149400 0.560667 0.913332 -0.186528
C17   C     C_3   0.610029 0.118473 0.148097 -0.105259
C18   C     C_2   0.567690 0.956122 0.503167 0.032802
C19   C     C_2   0.434016 0.043708 0.493964 0.029015
C20   C     C_R   0.499525 0.495969 0.634606 0.984034
C21   C     C_R   0.499763 0.501100 0.365486 0.976711
C22   C     C_R   0.375629 0.560978 0.755731 0.402233
C23   C     C_R   0.605447 0.397254 0.248215 0.356320
C24   C     C_R   0.379775 0.556666 0.828174 0.418541
H1    H     H_    0.060730 0.513672 0.783778 0.139049
H2    H     H_    0.682299 0.037590 0.112213 0.205317
H3    H     H_    0.473005 0.106760 0.136229 0.167979
H4    H     H_    0.620891 0.082693 0.202368 0.195078
H5    H     H_    0.086164 0.487635 0.690331 0.196525
H6    H     H_    0.997175 0.659019 0.730552 0.209731
H7    H     H_    0.992213 0.314237 0.270100 0.201936
H8    H     H_    0.910289 0.502234 0.288113 0.195852
H9    H     H_    0.915804 0.413054 0.201149 0.183625
H10   H     H_    0.180435 0.571540 0.968448 0.209208
H11   H     H_    0.137017 0.435721 0.897574 0.154156
H12   H     H_    0.021543 0.608016 0.911197 0.206187
N1    N     N_R   0.540785 0.597401 0.967147 -0.111454
N2    N     N_R   0.450282 0.331528 0.033293 -0.127194
N3    N     N_R   0.530698 0.596380 0.036319 -0.128418
N4    N     N_R   0.460440 0.332470 0.964080 -0.114833
N5    N     N_2   0.950330 0.457950 0.481240 0.097536
N6    N     N_2   0.049670 0.542050 0.518760 0.089864
O1    O     O_R   0.389250 0.738570 0.504600 -0.576782
O2    O     O_3   0.728296 0.319259 0.277643 -0.585591
O3    O     O_3   0.273029 0.650242 0.870666 -0.551837
O4    O     O_3   0.682643 0.269765 0.136995 -0.598069
O5    O     O_R   0.610750 0.261430 0.495400 -0.578160
O6    O     O_R   0.678400 0.711620 0.492580 -0.574559
O7    O     O_R   0.321600 0.288380 0.507420 -0.576292
O8    O     O_R   0.355380 0.513500 0.607880 -0.601668
O9    O     O_R   0.644620 0.486500 0.392120 -0.588384
O10   O     O_R   0.644530 0.486550 0.595850 -0.578540
O11   O     O_R   0.355470 0.513450 0.404150 -0.577997
O12   O     O_3   0.260074 0.652465 0.729186 -0.551353
Zn1   Zn    Zn3+2 0.306930 0.517990 0.508030 1.131673
Zn2   Zn    Zn3+2 0.693070 0.482010 0.491970 1.137143

loop_
_geom_bond_atom_site_label_1
_geom_bond_atom_site_label_2
_ccdc_geom_bond_type
Br4   C8    S    
O6    Zn2   S    
N6    Zn1   S    
C12   C19   S    
C20   O8    A    
C1    C18   S    
C14   O12   S    
C1    O6    A    
C16   H10   S    
C23   O2    S    
Br6   C19   S    
C15   H9    S    
C5    C7    A    
C17   H2    S    
O10   Zn2   S    
C13   N4    A    
O5    Zn2   S    
C9    C20   S    
C20   O10   A    
C15   O2    S    
C11   N2    A    
O1    Zn1   S    
N5    Zn2   S    
C22   C24   A    
C9    C22   A    
C3    C5    A    
C18   C19   D    
C2    C4    A    
C17   H3    S    
C12   O5    A    
C15   H7    S    
C4    C11   S    
C16   H12   S    
C4    C6    A    
C3    C24   A    
O7    Zn1   S    
Br8   N6    S    
C13   N1    A    
N1    N3    A    
C22   O12   S    
C2    O4    S    
C6    C8    A    
Br1   C5    S    
C21   O11   A    
C17   H4    S    
C10   C21   S    
C15   H8    S    
C14   H6    S    
N2    N4    A    
O9    Zn2   S    
C24   O3    S    
Br3   C7    S    
C17   O4    S    
Br7   N5    S    
C8    C10   A    
N5    N6    D    
C11   N3    A    
Br2   C6    S    
O8    Zn1   S    
C7    C9    A    
C16   H11   S    
Br5   C18   S    
C10   C23   A    
C14   H1    S    
C12   O7    A    
C14   H5    S    
C2    C23   A    
C3    C13   S    
O11   Zn1   S    
C21   O9    A    
C16   O3    S    
C1    O1    A    
