data_mof_unit_68161.cif
_audit_creation_date              2012-12-11T16:27:25-0500
_audit_creation_method            fapswitch 2.2
_symmetry_space_group_name_H-M    P1
_symmetry_Int_Tables_number       1
_space_group_crystal_system       triclinic
_cell_length_a                    21.843319
_cell_length_b                    7.171595
_cell_length_c                    14.941459
_cell_angle_alpha                 90.0
_cell_angle_beta                  103.644877
_cell_angle_gamma                 90.00004
_cell_volume                      2274.5411383

loop_
_atom_site_label
_atom_site_type_symbol
_atom_type_description
_atom_site_fract_x
_atom_site_fract_y
_atom_site_fract_z
_atom_type_partial_charge
O1    O     O_R   0.835850 0.638310 0.002120 -0.539187
O2    O     O_R   0.164150 0.361690 0.997880 -0.529964
O3    O     O_R   0.664150 0.138310 0.997880 -0.539187
O4    O     O_R   0.335850 0.861690 0.002120 -0.529964
O5    O     O_R   0.717530 0.306070 0.861970 -0.591829
O6    O     O_R   0.282470 0.693930 0.138030 -0.526926
O7    O     O_R   0.782470 0.806070 0.138030 -0.591830
O8    O     O_R   0.217530 0.193930 0.861970 -0.526926
C1    C     C_R   0.701959 0.475625 0.828243 0.802793
C2    C     C_R   0.299766 0.522934 0.171177 0.813061
C3    C     C_R   0.798041 0.975626 0.171757 0.802791
C4    C     C_R   0.200234 0.022934 0.828824 0.813062
O9    O     O_R   0.838690 0.308440 0.993250 -0.521478
O10   O     O_R   0.161310 0.691560 0.006750 -0.528201
O11   O     O_R   0.661310 0.808440 0.006750 -0.521478
O12   O     O_R   0.338690 0.191560 0.993250 -0.528202
O13   O     O_R   0.786170 0.140510 0.130090 -0.502987
O14   O     O_R   0.213830 0.859490 0.869910 -0.565881
O15   O     O_R   0.713830 0.640510 0.869910 -0.502986
O16   O     O_R   0.286170 0.359490 0.130090 -0.565881
C5    C     C_R   0.865006 0.477534 0.997588 0.853715
C6    C     C_R   0.135479 0.522909 0.004008 0.850061
C7    C     C_R   0.634994 0.977534 0.002412 0.853718
C8    C     C_R   0.364521 0.022909 0.995992 0.850059
O17   O     O_3   0.732630 0.472520 0.044740 -0.411316
O18   O     O_3   0.267370 0.527480 0.955260 -0.414129
O19   O     O_3   0.767370 0.972520 0.955260 -0.411316
O20   O     O_3   0.232630 0.027480 0.044740 -0.414130
V1    V     V_3+5 0.753220 0.196740 0.991700 1.456045
V2    V     V_3+5 0.246780 0.803260 0.008300 1.439579
V3    V     V_3+5 0.746780 0.696740 0.008300 1.456045
V4    V     V_3+5 0.253220 0.303260 0.991700 1.439578
C9    C     C_R   0.536747 0.975147 0.827153 0.345617
C10   C     C_R   0.461309 0.998553 0.168997 0.408537
C11   C     C_R   0.963254 0.475146 0.172847 0.345616
C12   C     C_R   0.038691 0.498554 0.831003 0.408537
C13   C     C_R   0.492725 0.012647 0.742729 0.357856
C14   C     C_R   0.506651 0.028883 0.252937 0.349109
C15   C     C_R   0.007275 0.512647 0.257272 0.357857
C16   C     C_R   0.993348 0.528884 0.747063 0.349108
C17   C     C_R   0.430151 0.059030 0.742366 -0.187002
C18   C     C_R   0.570062 0.059492 0.252431 -0.220871
C19   C     C_R   0.069849 0.559029 0.257634 -0.187003
C20   C     C_R   0.929938 0.559493 0.747569 -0.220873
C21   C     C_R   0.412068 0.073889 0.827077 0.256417
C22   C     C_R   0.587858 0.066408 0.167474 0.268762
C23   C     C_R   0.087932 0.573889 0.172923 0.256416
C24   C     C_R   0.912142 0.566409 0.832526 0.268763
C25   C     C_R   0.454327 0.025267 0.912476 -0.119333
C26   C     C_R   0.544730 0.019090 0.083242 -0.109321
C27   C     C_R   0.045673 0.525266 0.087524 -0.119332
C28   C     C_R   0.955270 0.519091 0.916759 -0.109321
C29   C     C_R   0.519040 0.991056 0.913250 -0.096877
C30   C     C_R   0.479486 0.005309 0.082895 -0.108409
C31   C     C_R   0.980960 0.491056 0.086750 -0.096878
C32   C     C_R   0.020514 0.505309 0.917105 -0.108409
C33   C     C_R   0.433630 0.014405 0.996853 -0.072262
C34   C     C_R   0.565249 0.990521 0.999694 -0.059232
C35   C     C_R   0.066370 0.514404 0.003147 -0.072263
C36   C     C_R   0.934751 0.490521 0.000307 -0.059232
C37   C     C_R   0.169256 0.005846 0.730872 -0.128639
C38   C     C_R   0.830869 0.979321 0.269144 -0.129315
C39   C     C_R   0.330744 0.505846 0.269128 -0.128639
C40   C     C_R   0.669131 0.479321 0.730855 -0.129316
C41   C     C_R   0.186444 0.964034 0.580164 -0.127316
C42   C     C_R   0.816247 0.955712 0.421571 -0.112186
C43   C     C_R   0.313556 0.464034 0.419836 -0.127318
C44   C     C_R   0.683753 0.455711 0.578429 -0.112185
C45   C     C_R   0.209137 0.971532 0.673764 -0.187397
C46   C     C_R   0.792371 0.952474 0.328686 -0.179037
C47   C     C_R   0.290863 0.471532 0.326236 -0.187398
C48   C     C_R   0.707629 0.452474 0.671314 -0.179036
C49   C     C_R   0.102517 0.000357 0.696273 -0.080186
C50   C     C_R   0.898098 0.984401 0.301197 -0.054889
C51   C     C_R   0.397483 0.500356 0.303727 -0.080186
C52   C     C_R   0.601902 0.484401 0.698803 -0.054892
C53   C     C_R   0.077169 0.983456 0.596738 -0.024019
C54   C     C_R   0.925122 0.981249 0.401187 0.000724
C55   C     C_R   0.422831 0.483454 0.403262 -0.024019
C56   C     C_R   0.574878 0.481248 0.598813 0.000724
C57   C     C_R   0.121926 0.982741 0.540988 0.021234
C58   C     C_R   0.881006 0.973232 0.458591 0.009342
C59   C     C_R   0.378074 0.482739 0.459012 0.021233
C60   C     C_R   0.618994 0.473231 0.541408 0.009343
C61   C     C_R   0.011151 0.971573 0.548285 -0.021551
C62   C     C_R   0.991764 0.990346 0.449157 0.006681
C63   C     C_R   0.488849 0.471571 0.451715 -0.021550
C64   C     C_R   0.508236 0.490344 0.550843 0.006680
C65   C     C_R   0.039728 0.025865 0.403436 -0.165957
C66   C     C_R   0.963689 0.944028 0.595132 -0.114254
C67   C     C_R   0.460272 0.525862 0.596564 -0.165957
C68   C     C_R   0.536311 0.444027 0.404868 -0.114255
C69   C     C_R   0.102990 0.008082 0.446027 0.459301
C70   C     C_R   0.901038 0.971565 0.554160 0.409516
C71   C     C_R   0.397010 0.508079 0.553973 0.459304
C72   C     C_R   0.598962 0.471564 0.445840 0.409516
H1    H     H_    0.742885 0.924809 0.301828 0.163785
H2    H     H_    0.258837 0.953325 0.703055 0.174046
H3    H     H_    0.757115 0.424809 0.698171 0.163784
H4    H     H_    0.241162 0.453326 0.296945 0.174047
H5    H     H_    0.220428 0.949140 0.538286 0.183402
H6    H     H_    0.783058 0.938379 0.464608 0.181423
H7    H     H_    0.279572 0.449140 0.461714 0.183402
H8    H     H_    0.716942 0.438379 0.535392 0.181423
H9    H     H_    0.030432 0.088208 0.336769 0.132133
H10   H     H_    0.972581 0.893963 0.664099 0.182414
H11   H     H_    0.469568 0.588205 0.663231 0.132134
H12   H     H_    0.527418 0.393962 0.335901 0.182414
C73   C     C_2   0.618613 0.086731 0.341307 0.848079
O21   O     O_2   0.671888 0.136647 0.340815 -0.535150
O22   O     O_R   0.604584 0.053552 0.426371 -0.672728
H13   H     H_    0.642074 0.072706 0.480369 0.280720
C74   C     C_2   0.383908 0.102711 0.652732 0.870791
O23   O     O_2   0.330094 0.149567 0.651709 -0.544690
O24   O     O_R   0.400525 0.085996 0.568470 -0.661706
H14   H     H_    0.363735 0.106264 0.513613 0.277791
C75   C     C_2   0.881386 0.586733 0.658693 0.848079
O25   O     O_2   0.828113 0.636648 0.659186 -0.535151
O26   O     O_R   0.895416 0.553554 0.573629 -0.672728
H15   H     H_    0.857926 0.572708 0.519632 0.280720
C76   C     C_2   0.116092 0.602712 0.347268 0.870791
O27   O     O_2   0.169906 0.649569 0.348291 -0.544689
O28   O     O_R   0.099475 0.585996 0.431530 -0.661707
H16   H     H_    0.136265 0.606266 0.486387 0.277792
O29   O     O_3   0.594493 0.895930 0.825519 -0.554712
C77   C     C_3   0.633083 0.012283 0.786662 -0.078348
H17   H     H_    0.619754 0.159747 0.786912 0.131708
H18   H     H_    0.635269 0.966937 0.716920 0.123037
H19   H     H_    0.681642 0.994442 0.826538 0.173714
O30   O     O_3   0.404066 0.916134 0.171474 -0.558688
C78   C     C_3   0.365634 0.027948 0.213497 -0.126860
H20   H     H_    0.385960 0.162692 0.240035 0.163611
H21   H     H_    0.351199 0.949964 0.269095 0.118368
H22   H     H_    0.321806 0.054198 0.162998 0.185954
O31   O     O_3   0.905507 0.395930 0.174482 -0.554713
C79   C     C_3   0.866917 0.512287 0.213336 -0.078347
H23   H     H_    0.880245 0.659750 0.213080 0.131706
H24   H     H_    0.864733 0.466951 0.283080 0.123039
H25   H     H_    0.818358 0.494441 0.173462 0.173714
O32   O     O_3   0.095934 0.416135 0.828526 -0.558688
C80   C     C_3   0.134366 0.527950 0.786502 -0.126855
H26   H     H_    0.114040 0.662695 0.759967 0.163611
H27   H     H_    0.148800 0.449968 0.730903 0.118366
H28   H     H_    0.178195 0.554196 0.837001 0.185952
O33   O     O_3   0.515353 0.069386 0.667887 -0.511957
C81   C     C_3   0.525080 0.915450 0.615793 -0.214099
H29   H     H_    0.479874 0.861982 0.575775 0.145379
H30   H     H_    0.550527 0.803825 0.659248 0.130954
H31   H     H_    0.553994 0.959537 0.567856 0.183395
O34   O     O_3   0.486823 0.078827 0.330921 -0.563361
C82   C     C_3   0.476482 0.922471 0.381502 -0.153226
H32   H     H_    0.519706 0.838861 0.406912 0.161319
H33   H     H_    0.439096 0.833241 0.342959 0.165221
H34   H     H_    0.458554 0.975182 0.439500 0.174309
O35   O     O_3   0.984647 0.569387 0.332113 -0.511957
C83   C     C_3   0.974920 0.415452 0.384207 -0.214101
H35   H     H_    0.020125 0.361984 0.424225 0.145379
H36   H     H_    0.949472 0.303828 0.340752 0.130956
H37   H     H_    0.946006 0.459541 0.432145 0.183396
O36   O     O_3   0.013177 0.578829 0.669079 -0.563361
C84   C     C_3   0.023517 0.422472 0.618497 -0.153225
H38   H     H_    0.980293 0.338862 0.593088 0.161319
H39   H     H_    0.060904 0.333241 0.657040 0.165221
H40   H     H_    0.041445 0.475183 0.560500 0.174309
O37   O     O_3   0.354800 0.156544 0.826426 -0.551945
C85   C     C_3   0.363212 0.352504 0.830434 -0.069330
H41   H     H_    0.383892 0.405590 0.774453 0.161043
H42   H     H_    0.393514 0.396724 0.897797 0.099572
H43   H     H_    0.316508 0.419705 0.821634 0.159070
O38   O     O_3   0.645490 0.144275 0.166299 -0.552568
C86   C     C_3   0.638104 0.340473 0.160370 -0.050066
H44   H     H_    0.609976 0.397160 0.207388 0.130631
H45   H     H_    0.615544 0.383261 0.088689 0.124383
H46   H     H_    0.685307 0.405763 0.180956 0.151604
O39   O     O_3   0.145200 0.656544 0.173574 -0.551945
C87   C     C_3   0.136787 0.852504 0.169565 -0.069334
H47   H     H_    0.116109 0.905590 0.225547 0.161045
H48   H     H_    0.106485 0.896722 0.102203 0.099571
H49   H     H_    0.183491 0.919706 0.178363 0.159071
O40   O     O_3   0.854510 0.644276 0.833702 -0.552567
C88   C     C_3   0.861897 0.840474 0.839630 -0.050066
H50   H     H_    0.890024 0.897161 0.792612 0.130631
H51   H     H_    0.884456 0.883262 0.911312 0.124383
H52   H     H_    0.814693 0.905765 0.819044 0.151604
O41   O     O_3   0.146832 0.998103 0.392930 -0.543307
C89   C     C_3   0.162866 0.177712 0.369660 -0.298574
H53   H     H_    0.205894 0.166244 0.342935 0.168675
H54   H     H_    0.173761 0.272557 0.430358 0.150998
H55   H     H_    0.125006 0.233545 0.313319 0.117772
O42   O     O_3   0.857869 0.965573 0.608400 -0.545070
C90   C     C_3   0.849150 0.146792 0.638480 -0.273529
H56   H     H_    0.814377 0.140916 0.681746 0.151436
H57   H     H_    0.829656 0.240194 0.579176 0.153868
H58   H     H_    0.893787 0.202465 0.681968 0.157228
O43   O     O_3   0.353168 0.498101 0.607070 -0.543306
C91   C     C_3   0.337135 0.677713 0.630338 -0.298581
H59   H     H_    0.294107 0.666248 0.657064 0.168675
H60   H     H_    0.326239 0.772555 0.569640 0.150998
H61   H     H_    0.374994 0.733548 0.686678 0.117773
O44   O     O_3   0.642131 0.465572 0.391600 -0.545070
C92   C     C_3   0.650850 0.646791 0.361520 -0.273529
H62   H     H_    0.685624 0.640915 0.318254 0.151436
H63   H     H_    0.670344 0.740192 0.420824 0.153868
H64   H     H_    0.606213 0.702465 0.318032 0.157228
C93   C     C_2   0.934168 0.980949 0.226100 0.706903
O45   O     O_2   0.912497 0.054677 0.151784 -0.538961
O46   O     O_R   0.988524 0.877496 0.233802 -0.661897
H65   H     H_    0.005618 0.886061 0.176464 0.267191
C94   C     C_2   0.064239 0.019112 0.767235 0.716501
O47   O     O_2   0.020241 0.127937 0.756392 -0.591674
O48   O     O_R   0.080219 0.916875 0.849121 -0.676984
H66   H     H_    0.051292 0.942865 0.891708 0.282610
C95   C     C_2   0.565832 0.480948 0.773900 0.706904
O49   O     O_2   0.587503 0.554677 0.848216 -0.538960
O50   O     O_R   0.511476 0.377495 0.766198 -0.661897
H67   H     H_    0.494382 0.386060 0.823537 0.267191
C96   C     C_2   0.435761 0.519110 0.232765 0.716501
O51   O     O_2   0.479759 0.627935 0.243607 -0.591674
O52   O     O_R   0.419781 0.416872 0.150879 -0.676985
H68   H     H_    0.448707 0.442862 0.108292 0.282610

loop_
_geom_bond_atom_site_label_1
_geom_bond_atom_site_label_2
_ccdc_geom_bond_type
O17   V3    S    
C7    C34   S    
C63   C64   A    
O1    C5    A    
O42   C90   S    
C58   C70   A    
O19   V1    S    
C1    C40   S    
O13   V1    S    
C92   H62   S    
C42   H6    S    
O3    C7    A    
C2    C39   S    
C68   C72   A    
C56   C60   A    
C78   H22   S    
O15   V3    S    
C55   C63   A    
C84   H38   S    
C43   H7    S    
O31   C79   S    
C42   C46   A    
C93   O45   D    
O7    C3    A    
C86   H45   S    
C21   O37   S    
O37   C85   S    
C51   C55   A    
C49   C94   S    
C83   H35   S    
C18   C73   S    
C14   C18   A    
C75   O26   S    
C18   C22   A    
O4    C8    A    
C25   C29   A    
O38   C86   S    
C51   C96   S    
C37   C45   A    
O24   H14   S    
O1    V3    S    
C25   C33   A    
C38   C46   A    
O2    V4    S    
C27   C31   A    
C60   C72   A    
C82   H34   S    
O3    V1    S    
C12   C16   A    
C28   C36   A    
C28   C32   A    
C52   C95   S    
C1    O15   A    
C87   H49   S    
O22   H13   S    
C2    O16   A    
C8    C33   S    
O2    C6    A    
C77   H18   S    
C82   H32   S    
C66   C70   A    
O14   V2    S    
C41   H5    S    
C90   H58   S    
C19   C76   S    
C16   C20   A    
O5    V1    S    
C46   H1    S    
C44   C48   A    
C45   H2    S    
C54   C62   A    
O11   C7    A    
C53   C61   A    
O12   C8    A    
C31   C36   A    
C85   H42   S    
C92   H63   S    
O10   V2    S    
C79   H25   S    
O20   V4    S    
C84   H39   S    
C68   H12   S    
C17   C21   A    
O33   C81   S    
C81   H30   S    
C88   H51   S    
O17   V1    S    
C86   H46   S    
C24   O40   S    
O7    V3    S    
C81   H29   S    
C11   C31   A    
O46   H65   S    
C44   C60   A    
C95   O49   D    
C67   H11   S    
O28   H16   S    
C9    C29   A    
C66   H10   S    
C5    C36   S    
C79   H24   S    
C73   O21   D    
C80   H28   S    
C11   O31   S    
O52   H68   S    
O18   V4    S    
C91   H59   S    
C15   C19   A    
C52   C56   A    
C77   H19   S    
C37   C49   A    
C96   O51   D    
C88   H50   S    
O19   V3    S    
C65   C69   A    
C9    C13   A    
C90   H56   S    
C15   O35   S    
C80   H27   S    
O8    V4    S    
C11   C15   A    
O50   H67   S    
C90   H57   S    
O5    C1    A    
C12   C32   A    
C42   C58   A    
C81   H31   S    
C57   C69   A    
C54   C58   A    
C41   C57   A    
O48   H66   S    
C64   C67   A    
C53   C57   A    
O8    C4    A    
C59   C71   A    
C9    O29   S    
C94   O47   D    
C40   C52   A    
C26   C34   A    
O9    C5    A    
C26   C30   A    
C43   C59   A    
O32   C80   S    
O26   H15   S    
O11   V3    S    
C12   O32   S    
C86   H44   S    
C76   O27   D    
C91   H60   S    
C87   H47   S    
O6    V2    S    
C39   C47   A    
O18   V2    S    
C85   H41   S    
C92   H64   S    
C61   C66   A    
C27   C35   A    
C89   H54   S    
C78   H20   S    
C6    C35   S    
C84   H40   S    
O40   C88   S    
C74   O23   D    
C70   O42   S    
C88   H52   S    
O9    V1    S    
C72   O44   S    
C3    O13   A    
C71   O43   S    
C91   H61   S    
C10   C14   A    
C16   O36   S    
C83   H37   S    
C44   H8    S    
C17   C74   S    
C79   H23   S    
C78   H21   S    
C62   C65   A    
C61   C62   A    
O6    C2    A    
C23   C27   A    
C29   C34   A    
C65   H9    S    
C10   C30   A    
O12   V4    S    
C47   H4    S    
C22   C26   A    
C3    C38   S    
C75   O25   D    
C32   C35   A    
O36   C84   S    
O10   C6    A    
C89   H55   S    
C73   O22   S    
O30   C78   S    
C95   O50   S    
O20   V2    S    
C56   C64   A    
O39   C87   S    
O16   V4    S    
C80   H26   S    
C30   C33   A    
C55   C59   A    
C4    C37   S    
O41   C89   S    
O29   C77   S    
C39   C51   A    
C20   C75   S    
O44   C92   S    
C77   H17   S    
C41   C45   A    
C83   H36   S    
C94   O48   S    
C14   O34   S    
C21   C25   A    
C43   C47   A    
C82   H33   S    
C13   C17   A    
C96   O52   S    
C23   O39   S    
C76   O28   S    
C67   C71   A    
O43   C91   S    
C22   O38   S    
C24   C28   A    
C10   O30   S    
C85   H43   S    
C50   C54   A    
C4    O14   A    
O35   C83   S    
C49   C53   A    
O34   C82   S    
C38   C50   A    
C13   O33   S    
C89   H53   S    
C63   C68   A    
C93   O46   S    
C19   C23   A    
C50   C93   S    
O4    V2    S    
C20   C24   A    
C40   C48   A    
C87   H48   S    
C74   O24   S    
C48   H3    S    
C69   O41   S    
