data_mof_unit_7403.cif
_audit_creation_date              2012-12-11T19:09:17-0500
_audit_creation_method            fapswitch 2.2
_symmetry_space_group_name_H-M    P1
_symmetry_Int_Tables_number       1
_space_group_crystal_system       triclinic
_cell_length_a                    8.28251
_cell_length_b                    15.111446
_cell_length_c                    26.921459
_cell_angle_alpha                 98.943107
_cell_angle_beta                  92.985672
_cell_angle_gamma                 80.842859
_cell_volume                      3284.83369248

loop_
_atom_site_label
_atom_site_type_symbol
_atom_type_description
_atom_site_fract_x
_atom_site_fract_y
_atom_site_fract_z
_atom_type_partial_charge
Ba1   Ba    Ba6+2 0.860050 0.456430 0.522540 1.762377
Ba2   Ba    Ba6+2 0.329780 0.543490 0.477450 1.712445
C1    C     C_3   0.688748 0.138884 0.652765 0.232979
C2    C     C_R   0.899125 0.586494 0.178135 0.572674
C3    C     C_2   0.754297 0.556132 0.272665 -0.092713
C4    C     C_3   0.198508 0.259634 0.655964 0.284845
C5    C     C_3   0.731464 0.584401 0.328448 -0.070889
C6    C     C_1   0.984270 0.482795 0.342158 0.094012
C7    C     C_2   0.028162 0.482073 0.294871 -0.111626
C8    C     C_2   0.904763 0.516746 0.256060 0.202983
C9    C     C_R   0.031457 0.505749 0.101365 -0.120068
C10   C     C_R   0.087901 0.431611 0.127291 -0.113528
C11   C     C_R   0.190553 0.356100 0.101425 0.418339
C12   C     C_3   0.689934 0.228884 0.633864 0.370020
C13   C     C_R   0.936471 0.583158 0.127217 -0.007192
C14   C     C_2   0.839948 0.523062 0.359197 -0.205685
C15   C     C_2   0.378132 0.501520 0.640499 0.157154
C16   C     C_3   0.168945 0.245396 0.709368 0.224974
C17   C     C_R   0.210980 0.424496 0.972620 0.033365
C18   C     C_R   0.041576 0.573975 0.972033 0.020204
C19   C     C_R   0.145669 0.498243 0.946836 0.058424
C20   C     C_R   0.317590 0.351976 0.945954 -0.095820
C21   C     C_R   0.357320 0.351745 0.896193 -0.042851
C22   C     C_R   0.292368 0.423417 0.870202 -0.037186
C23   C     C_3   0.492472 0.699943 0.633725 0.279388
C24   C     C_R   0.185402 0.496526 0.895341 -0.080346
C25   C     C_R   0.119023 0.568290 0.869087 -0.036719
C26   C     C_R   0.161173 0.566578 0.818539 0.597501
C27   C     C_R   0.333079 0.423458 0.819645 0.580677
C28   C     C_3   0.247949 0.260357 0.404672 0.722353
C29   C     C_2   0.471781 0.485711 0.730139 -0.098262
C30   C     C_3   0.521422 0.495588 0.678036 -0.126374
C31   C     C_1   0.224757 0.523014 0.656086 0.044050
C32   C     C_2   0.183752 0.512732 0.701752 -0.204855
C33   C     C_2   0.312316 0.495327 0.742163 0.194002
C34   C     C_3   0.458842 0.743775 0.687688 -0.352200
C35   C     C_R   0.169032 0.425945 0.023895 -0.050720
C36   C     C_R   0.069741 0.503024 0.049589 0.047330
C37   C     C_R   0.008049 0.577697 0.024012 0.035419
C38   C     C_R   0.225139 0.353204 0.050847 -0.078465
C39   C     C_R   0.881534 0.657150 0.101963 -0.053285
C40   C     C_3   0.325782 0.168400 0.377992 -0.234522
C41   C     C_R   0.973794 0.643631 0.943985 -0.099473
C42   C     C_R   0.012023 0.640818 0.893942 -0.055552
C43   C     C_R   0.916058 0.654631 0.051784 -0.100793
C44   C     C_R   0.355676 0.176684 0.535411 0.009905
C45   C     C_3   0.034764 0.734747 0.343526 0.335305
C46   C     C_R   0.579495 0.210233 0.490396 0.019456
C47   C     C_R   0.745260 0.769377 0.477257 0.118338
C48   C     C_R   0.840686 0.828638 0.462722 0.002265
C49   C     C_R   0.786094 0.922255 0.470697 -0.141248
C50   C     C_R   0.636009 0.958304 0.494765 0.063711
C51   C     C_R   0.551187 0.897228 0.514727 -0.068888
C52   C     C_3   0.974334 0.733760 0.585302 0.294282
C53   C     C_R   0.570548 0.053032 0.501660 0.033631
C54   C     C_R   0.422902 0.083917 0.528461 -0.078215
C55   C     C_R   0.346467 0.021995 0.548584 -0.084661
C56   C     C_3   0.044210 0.758801 0.291094 -0.317034
C57   C     C_R   0.410008 0.931191 0.542386 -0.025022
C58   C     C_R   0.643109 0.117799 0.481362 -0.189359
C59   C     C_R   0.441392 0.239605 0.519625 0.148469
C60   C     C_R   0.609519 0.803149 0.506845 0.009796
C61   C     C_3   0.954045 0.836338 0.599381 -0.354875
C62   C     C_3   0.674196 0.328628 0.365057 0.617974
C63   C     C_3   0.572870 0.321128 0.315480 0.232420
C64   C     C_3   0.490739 0.782856 0.364045 0.377307
C65   C     C_3   0.446233 0.871129 0.342452 0.151864
C66   C     C_R   0.036127 0.434400 0.177518 0.613314
H1    H     H_    0.803897 0.224557 0.613027 0.064579
H2    H     H_    0.578513 0.381667 0.297383 0.077080
H3    H     H_    0.442509 0.320047 0.322682 0.030661
H4    H     H_    0.378119 0.676525 0.617236 0.041895
H5    H     H_    0.593988 0.642599 0.634329 0.009235
H6    H     H_    0.571143 0.767003 0.705999 0.137379
H7    H     H_    0.209785 0.301390 0.736102 0.089469
H8    H     H_    0.120610 0.671067 0.346255 0.080142
H9    H     H_    0.158305 0.786521 0.287240 0.135823
H10   H     H_    0.044639 0.696953 0.263024 0.115472
H11   H     H_    0.626584 0.766901 0.365621 -0.023820
H12   H     H_    0.403447 0.176678 0.347377 0.049726
H13   H     H_    0.443894 0.792886 0.402803 0.070649
H14   H     H_    0.312174 0.894275 0.344649 0.096647
H15   H     H_    0.481527 0.859369 0.302315 0.063579
H16   H     H_    0.153097 0.456010 0.284057 0.119645
H17   H     H_    0.440247 0.294466 0.878031 0.139660
H18   H     H_    0.375175 0.294124 0.962521 0.077930
H19   H     H_    0.300260 0.292270 0.034022 0.107997
H20   H     H_    0.657431 0.579038 0.246791 0.123387
H21   H     H_    0.888175 0.701466 0.959283 0.075573
H22   H     H_    0.332223 0.249421 0.650037 -0.010722
H23   H     H_    0.401780 0.130191 0.405042 0.066090
H24   H     H_    0.956810 0.696487 0.874677 0.127726
H25   H     H_    0.056061 0.522899 0.711334 0.145278
H26   H     H_    0.805703 0.521279 0.397334 0.112578
H27   H     H_    0.746979 0.098380 0.457394 0.112849
H28   H     H_    0.865013 0.964935 0.458988 0.093926
H29   H     H_    0.035864 0.247765 0.714799 0.113622
H30   H     H_    0.346004 0.298272 0.421399 -0.143881
H31   H     H_    0.853504 0.713619 0.575041 -0.021807
H32   H     H_    0.903990 0.869695 0.566860 0.030727
H33   H     H_    0.878193 0.256751 0.341000 0.353292
H34   H     H_    0.229454 0.128306 0.361450 0.118887
H35   H     H_    0.608138 0.190722 0.295071 0.313543
H36   H     H_    0.582797 0.239651 0.608155 -0.085906
H37   H     H_    0.578134 0.143512 0.675172 0.141847
H38   H     H_    0.359589 0.802747 0.688269 0.137716
H39   H     H_    0.420036 0.694046 0.709146 0.072321
H40   H     H_    0.918791 0.092347 0.660063 0.302898
H41   H     H_    0.907802 0.723852 0.348828 -0.035462
H42   H     H_    0.937741 0.810023 0.283420 0.131228
H43   H     H_    0.515945 0.988413 0.350278 0.306954
H44   H     H_    0.146077 0.330634 0.652166 0.023080
H45   H     H_    0.056714 0.713718 0.552944 0.056455
H46   H     H_    0.312790 0.309283 0.156782 0.337160
H47   H     H_    0.567150 0.477143 0.758981 0.116352
H48   H     H_    0.810141 0.718182 0.121027 0.127776
H49   H     H_    0.870452 0.715513 0.036217 0.075542
H50   H     H_    0.514910 0.519969 0.588178 0.311470
H51   H     H_    0.336305 0.355779 0.507043 0.309935
H52   H     H_    0.236589 0.042636 0.569985 0.094465
H53   H     H_    0.855230 0.655049 0.490993 0.291444
H54   H     H_    0.343537 0.888201 0.559241 0.103048
H55   H     H_    0.197277 0.114478 0.703197 0.328252
H56   H     H_    0.868715 0.858745 0.630957 0.146960
H57   H     H_    0.126170 0.301750 0.464875 0.311838
H58   H     H_    0.074498 0.857668 0.610891 0.114002
H59   H     H_    0.633071 0.396913 0.386301 -0.015308
H60   H     H_    0.682797 0.084020 0.620170 -0.046060
N1    N     N_R   0.947018 0.512255 0.203097 -0.423502
N2    N     N_R   0.267004 0.494477 0.794036 -0.424355
O1    O     O_2   0.906490 0.548660 0.619040 -0.493529
O2    O     O_2   0.177534 0.825386 0.473123 -0.493351
O3    O     O_3   0.078665 0.805549 0.379231 -0.596222
O4    O     O_3   0.138490 0.548590 0.558860 -0.430452
O5    O     O_3   0.572560 0.389970 0.472910 -0.466021
O6    O     O_2   0.345680 0.723560 0.528460 -0.468133
O7    O     O_3   0.540574 0.763503 0.607258 -0.649193
O8    O     O_2   0.407824 0.539959 0.323711 -0.521302
O9    O     O_3   0.419714 0.713895 0.333551 -0.636711
O10   O     O_2   0.065585 0.366556 0.197813 -0.547401
O11   O     O_2   0.427128 0.359885 0.798431 -0.566786
O12   O     O_3   0.653741 0.258240 0.391581 -0.682868
O13   O     O_2   0.824070 0.656431 0.200300 -0.619747
O14   O     O_2   0.105829 0.630428 0.796711 -0.591966
O15   O     O_3   0.686290 0.382320 0.585720 -0.438217
O16   O     O_2   0.857850 0.423330 0.669517 -0.513954
O17   O     O_3   0.039404 0.694294 0.627023 -0.629064
O18   O     O_3   0.678331 0.299909 0.674516 -0.578660
O19   O     O_2   0.844020 0.276410 0.471510 -0.411680
O20   O     O_3   0.101490 0.335510 0.560360 -0.447794
O21   O     O_2   0.016351 0.174583 0.528162 -0.468618
O22   O     O_3   0.838603 0.321360 0.354015 -0.738596
O23   O     O_3   0.122214 0.198219 0.621687 -0.643528
O24   O     O_3   0.634802 0.244136 0.281795 -0.692515
O25   O     O_3   0.827869 0.118067 0.683166 -0.684202
O26   O     O_3   0.529392 0.937338 0.369992 -0.753388
O27   O     O_3   0.263537 0.283949 0.124392 -0.670021
O28   O     O_3   0.409654 0.498357 0.590452 -0.661645
O29   O     O_3   0.395041 0.330210 0.535722 -0.675122
O30   O     O_3   0.786365 0.677688 0.463108 -0.729144
O31   O     O_3   0.257848 0.163109 0.719895 -0.689463
O32   O     O_3   0.148100 0.244489 0.441416 -0.726736
O33   O     O_2   0.283210 0.451320 0.380930 -0.509587
O34   O     O_3   0.051220 0.451340 0.441130 -0.497756
O35   O     O_3   0.503420 0.617610 0.414270 -0.430395
O36   O     O_3   0.153178 0.305966 0.369262 -0.596185
O37   O     O_3   0.617160 0.609950 0.527080 -0.457475
O38   O     O_3   0.088220 0.664410 0.439630 -0.471088
P1    P     P_3+3 0.071960 0.575810 0.612130 1.042352
P2    P     P_3+3 0.664360 0.290070 0.457280 1.041983
P3    P     P_3+3 0.149183 0.219407 0.560904 0.990569
P4    P     P_3+3 0.117760 0.424110 0.387870 1.040245
P5    P     P_3+3 0.046536 0.781767 0.439115 0.983116
P6    P     P_3+3 0.685731 0.402054 0.651894 1.008788
P7    P     P_3+3 0.531528 0.724758 0.542456 0.966824
P8    P     P_3+3 0.515386 0.609842 0.349181 0.954548

loop_
_geom_bond_atom_site_label_1
_geom_bond_atom_site_label_2
_ccdc_geom_bond_type
C53   C54   A    
C65   H15   S    
C16   H7    S    
Ba1   Ba2   S    
Ba1   O15   S    
H57   O32   S    
C32   H25   S    
C19   C24   A    
C31   P1    S    
C2    O13   D    
C61   H56   S    
C51   C57   A    
C1    H37   S    
O35   P8    S    
O36   P4    S    
C64   H11   S    
C10   C66   A    
C24   C25   A    
Ba2   O4    S    
C62   O22   S    
C48   P5    S    
C38   H19   S    
C17   C19   A    
C35   C36   A    
C22   C24   A    
C45   H8    S    
O7    P7    S    
C35   C38   A    
C59   O29   S    
C36   C37   A    
H55   O31   S    
C16   O31   S    
C55   C57   A    
C52   C61   S    
Ba1   O37   S    
C63   H2    S    
C52   H45   S    
C12   O18   S    
Ba1   P2    S    
O21   P3    D    
C44   P3    S    
C32   C33   S    
O5    P2    S    
C29   H47   S    
C22   C27   A    
C11   C38   A    
C17   C35   A    
C56   H9    S    
C3    H20   S    
C9    C13   A    
C25   C42   A    
C64   O9    S    
C29   C30   S    
Ba1   O34   S    
C6    C7    D    
O4    P1    S    
C21   C22   A    
C47   O30   S    
Ba1   O19   S    
O15   P6    S    
C26   O14   D    
C16   H29   S    
C7    C8    S    
C23   H5    S    
C42   H24   S    
C50   C53   A    
C49   H28   S    
C37   C43   A    
C57   H54   S    
C64   C65   S    
O6    P7    D    
C6    P4    S    
C6    C14   D    
C53   C58   A    
C45   O3    S    
C34   H39   S    
O9    P8    S    
C15   C31   D    
C40   H34   S    
C11   O27   S    
C46   C58   A    
O38   P5    S    
C4    C16   S    
C44   C59   A    
C34   H38   S    
O19   P2    D    
C4    O23   S    
C17   C20   A    
C28   O36   S    
Ba2   O34   S    
C3    C5    S    
C18   C37   A    
C1    H60   S    
C23   C34   S    
C63   H3    S    
C30   P6    S    
H53   O30   S    
O18   P6    S    
C49   C50   A    
C65   O26   S    
C9    C36   A    
C23   O7    S    
C41   C42   A    
H46   O27   S    
C61   H32   S    
C15   O28   S    
C51   C60   A    
H35   O24   S    
C12   H36   S    
O20   P3    S    
C33   N2    S    
H50   O28   S    
C62   H59   S    
C27   O11   D    
C5    P8    S    
O23   P3    S    
C1    O25   S    
C48   C49   A    
Ba1   O20   S    
C23   H4    S    
C41   H21   S    
C18   C19   A    
O33   P4    D    
Ba2   O35   S    
C13   C39   A    
C1    C12   S    
C34   H6    S    
C55   H52   S    
C46   P2    S    
C5    C14   S    
C45   H41   S    
O8    P8    D    
C12   H1    S    
C29   C33   D    
C52   H31   S    
C66   O10   D    
C54   C55   A    
C28   O32   S    
C39   H48   S    
Ba1   O4    S    
Ba2   O38   S    
C25   C26   A    
C18   C41   A    
C50   C51   A    
O37   P7    S    
H43   O26   S    
C43   H49   S    
O1    P1    D    
C27   N2    Am   
C47   C60   A    
C56   H42   S    
C4    H44   S    
Ba1   O1    S    
Ba2   O33   S    
C9    C10   A    
C2    N1    Am   
C28   H30   S    
H33   O22   S    
C14   H26   S    
Ba2   O5    S    
O12   P2    S    
C62   C63   S    
C2    C13   A    
C8    N1    S    
C3    C8    D    
C4    H22   S    
C64   H13   S    
C46   C59   A    
H40   O25   S    
C62   O12   S    
C60   P7    S    
O16   P6    D    
Ba1   P1    S    
C31   C32   D    
C26   N2    Am   
O2    P5    D    
C20   H18   S    
C66   N1    Am   
Ba2   O6    S    
C61   H58   S    
O34   P4    S    
C56   H10   S    
C7    H16   S    
C58   H27   S    
O17   P1    S    
C10   C11   A    
C65   H14   S    
H51   O29   S    
C47   C48   A    
C21   H17   S    
C44   C54   A    
C40   H12   S    
C15   C30   S    
C39   C43   A    
C20   C21   A    
C28   C40   S    
C63   O24   S    
Ba1   O5    S    
O3    P5    S    
Ba2   O37   S    
C40   H23   S    
Ba2   P4    S    
C52   O17   S    
C45   C56   S    
