data_mof_unit_7564.cif
_audit_creation_date              2013-03-05T16:15:19-0500
_audit_creation_method            fapswitch 2.2
_symmetry_space_group_name_H-M    P1
_symmetry_Int_Tables_number       1
_space_group_crystal_system       triclinic
_cell_length_a                    27.8141
_cell_length_b                    10.931395
_cell_length_c                    9.533441
_cell_angle_alpha                 87.796434
_cell_angle_beta                  90.644561
_cell_angle_gamma                 87.454931
_cell_volume                      2893.3690471

loop_
_atom_site_label
_atom_site_type_symbol
_atom_site_description
_atom_site_fract_x
_atom_site_fract_y
_atom_site_fract_z
_atom_type_partial_charge
O1    O     O_R   0.500020 0.316850 0.620870 -0.523390
O2    O     O_R   0.499980 0.683150 0.379130 -0.564538
O3    O     O_R   0.500000 0.316860 0.379090 -0.611120
O4    O     O_R   0.500000 0.683140 0.620910 -0.575716
C1    C     C_R   0.500699 0.259394 0.502851 0.872181
C2    C     C_R   0.500303 0.740341 0.498176 0.898280
O5    O     O_R   0.430270 0.500020 0.620880 -0.560123
O6    O     O_R   0.569730 0.499980 0.379120 -0.556030
O7    O     O_R   0.430250 0.500030 0.379090 -0.562928
O8    O     O_R   0.569750 0.499970 0.620910 -0.548972
C3    C     C_R   0.407756 0.501280 0.498967 0.866891
C4    C     C_R   0.592432 0.496771 0.500570 0.906647
Cu1   Cu    Cu3+1 0.500010 0.499990 0.643150 1.049378
Cu2   Cu    Cu3+1 0.499990 0.500010 0.356850 1.028481
C5    C     C_R   0.181501 0.366144 0.531275 0.531887
C6    C     C_R   0.822845 0.590406 0.512601 0.526539
O9    O     O_2   0.209804 0.264138 0.518409 -0.570216
O10   O     O_2   0.796490 0.696148 0.521719 -0.560265
N1    N     N_R   0.202325 0.477865 0.526691 -0.446604
N2    N     N_R   0.799605 0.482394 0.510881 -0.449085
C7    C     C_R   0.174555 0.583897 0.536586 0.551365
C8    C     C_R   0.825150 0.372129 0.516680 0.553712
C9    C     C_R   0.279047 0.561644 0.604146 -0.146551
C10   C     C_R   0.722550 0.410091 0.602151 -0.145403
C11   C     C_R   0.327969 0.579487 0.585039 -0.020575
C12   C     C_R   0.672368 0.404368 0.592989 -0.106078
C13   C     C_R   0.330558 0.423226 0.411911 -0.243286
C14   C     C_R   0.671003 0.564319 0.409599 -0.208725
C15   C     C_R   0.280501 0.418201 0.417030 -0.095133
C16   C     C_R   0.721153 0.560358 0.409628 -0.087085
C17   C     C_R   0.254217 0.484274 0.516953 0.304694
C18   C     C_R   0.747509 0.485016 0.508044 0.312382
C19   C     C_R   0.102634 0.467846 0.557514 -0.070375
C20   C     C_R   0.899882 0.476603 0.531526 -0.068815
C21   C     C_R   0.130778 0.358027 0.546361 -0.071777
C22   C     C_R   0.873861 0.590788 0.510666 -0.071199
C23   C     C_R   0.106928 0.245595 0.548994 0.130663
C24   C     C_R   0.899776 0.699464 0.487757 0.133248
C25   C     C_R   0.125220 0.579830 0.561237 -0.032447
C26   C     C_R   0.875159 0.367442 0.537049 -0.034462
C27   C     C_R   0.354773 0.502245 0.497595 -0.041900
C28   C     C_R   0.645828 0.488095 0.501781 -0.103674
H1    H     H_    0.350460 0.364595 0.342019 0.200192
H2    H     H_    0.652041 0.628184 0.338082 0.209096
H3    H     H_    0.262506 0.361341 0.344288 0.185598
H4    H     H_    0.739446 0.617494 0.333889 0.168269
C29   C     C_R   0.976700 0.356590 0.568293 0.044866
C30   C     C_R   0.024772 0.578698 0.576755 0.050003
C31   C     C_R   0.975013 0.581264 0.545504 -0.001471
C32   C     C_R   0.028028 0.355797 0.558256 0.000023
C33   C     C_R   0.950603 0.471221 0.547600 0.030316
C34   C     C_R   0.051753 0.466990 0.565306 0.032567
C35   C     C_R   0.949757 0.250478 0.600213 0.135668
C36   C     C_R   0.049127 0.682955 0.619348 0.126364
C37   C     C_R   0.900093 0.256186 0.571780 -0.201162
C38   C     C_R   0.098726 0.684852 0.598615 -0.200680
O11   O     O_2   0.802242 0.266784 0.503468 -0.532617
O12   O     O_2   0.194351 0.693989 0.519731 -0.535820
C39   C     C_R   0.056410 0.248958 0.536496 -0.181177
C40   C     C_R   0.950102 0.690539 0.501612 -0.181958
H5    H     H_    0.742686 0.350097 0.676831 0.195799
H6    H     H_    0.259468 0.616268 0.678860 0.188338
H7    H     H_    0.879983 0.174234 0.588057 0.185931
H8    H     H_    0.117403 0.766165 0.620397 0.181369
H9    H     H_    0.039774 0.167750 0.504845 0.158388
H10   H     H_    0.970883 0.767714 0.472005 0.157995
C41   C     C_3   0.519458 0.029573 0.628734 -0.088036
C42   C     C_3   0.484249 0.969761 0.378271 -0.100156
C43   C     C_3   0.546875 0.951511 0.521029 -0.088815
C44   C     C_3   0.456802 0.047066 0.486627 -0.067834
C45   C     C_3   0.501501 0.877335 0.497472 -0.174725
C46   C     C_3   0.502017 0.121660 0.508939 -0.174156
C47   C     C_3   0.474180 0.955010 0.606438 0.069946
C48   C     C_3   0.529874 0.043566 0.401076 0.054264
C49   C     C_3   0.521155 0.592243 0.045867 0.033068
C50   C     C_3   0.478346 0.407728 0.954189 0.038287
C51   C     C_3   0.478142 0.598293 0.943228 -0.122060
C52   C     C_3   0.521681 0.401510 0.056854 -0.119717
H11   H     H_    0.458096 0.678454 0.893915 0.153193
H12   H     H_    0.543489 0.324488 0.105420 0.151492
N3    N     N_3   0.500040 0.499970 0.858290 -0.229079
N4    N     N_3   0.499960 0.500030 0.141710 -0.235336
C53   C     C_3   0.542992 0.495236 0.953402 0.024441
C54   C     C_3   0.456851 0.505634 0.047129 -0.009194
C55   C     C_2   0.540488 0.051649 0.771479 0.902921
O13   O     O_2   0.557429 0.964824 0.842967 -0.531145
O14   O     O_R   0.542462 0.169960 0.820245 -0.730639
H13   H     H_    0.558919 0.171649 0.915510 0.345015
C56   C     C_2   0.462128 0.939552 0.240676 0.960844
O15   O     O_2   0.473996 0.993127 0.132758 -0.526909
O16   O     O_R   0.426166 0.854663 0.237535 -0.677112
H14   H     H_    0.412840 0.845821 0.139277 0.357870
C57   C     C_3   0.447255 0.897957 0.731237 -0.408427
C58   C     C_3   0.408948 0.983544 0.790869 -0.653821
H15   H     H_    0.423018 0.075501 0.795803 0.293473
H16   H     H_    0.375903 0.988208 0.724600 0.250406
H17   H     H_    0.399370 0.950414 0.898015 0.263061
H18   H     H_    0.430553 0.813096 0.701255 0.225660
H19   H     H_    0.473889 0.871716 0.815491 0.263198
C59   C     C_3   0.560529 0.107069 0.289623 -0.350622
C60   C     C_3   0.594560 0.022729 0.210730 -0.740790
H20   H     H_    0.618538 0.965941 0.282774 0.253578
H21   H     H_    0.573673 0.964460 0.143844 0.309140
H22   H     H_    0.617352 0.078833 0.140952 0.262709
H23   H     H_    0.535258 0.153053 0.212510 0.240112
H24   H     H_    0.582047 0.176913 0.339796 0.240392
C61   C     C_2   0.545857 0.700422 0.093754 0.923694
O17   O     O_2   0.530668 0.802101 0.054264 -0.578010
O18   O     O_R   0.587332 0.684796 0.176347 -0.762625
H25   H     H_    0.601745 0.765083 0.198992 0.313935
C62   C     C_2   0.448671 0.305823 0.909967 0.956312
O19   O     O_2   0.456518 0.203673 0.963367 -0.569183
O20   O     O_R   0.408625 0.331233 0.822422 -0.708704
H26   H     H_    0.386138 0.261078 0.820064 0.349521
C63   C     C_2   0.594389 0.495698 0.909032 0.891038
O21   O     O_2   0.621430 0.407410 0.939424 -0.582584
O22   O     O_R   0.611968 0.600521 0.842756 -0.711004
H27   H     H_    0.647529 0.590899 0.821406 0.332193
C64   C     C_2   0.405709 0.520788 0.094571 0.900846
O23   O     O_2   0.391306 0.618048 0.141310 -0.547137
O24   O     O_R   0.374150 0.426199 0.079468 -0.760292
H28   H     H_    0.339928 0.451008 0.105235 0.336641
C65   C     C_3   0.134213 0.122758 0.573598 -0.274798
C66   C     C_3   0.104874 0.022806 0.641977 -0.935087
H29   H     H_    0.082943 0.059372 0.728812 0.268093
H30   H     H_    0.081372 0.982223 0.562895 0.247635
H31   H     H_    0.130040 0.950595 0.688607 0.262433
H32   H     H_    0.149564 0.090898 0.473568 0.240330
H33   H     H_    0.163692 0.134010 0.650858 0.253406
C67   C     C_3   0.874299 0.822501 0.444652 -0.296349
C68   C     C_3   0.906239 0.926484 0.396896 -0.903315
H34   H     H_    0.929606 0.953306 0.484710 0.237732
H35   H     H_    0.928467 0.898936 0.306324 0.256931
H36   H     H_    0.883164 0.008073 0.363078 0.274081
H37   H     H_    0.849257 0.808051 0.355717 0.234183
H38   H     H_    0.853333 0.855940 0.535090 0.254099
C69   C     C_2   0.650129 0.296803 0.658694 0.939867
O25   O     O_2   0.668657 0.243167 0.762045 -0.525840
O26   O     O_R   0.610448 0.249468 0.593261 -0.788273
H39   H     H_    0.603752 0.165525 0.632733 0.357583
C70   C     C_2   0.346485 0.697699 0.623345 0.825994
O27   O     O_2   0.338582 0.738613 0.738822 -0.588012
O28   O     O_R   0.368588 0.768016 0.518964 -0.728572
H40   H     H_    0.370427 0.857051 0.542402 0.343688
C71   C     C_3   0.968779 0.139271 0.689693 -0.414681
C72   C     C_3   0.990814 0.176013 0.828679 -0.794871
H41   H     H_    0.023565 0.228493 0.811592 0.258173
H42   H     H_    0.964242 0.232620 0.887074 0.257511
H43   H     H_    0.001052 0.092328 0.893896 0.234741
H44   H     H_    0.938853 0.079193 0.718075 0.204590
H45   H     H_    0.993685 0.077617 0.633912 0.181503
C73   C     C_3   0.025973 0.781589 0.709196 -0.423243
C74   C     C_3   0.999410 0.727299 0.834923 -0.780530
H46   H     H_    0.966752 0.681372 0.800834 0.258617
H47   H     H_    0.023469 0.660295 0.895625 0.253660
H48   H     H_    0.987926 0.801827 0.904857 0.235284
H49   H     H_    0.054179 0.837646 0.754050 0.213827
H50   H     H_    0.001865 0.847326 0.648293 0.188967
C75   C     C_2   0.596938 0.897090 0.546553 0.868284
O29   O     O_2   0.630940 0.963777 0.551973 -0.576070
O30   O     O_R   0.604375 0.770807 0.568043 -0.750508
H51   H     H_    0.639245 0.746572 0.591012 0.346814
C76   C     C_2   0.406783 0.103578 0.467675 0.821411
O31   O     O_2   0.381884 0.078576 0.367278 -0.548019
O32   O     O_R   0.388917 0.184880 0.565579 -0.791314
H52   H     H_    0.353492 0.207331 0.550132 0.345132

loop_
_geom_bond_atom_site_label_1
_geom_bond_atom_site_label_2
_geom_bond_distance
_ccdc_geom_bond_type
O14   H13   1.013601 S    
C49   C61   1.478350 S    
C57   C58   1.516493 S    
C13   C15   1.397144 A    
C35   C37   1.402919 A    
C62   O19   1.218948 D    
C49   N4    1.480737 S    
C47   C57   1.539421 S    
C68   H36   1.110724 S    
N1    C17   1.451956 S    
C44   C76   1.503077 S    
C50   C54   1.521825 S    
C8    O11   1.349982 S    
O30   H51   1.013295 S    
C65   C66   1.523496 S    
C55   O13   1.220924 D    
C19   C34   1.418413 A    
C5    N1    1.374114 A    
C69   O26   1.391065 S    
C59   H23   1.102617 S    
O32   H52   1.012540 S    
C31   C40   1.401294 A    
O1    C1    1.309392 A    
C32   C39   1.403788 A    
C24   C67   1.531750 S    
N1    C7    1.370965 A    
C10   C12   1.401842 A    
C72   H41   1.108161 S    
C1    C46   1.503316 S    
C50   C62   1.486558 S    
C52   H12   1.099786 S    
C42   C48   1.551375 S    
C63   O21   1.220733 D    
Cu1   N3    2.051008 S    
C41   C46   1.552007 S    
C14   C28   1.402221 A    
O4    Cu1   2.005144 S    
C43   C45   1.548911 S    
C13   C27   1.400197 A    
C4    C28   1.483878 S    
C43   C75   1.503240 S    
C23   C65   1.521602 S    
C52   C53   1.537250 S    
C9    H6    1.083057 S    
C25   C38   1.396507 A    
C63   O22   1.397256 S    
C37   H7    1.084095 S    
C32   C34   1.412053 A    
C61   O17   1.215800 D    
C38   H8    1.075102 S    
C3    C27   1.473148 S    
C41   C47   1.547268 S    
C56   O16   1.395120 S    
C57   H19   1.107382 S    
C71   H44   1.112333 S    
C6    N2    1.371599 A    
C29   C35   1.433474 A    
C12   C69   1.474531 S    
C51   H11   1.103978 S    
C40   H10   1.074310 S    
C60   H21   1.097987 S    
Cu1   Cu2   2.729409 S    
C65   H33   1.110078 S    
C61   O18   1.389833 S    
O2    C2    1.316744 A    
C48   C59   1.534291 S    
C5    C21   1.426058 A    
N3    C53   1.489496 S    
C71   C72   1.528761 S    
C29   C32   1.431601 A    
C72   H42   1.110933 S    
C64   O24   1.396278 S    
C2    C45   1.499144 S    
C73   H50   1.104287 S    
C41   C55   1.507363 S    
C55   O14   1.394192 S    
C60   H20   1.105448 S    
C53   C63   1.495564 S    
C30   C34   1.413138 A    
C46   C48   1.553444 S    
C11   C27   1.405673 A    
O16   H14   1.013182 S    
C45   C47   1.551080 S    
C29   C33   1.425822 A    
C51   C54   1.532020 S    
C31   C33   1.406907 A    
C14   H2    1.073773 S    
C15   H3    1.081994 S    
C71   H45   1.100598 S    
C9    C17   1.405794 A    
C30   C36   1.421465 A    
O7    Cu2   1.953669 S    
C10   C18   1.402008 A    
C72   H43   1.110699 S    
C49   C51   1.534537 S    
C52   N4    1.483063 S    
O5    C3    1.313311 A    
C75   O29   1.221293 D    
C7    C25   1.397130 A    
C51   N3    1.483844 S    
O6    C4    1.311094 A    
C26   C37   1.399523 A    
C8    C26   1.400693 A    
C44   C47   1.551428 S    
C35   C71   1.529174 S    
C42   C56   1.497172 S    
C20   C33   1.415720 A    
C11   C70   1.469555 S    
C43   C48   1.549527 S    
C62   O20   1.395747 S    
C19   C25   1.401987 A    
C74   H48   1.110729 S    
C58   H16   1.107621 S    
O7    C3    1.309297 A    
O24   H28   1.013584 S    
C23   C39   1.407548 A    
O3    Cu2   2.005143 S    
O8    C4    1.316369 A    
C10   H5    1.083128 S    
C24   C40   1.403231 A    
O4    C2    1.305588 A    
C30   C31   1.411244 A    
C67   H37   1.111629 S    
N2    C8    1.370645 A    
C60   H22   1.110482 S    
N4    C54   1.489744 S    
C66   H31   1.107977 S    
C20   C26   1.403008 A    
C74   H47   1.111014 S    
Cu2   N4    2.051008 S    
C68   H34   1.110299 S    
O3    C1    1.314716 A    
C12   C28   1.415285 A    
C66   H30   1.110363 S    
O20   H26   1.011652 S    
N2    C18   1.447941 S    
C5    O9    1.346431 S    
C73   H49   1.108676 S    
O6    Cu2   1.948948 S    
C21   C23   1.421853 A    
C16   H4    1.082669 S    
C67   H38   1.110710 S    
C50   C52   1.541578 S    
C68   H35   1.110838 S    
O8    Cu1   1.953669 S    
C50   N3    1.487352 S    
C36   C73   1.527328 S    
O26   H39   1.004242 S    
C36   C38   1.396809 A    
C42   C45   1.548812 S    
C69   O25   1.223698 D    
C59   H24   1.110027 S    
C58   H17   1.109850 S    
C70   O28   1.398555 S    
C75   O30   1.393678 S    
C74   H46   1.108692 S    
C7    O12   1.350289 S    
C15   C17   1.409008 A    
C70   O27   1.222668 D    
C6    C22   1.419456 A    
C22   C24   1.427657 A    
C16   C18   1.402669 A    
C49   C53   1.515648 S    
C65   H32   1.111095 S    
C54   C64   1.501584 S    
C14   C16   1.393620 A    
C59   C60   1.517722 S    
C19   C21   1.411897 A    
C67   C68   1.532164 S    
C20   C22   1.420854 A    
C9    C11   1.396142 A    
C58   H15   1.097258 S    
O2    Cu2   2.021305 S    
C76   O31   1.221644 D    
C13   H1    1.082031 S    
O5    Cu1   1.948948 S    
O1    Cu1   2.021306 S    
C73   C74   1.529339 S    
C6    O10   1.347209 S    
C64   O23   1.221478 D    
O18   H25   1.010678 S    
C42   C44   1.546490 S    
C76   O32   1.393903 S    
C44   C46   1.546010 S    
C41   C43   1.546352 S    
C56   O15   1.220218 D    
O22   H27   1.013775 S    
C57   H18   1.101686 S    
C39   H9    1.071041 S    
O28   H40   1.010301 S    
C66   H29   1.110098 S    
