data_mof_unit_45646.cif
_audit_creation_date              2012-12-10T16:54:30-0500
_audit_creation_method            fapswitch 2.2
_symmetry_space_group_name_H-M    P1
_symmetry_Int_Tables_number       1
_space_group_crystal_system       triclinic
_cell_length_a                    15.114394
_cell_length_b                    10.939451
_cell_length_c                    9.68947
_cell_angle_alpha                 89.447186
_cell_angle_beta                  89.602577
_cell_angle_gamma                 90.470689
_cell_volume                      1601.91965305

loop_
_atom_site_label
_atom_site_type_symbol
_atom_type_description
_atom_site_fract_x
_atom_site_fract_y
_atom_site_fract_z
_atom_type_partial_charge
C1    C     C_R   0.503900 0.265629 0.500625 0.770584
C2    C     C_R   0.907457 0.533414 0.621374 -0.181073
C3    C     C_R   0.957054 0.440942 0.258154 0.679865
C4    C     C_R   0.048972 0.444081 0.258856 -0.287852
C5    C     C_R   0.094384 0.472173 0.379582 0.045881
C6    C     C_R   0.047346 0.500328 0.501398 0.050655
C7    C     C_R   0.093573 0.527651 0.623739 -0.060715
C8    C     C_R   0.046752 0.557083 0.744663 0.356722
C9    C     C_R   0.954308 0.558431 0.743570 0.586635
C10   C     C_R   0.186448 0.472658 0.379948 -0.187725
C11   C     C_R   0.232339 0.498928 0.501120 -0.091253
C12   C     C_R   0.328817 0.499475 0.500414 0.798487
C13   C     C_R   0.186000 0.525208 0.622668 -0.187634
C14   C     C_2   0.509011 0.935264 0.387363 0.634195
C15   C     C_2   0.490401 0.866138 0.499019 -0.380151
C16   C     C_2   0.500142 0.068067 0.391159 -0.353248
C17   C     C_2   0.518762 0.134675 0.503446 0.264130
C18   C     C_2   0.435598 0.455236 0.923935 -0.124454
C19   C     C_2   0.445475 0.432655 0.079324 0.668977
C20   C     C_R   0.498476 0.734594 0.499301 0.830078
C21   C     C_R   0.671458 0.500394 0.499632 0.819537
C22   C     C_R   0.814820 0.541714 0.616943 0.458026
C23   C     C_R   0.768775 0.500829 0.499368 -0.318534
C24   C     C_R   0.815755 0.459914 0.382280 0.407469
C25   C     C_R   0.908597 0.467621 0.379198 -0.093462
C26   C     C_R   0.954305 0.500677 0.500646 -0.228017
Cu1   Cu    Cu3+1 0.500020 0.500020 0.638630 0.982671
Cu2   Cu    Cu3+1 0.499980 0.499980 0.361370 1.044407
H1    H     H_    0.466000 0.906248 0.593686 0.176092
H2    H     H_    0.479692 0.112559 0.296074 0.177981
H3    H     H_    0.373949 0.430084 0.875022 0.150338
H4    H     H_    0.560582 0.504554 0.890746 0.235105
H5    H     H_    0.084770 0.423592 0.164631 0.196056
H6    H     H_    0.222324 0.451307 0.285992 0.183118
H7    H     H_    0.222244 0.545672 0.715849 0.193076
N1    N     N_2   0.499020 0.498660 0.846910 -0.271348
N2    N     N_2   0.499000 0.498630 0.153040 -0.041717
O1    O     O_R   0.500020 0.321960 0.617040 -0.556374
O2    O     O_R   0.499980 0.321920 0.382900 -0.579927
O3    O     O_R   0.370270 0.499990 0.617090 -0.598311
O4    O     O_R   0.370240 0.499950 0.382940 -0.543921
O5    O     O_R   0.500020 0.678080 0.617100 -0.572126
O6    O     O_R   0.499980 0.678040 0.382960 -0.503399
O7    O     O_R   0.629760 0.500050 0.617060 -0.543935
O8    O     O_R   0.629730 0.500010 0.382910 -0.579276
O9    O     O_3   0.768842 0.587640 0.728944 -0.499370
C27   C     C_3   0.758596 0.714718 0.708987 -0.190722
H8    H     H_    0.721794 0.751702 0.798558 0.182431
H9    H     H_    0.719428 0.735271 0.614817 0.115063
H10   H     H_    0.823813 0.762612 0.703463 0.142070
O10   O     O_3   0.552957 0.082046 0.622231 -0.575170
C28   C     C_3   0.645339 0.101117 0.622533 -0.304069
H11   H     H_    0.662253 0.200001 0.630372 0.162929
H12   H     H_    0.677216 0.061189 0.529496 0.145204
H13   H     H_    0.673108 0.054184 0.714311 0.194512
O11   O     O_3   0.393409 0.346236 0.149222 -0.582169
C29   C     C_3   0.374232 0.243950 0.066763 -0.392764
H14   H     H_    0.433753 0.211031 0.010225 0.179616
H15   H     H_    0.319400 0.264331 0.994635 0.173248
H16   H     H_    0.351161 0.168180 0.135238 0.207606
O12   O     O_3   0.521822 0.607189 0.094803 -0.521436
C30   C     C_3   0.613015 0.625926 0.115701 0.000474
H17   H     H_    0.651574 0.539785 0.109137 0.162407
H18   H     H_    0.625079 0.672568 0.214719 0.205143
H19   H     H_    0.638405 0.687711 0.032810 0.137851
O13   O     O_3   0.770656 0.415352 0.269232 -0.516858
C31   C     C_3   0.756762 0.288576 0.288536 -0.173200
H20   H     H_    0.820553 0.238978 0.296767 0.151351
H21   H     H_    0.721325 0.252638 0.197439 0.188784
H22   H     H_    0.714689 0.269049 0.380905 0.096759
F1    F     F_    0.916369 0.413720 0.137650 -0.585817
O14   O     O_3   0.090955 0.576627 0.867167 -0.549625
C32   C     C_3   0.100919 0.703681 0.885594 -0.269218
H23   H     H_    0.139086 0.746673 0.798941 0.135072
H24   H     H_    0.138665 0.719230 0.981712 0.192453
H25   H     H_    0.035713 0.748987 0.897596 0.193140
F2    F     F_    0.911224 0.581037 0.864093 -0.578725
F3    F     F_    0.532668 0.884402 0.265098 -0.652598

loop_
_geom_bond_atom_site_label_1
_geom_bond_atom_site_label_2
_ccdc_geom_bond_type
C19   O11   S    
C32   H23   S    
C17   O10   S    
C7    C8    A    
C27   H9    S    
C30   H17   S    
H4    N1    S    
C13   H7    S    
C5    C6    A    
C29   H15   S    
C16   C17   D    
Cu1   O1    S    
C16   H2    S    
Cu2   O4    S    
O11   C29   S    
C18   C19   S    
C30   H18   S    
C19   N2    D    
C4    H5    S    
Cu1   O7    S    
C8    C9    A    
C2    C22   A    
C23   C24   A    
C28   H13   S    
C24   O13   S    
O13   C31   S    
C32   H24   S    
C28   H12   S    
C15   H1    S    
C27   H10   S    
C21   O8    A    
C15   C20   S    
Cu2   O8    S    
C8    O14   S    
C31   H20   S    
C3    C25   A    
C24   C25   A    
C2    C26   A    
O14   C32   S    
C29   H16   S    
Cu2   O2    S    
C25   C26   A    
O10   C28   S    
C31   H21   S    
C12   O3    A    
C3    F1    S    
C12   O4    A    
C21   O7    A    
N2    O12   S    
C27   H8    S    
Cu1   O3    S    
C10   H6    S    
C9    F2    S    
C1    O1    A    
C22   O9    S    
C21   C23   S    
C32   H25   S    
C14   C16   S    
C3    C4    A    
C20   O6    A    
C28   H11   S    
O9    C27   S    
C30   H19   S    
C22   C23   A    
C4    C5    A    
C20   O5    A    
C11   C12   S    
C6    C7    A    
Cu1   N1    S    
Cu2   O6    S    
C1    C17   S    
C31   H22   S    
C5    C10   A    
C11   C13   A    
Cu1   O5    S    
C29   H14   S    
C6    C26   A    
Cu2   N2    S    
C14   F3    S    
O12   C30   S    
C10   C11   A    
C1    O2    A    
C7    C13   A    
Cu1   Cu2   S    
C14   C15   D    
C18   H3    S    
C2    C9    A    
C18   N1    D    
