data_mof_unit_36702.cif
_audit_creation_date              2012-12-10T19:16:08-0500
_audit_creation_method            fapswitch 2.2
_symmetry_space_group_name_H-M    P1
_symmetry_Int_Tables_number       1
_space_group_crystal_system       triclinic
_cell_length_a                    14.770678
_cell_length_b                    15.681152
_cell_length_c                    15.989935
_cell_angle_alpha                 89.950263
_cell_angle_beta                  89.921321
_cell_angle_gamma                 70.121506
_cell_volume                      3482.92860374

loop_
_atom_site_label
_atom_site_type_symbol
_atom_type_description
_atom_site_fract_x
_atom_site_fract_y
_atom_site_fract_z
_atom_type_partial_charge
C1    C     C_R   0.500106 0.499871 0.340926 0.804172
C2    C     C_R   0.499989 0.499898 0.659066 0.817540
C3    C     C_R   0.621108 0.901279 0.565385 0.426251
C4    C     C_R   0.389801 0.092742 0.583920 0.424921
C5    C     C_R   0.686606 0.946652 0.554882 -0.256059
C6    C     C_R   0.323223 0.047727 0.580484 -0.262980
C7    C     C_R   0.588089 0.468869 0.955459 0.334542
C8    C     C_R   0.412836 0.527891 0.044443 0.330842
C9    C     C_R   0.499689 0.497078 0.912576 -0.227554
C10   C     C_R   0.501232 0.499735 0.087353 -0.225459
C11   C     C_R   0.411867 0.525717 0.956781 0.320841
C12   C     C_R   0.589061 0.470282 0.043165 0.316370
C13   C     C_1   0.499755 0.498211 0.822948 0.092397
C14   C     C_1   0.501058 0.499616 0.177001 0.086297
C15   C     C_1   0.500486 0.499669 0.251976 -0.194010
C16   C     C_1   0.500002 0.499123 0.747990 -0.186466
C17   C     C_R   0.922895 0.577238 0.527769 -0.252924
C18   C     C_R   0.076159 0.424953 0.477577 -0.303631
C19   C     C_R   0.902913 0.499855 0.501688 -0.074838
C20   C     C_R   0.096359 0.502346 0.503325 -0.096907
C21   C     C_R   0.980670 0.422775 0.477118 0.441734
C22   C     C_R   0.017869 0.579347 0.529948 0.431233
C23   C     C_R   0.557958 0.326580 0.499944 0.815627
C24   C     C_R   0.441975 0.673450 0.500989 0.819092
C25   C     C_1   0.802683 0.499948 0.500734 0.235961
C26   C     C_1   0.197052 0.500933 0.501398 0.136208
C27   C     C_R   0.593023 0.226809 0.507917 -0.204981
C28   C     C_R   0.407336 0.772793 0.513036 -0.201583
C29   C     C_R   0.721789 0.081778 0.519313 -0.248404
C30   C     C_R   0.282144 0.915134 0.547012 -0.253052
C31   C     C_R   0.691361 0.174387 0.500964 0.458873
C32   C     C_R   0.308978 0.824091 0.523090 0.454019
C33   C     C_R   0.526226 0.183715 0.525350 -0.263966
C34   C     C_R   0.475835 0.815888 0.520383 -0.261773
C35   C     C_R   0.555374 0.090812 0.544779 0.087363
C36   C     C_R   0.450635 0.906260 0.547337 0.087357
C37   C     C_R   0.654849 0.039729 0.540232 0.010027
C38   C     C_R   0.351805 0.956451 0.558561 0.014037
C39   C     C_R   0.488056 0.046017 0.562350 -0.098121
C40   C     C_R   0.520358 0.949679 0.558118 -0.099334
Cu1   Cu    Cu3+1 0.589210 0.500030 0.500000 0.990127
Cu2   Cu    Cu3+1 0.410790 0.499970 0.500000 0.986911
H1    H     H_    0.763008 0.908037 0.556397 0.175486
H2    H     H_    0.248169 0.085321 0.593654 0.167735
H3    H     H_    0.548577 0.778202 0.501958 0.231056
H4    H     H_    0.451198 0.223506 0.519653 0.234589
H5    H     H_    0.797743 0.042267 0.514493 0.156998
H6    H     H_    0.206408 0.953744 0.555492 0.156035
H7    H     H_    0.864066 0.636874 0.547280 0.192190
H8    H     H_    0.135242 0.365613 0.457829 0.155611
N1    N     N_1   0.276700 0.500030 0.499980 -0.149458
N2    N     N_1   0.723300 0.499970 0.500020 -0.155911
O1    O     O_R   0.575310 0.500040 0.380310 -0.575070
O2    O     O_R   0.424690 0.499960 0.619690 -0.567423
O3    O     O_R   0.424640 0.500000 0.380310 -0.576009
O4    O     O_R   0.575360 0.500000 0.619690 -0.577934
O5    O     O_R   0.617590 0.370200 0.500000 -0.520626
O6    O     O_R   0.382410 0.629800 0.500000 -0.526622
O7    O     O_R   0.466910 0.370160 0.500000 -0.583936
O8    O     O_R   0.533090 0.629840 0.500000 -0.587765
O9    O     O_3   0.238515 0.785714 0.510994 -0.559493
C41   C     C_3   0.206909 0.801554 0.427207 0.065501
H9    H     H_    0.267999 0.773381 0.382672 0.134979
H10   H     H_    0.171805 0.875531 0.415285 0.135289
C42   C     C_3   0.133625 0.755169 0.410248 -0.732048
H11   H     H_    0.070728 0.782775 0.452526 0.267687
H12   H     H_    0.108536 0.767363 0.344458 0.192784
H13   H     H_    0.166904 0.680988 0.420380 0.249046
O10   O     O_3   0.758200 0.212375 0.474336 -0.550544
C43   C     C_3   0.760936 0.209254 0.385958 0.054410
H14   H     H_    0.688382 0.244494 0.358551 0.126385
H15   H     H_    0.788144 0.137697 0.363615 0.133340
C44   C     C_3   0.828275 0.256754 0.353993 -0.672728
H16   H     H_    0.902315 0.221212 0.377329 0.255519
H17   H     H_    0.829411 0.255873 0.284547 0.184072
H18   H     H_    0.803062 0.328334 0.375578 0.277385
O11   O     O_3   0.658163 0.809771 0.583999 -0.596646
C45   C     C_3   0.644509 0.797574 0.670027 0.061358
H19   H     H_    0.567346 0.827783 0.688375 0.145938
H20   H     H_    0.688107 0.828552 0.708358 0.150434
C46   C     C_3   0.676991 0.696586 0.689182 -0.776091
H21   H     H_    0.665702 0.686203 0.756557 0.189599
H22   H     H_    0.634683 0.663955 0.651529 0.265912
H23   H     H_    0.754599 0.664212 0.674257 0.243626
O12   O     O_3   0.356496 0.182002 0.610294 -0.594858
C47   C     C_3   0.383907 0.185770 0.694389 0.066531
H24   H     H_    0.463340 0.154932 0.702529 0.146553
H25   H     H_    0.347420 0.150178 0.735685 0.145294
C48   C     C_3   0.353996 0.284479 0.721528 -0.779780
H26   H     H_    0.274824 0.317482 0.715381 0.251916
H27   H     H_    0.374564 0.288287 0.787826 0.182789
H28   H     H_    0.390551 0.321300 0.682010 0.257509
O13   O     O_3   0.676336 0.436255 0.084566 -0.533385
C49   C     C_3   0.703016 0.508821 0.115497 0.090604
H29   H     H_    0.664605 0.534919 0.174891 0.155325
H30   H     H_    0.687610 0.566166 0.070265 0.101256
C50   C     C_3   0.810468 0.474530 0.133646 -0.771635
H31   H     H_    0.851436 0.448490 0.075328 0.247999
H32   H     H_    0.832358 0.530671 0.158593 0.195728
H33   H     H_    0.827831 0.419137 0.180701 0.252372
O14   O     O_3   0.324386 0.557490 0.915416 -0.526769
C51   C     C_3   0.300680 0.483229 0.884432 0.082428
H34   H     H_    0.318367 0.425542 0.929502 0.098576
H35   H     H_    0.339231 0.458487 0.824832 0.158928
C52   C     C_3   0.193234 0.514059 0.866683 -0.755869
H36   H     H_    0.173577 0.569683 0.819819 0.261876
H37   H     H_    0.173938 0.456463 0.841617 0.192752
H38   H     H_    0.152014 0.538661 0.925175 0.245288
O15   O     O_3   0.673689 0.432553 0.911842 -0.525432
C53   C     C_3   0.706543 0.503090 0.885497 0.083480
H39   H     H_    0.748419 0.520002 0.936501 0.150760
H40   H     H_    0.647095 0.566000 0.866689 0.116801
C54   C     C_3   0.772743 0.470817 0.810427 -0.755506
H41   H     H_    0.732178 0.455572 0.757413 0.259861
H42   H     H_    0.801780 0.524419 0.790843 0.194060
H43   H     H_    0.833784 0.408715 0.826870 0.255703
O16   O     O_3   0.327230 0.564945 0.087887 -0.528274
C55   C     C_3   0.294058 0.494908 0.114980 0.094045
H44   H     H_    0.353222 0.433216 0.136673 0.121331
H45   H     H_    0.254705 0.475521 0.063420 0.149570
C56   C     C_3   0.224767 0.529459 0.187724 -0.771094
H46   H     H_    0.163107 0.589540 0.167982 0.250644
H47   H     H_    0.197035 0.475525 0.208977 0.195338
H48   H     H_    0.262416 0.548790 0.240670 0.254654
O17   O     O_3   0.029649 0.657902 0.558821 -0.733615
H49   H     H_    0.099011 0.649256 0.562975 0.337793
O18   O     O_3   0.962078 0.345921 0.453065 -0.743293
H50   H     H_    0.023623 0.298048 0.438035 0.316389

loop_
_geom_bond_atom_site_label_1
_geom_bond_atom_site_label_2
_ccdc_geom_bond_type
O13   C49   S    
C5    C37   A    
C18   C21   A    
Cu1   Cu2   S    
Cu2   O6    S    
C50   H31   S    
O11   C45   S    
C27   C33   A    
C23   O7    A    
C52   H37   S    
O14   C51   S    
C29   H5    S    
C30   H6    S    
C35   C37   A    
C32   O9    S    
O10   C43   S    
C51   H35   S    
C45   H20   S    
C30   C38   A    
C51   C52   S    
C23   O5    A    
C44   H16   S    
C1    O1    A    
C55   H44   S    
C56   H48   S    
C9    C13   S    
C50   H32   S    
C53   H39   S    
C42   H12   S    
C41   H10   S    
C6    C38   A    
C43   H14   S    
C1    C15   S    
C23   C27   S    
C21   O18   S    
C2    C16   S    
Cu1   N2    S    
C18   C20   A    
Cu2   N1    S    
C54   H43   S    
C5    H1    S    
C28   C34   A    
C6    H2    S    
C33   H4    S    
C44   H17   S    
C49   H29   S    
C46   H22   S    
C8    O16   S    
C46   H21   S    
C53   H40   S    
C7    C12   A    
C52   H38   S    
C47   H25   S    
C27   C31   A    
C51   H34   S    
C28   C32   A    
C4    C6    A    
C10   C14   S    
C17   H7    S    
C39   C40   A    
C47   H24   S    
C17   C19   A    
C22   O17   S    
C4    O12   S    
C49   C50   S    
O12   C47   S    
C7    O15   S    
C55   C56   S    
C35   C39   A    
Cu1   O4    S    
C41   H9    S    
Cu2   O3    S    
C4    C39   A    
C36   C40   A    
C24   O8    A    
C42   H13   S    
C43   C44   S    
C11   O14   S    
C34   H3    S    
C48   H28   S    
C49   H30   S    
C9    C11   A    
C53   C54   S    
Cu1   O1    S    
C56   H46   S    
C10   C12   A    
C8    C10   A    
C20   C22   A    
C3    C40   A    
C2    O2    A    
O17   H49   S    
C44   H18   S    
C12   O13   S    
C48   H27   S    
O18   H50   S    
C3    O11   S    
C46   H23   S    
C18   H8    S    
C54   H41   S    
C7    C9    A    
C50   H33   S    
C41   C42   S    
C19   C21   A    
C45   H19   S    
C24   C28   S    
Cu1   O8    S    
C3    C5    A    
C47   C48   S    
Cu2   O7    S    
C52   H36   S    
O16   C55   S    
C17   C22   A    
C36   C38   A    
C1    O3    A    
C25   N2    T    
Cu1   O5    S    
C29   C31   A    
C2    O4    A    
C26   N1    T    
Cu2   O2    S    
C30   C32   A    
C45   C46   S    
C20   C26   S    
C8    C11   A    
C33   C35   A    
C34   C36   A    
O9    C41   S    
C19   C25   S    
C55   H45   S    
C56   H47   S    
C31   O10   S    
C24   O6    A    
C42   H11   S    
C13   C16   T    
C29   C37   A    
C14   C15   T    
C43   H15   S    
C48   H26   S    
O15   C53   S    
C54   H42   S    
