data_mof_unit_32054.cif
_audit_creation_date              2012-12-10T17:38:48-0500
_audit_creation_method            fapswitch 2.2
_symmetry_space_group_name_H-M    P1
_symmetry_Int_Tables_number       1
_space_group_crystal_system       triclinic
_cell_length_a                    12.345669
_cell_length_b                    13.155757
_cell_length_c                    23.520411
_cell_angle_alpha                 77.591328
_cell_angle_beta                  101.113137
_cell_angle_gamma                 116.464397
_cell_volume                      3319.30172592

loop_
_atom_site_label
_atom_site_type_symbol
_atom_type_description
_atom_site_fract_x
_atom_site_fract_y
_atom_site_fract_z
_atom_type_partial_charge
C1    C     C_R   0.854984 0.287491 0.501272 0.790249
C2    C     C_R   0.061151 0.340687 0.053753 -0.015941
C3    C     C_R   0.063672 0.344834 0.993995 -0.210714
C4    C     C_R   0.047180 0.431848 0.952356 -0.029669
C5    C     C_R   0.028789 0.517327 0.970713 -0.017633
C6    C     C_R   0.013647 0.605905 0.928927 -0.014673
C7    C     C_R   0.996034 0.691531 0.947320 -0.166406
C8    C     C_R   0.992178 0.688833 0.006402 -0.169655
C9    C     C_R   0.048188 0.435305 0.892349 0.545958
C10   C     C_R   0.015197 0.605845 0.869469 0.537498
C11   C     C_R   0.910443 0.485536 0.757409 -0.117383
C12   C     C_R   0.000893 0.502323 0.608821 0.835078
C13   C     C_R   0.901037 0.484547 0.697471 0.353421
C14   C     C_R   0.006344 0.511494 0.670989 -0.120226
C15   C     C_R   0.119991 0.546499 0.705302 -0.304047
C16   C     C_R   0.128533 0.549329 0.764970 -0.122878
C17   C     C_R   0.023580 0.518024 0.791179 0.282938
C18   C     C_R   0.114291 0.523181 0.247812 -0.215627
C19   C     C_R   0.114406 0.522332 0.307634 0.388326
C20   C     C_R   0.006331 0.505328 0.328327 -0.071045
C21   C     C_R   0.901549 0.491390 0.288591 -0.317016
C22   C     C_R   0.902901 0.492385 0.229348 -0.106721
C23   C     C_R   0.145035 0.713673 0.491692 0.796331
C24   C     C_R   0.009102 0.507854 0.208852 0.324359
C25   C     C_R   0.265431 0.031608 0.438752 -0.189849
C26   C     C_R   0.227425 0.835823 0.481012 -0.045063
C27   C     C_R   0.817820 0.083514 0.508805 -0.188316
C28   C     C_R   0.740587 0.967512 0.512819 -0.150784
C29   C     C_R   0.615277 0.932031 0.503407 -0.176863
C30   C     C_R   0.564610 0.013114 0.485581 0.079724
C31   C     C_R   0.644896 0.131211 0.474796 0.087680
C32   C     C_R   0.436827 0.980466 0.476179 0.072611
C33   C     C_R   0.391272 0.063082 0.449115 0.166615
C34   C     C_R   0.001905 0.501924 0.391011 0.824850
C35   C     C_R   0.471682 0.175456 0.431227 -0.243148
C36   C     C_R   0.596287 0.208661 0.442975 -0.199598
C37   C     C_R   0.352823 0.868206 0.493602 -0.248152
C38   C     C_R   0.183819 0.918285 0.454168 -0.196136
C39   C     C_R   0.771606 0.166624 0.494080 -0.103364
C40   C     C_R   0.350353 0.328416 0.591816 -0.319695
C41   C     C_R   0.761374 0.647705 0.421839 0.072613
C42   C     C_R   0.665574 0.680379 0.404455 -0.259824
C43   C     C_R   0.560829 0.624237 0.433128 -0.195161
C44   C     C_R   0.551000 0.534366 0.479794 0.003032
C45   C     C_R   0.000650 0.596342 0.107794 0.534191
C46   C     C_R   0.652018 0.504101 0.495976 0.259139
C47   C     C_R   0.446337 0.474372 0.511678 -0.042743
C48   C     C_R   0.446904 0.386554 0.558377 0.141353
C49   C     C_R   0.544927 0.357659 0.572766 -0.218374
C50   C     C_R   0.645511 0.415863 0.542574 -0.173266
C51   C     C_R   0.341137 0.497336 0.500071 0.019656
C52   C     C_R   0.251272 0.355578 0.579844 0.176692
C53   C     C_R   0.027120 0.422258 0.131880 0.527722
C54   C     C_R   0.038478 0.424534 0.072791 -0.062723
C55   C     C_R   0.024506 0.513979 0.030742 -0.028847
C56   C     C_R   0.005468 0.600251 0.048377 -0.007569
Cu1   Cu    Cu3+1 0.098270 0.475410 0.513370 0.964674
Cu2   Cu    Cu3+1 0.901730 0.524590 0.486630 0.919375
H1    H     H_    0.817874 0.478215 0.303469 0.174866
H2    H     H_    0.821144 0.480384 0.199361 0.151704
H3    H     H_    0.087040 0.894863 0.444003 0.152588
H4    H     H_    0.438182 0.238148 0.407805 0.151606
H5    H     H_    0.230203 0.094268 0.417708 0.141900
H6    H     H_    0.383052 0.804219 0.517502 0.150550
H7    H     H_    0.914177 0.108198 0.516598 0.151303
H8    H     H_    0.560881 0.840607 0.507420 0.129264
H9    H     H_    0.778091 0.904478 0.524343 0.144904
H10   H     H_    0.080279 0.279931 0.980232 0.188031
H11   H     H_    0.652681 0.294356 0.423771 0.183405
H12   H     H_    0.545188 0.290539 0.608785 0.177861
H13   H     H_    0.352423 0.262098 0.628062 0.151193
H14   H     H_    0.333145 0.561945 0.464815 0.160918
H15   H     H_    0.842270 0.691915 0.399330 0.131326
H16   H     H_    0.489459 0.652974 0.418185 0.151717
H17   H     H_    0.672651 0.749570 0.368701 0.152035
H18   H     H_    0.717799 0.390638 0.558664 0.233171
H19   H     H_    0.984538 0.760624 0.916112 0.187261
H20   H     H_    0.977965 0.756113 0.019007 0.184383
H21   H     H_    0.829471 0.462658 0.777774 0.157664
H22   H     H_    0.202703 0.572506 0.685820 0.167675
H23   H     H_    0.216628 0.576011 0.790821 0.154276
H24   H     H_    0.196239 0.536322 0.231188 0.129941
N1    N     N_R   0.011126 0.508329 0.147971 -0.454467
N2    N     N_R   0.031198 0.520800 0.852415 -0.457818
N3    N     N_R   0.246280 0.438190 0.533650 -0.199290
N4    N     N_R   0.754320 0.561190 0.466710 -0.210836
O1    O     O_R   0.972510 0.318130 0.516820 -0.570970
O2    O     O_2   0.029303 0.334125 0.173038 -0.534779
O3    O     O_2   0.064184 0.353092 0.873920 -0.557146
O4    O     O_2   0.000329 0.689724 0.828922 -0.542853
O5    O     O_R   0.806530 0.359650 0.494230 -0.613712
O6    O     O_R   0.082990 0.479200 0.593420 -0.578118
O7    O     O_R   0.917010 0.520720 0.570830 -0.596675
O8    O     O_R   0.193470 0.640350 0.505770 -0.591749
O9    O     O_R   0.027490 0.681870 0.483180 -0.591950
O10   O     O_R   0.082990 0.479280 0.429170 -0.524941
O11   O     O_R   0.917010 0.520800 0.406580 -0.608871
O12   O     O_2   0.986348 0.680270 0.125466 -0.558274
C57   C     C_R   0.087825 0.249774 0.094290 0.172406
C58   C     C_R   0.199495 0.277859 0.129924 -0.079329
C59   C     C_R   0.225476 0.191542 0.167435 -0.132631
C60   C     C_R   0.140808 0.076867 0.169167 -0.093880
C61   C     C_R   0.030119 0.048283 0.133292 -0.116327
C62   C     C_R   0.003684 0.134356 0.095782 -0.134020
H25   H     H_    0.265873 0.366409 0.128712 0.117986
H26   H     H_    0.311322 0.213513 0.195073 0.129359
H27   H     H_    0.161097 0.010142 0.198178 0.140129
H28   H     H_    0.964883 0.959415 0.134500 0.151955
H29   H     H_    0.917777 0.111305 0.068081 0.132180
O13   O     O_3   0.219138 0.540045 0.345939 -0.741160
H30   H     H_    0.285628 0.550546 0.324235 0.314040
C63   C     C_R   0.155122 0.290694 0.619038 0.166023
C64   C     C_R   0.162134 0.329974 0.671169 -0.126408
C65   C     C_R   0.077313 0.263486 0.711187 -0.130584
C66   C     C_R   0.989070 0.154686 0.700847 -0.099891
C67   C     C_R   0.988501 0.110946 0.651598 -0.134330
C68   C     C_R   0.073591 0.177701 0.611772 -0.155103
H31   H     H_    0.233566 0.411891 0.680671 0.126824
H32   H     H_    0.081044 0.295610 0.750534 0.178296
H33   H     H_    0.923720 0.102956 0.731888 0.145158
H34   H     H_    0.923980 0.024595 0.644930 0.142719
H35   H     H_    0.079377 0.140654 0.576288 0.114353
O14   O     O_3   0.787884 0.455103 0.666515 -0.746452
H36   H     H_    0.793407 0.523409 0.637342 0.336616

loop_
_geom_bond_atom_site_label_1
_geom_bond_atom_site_label_2
_ccdc_geom_bond_type
C1    O1    A    
C55   C56   A    
C59   C60   A    
Cu1   O6    S    
C41   C42   A    
C35   C36   A    
C43   C44   A    
C51   N3    A    
C65   C66   A    
C7    C8    A    
C53   C54   A    
C41   N4    A    
C58   H25   S    
C18   C24   A    
C28   C29   A    
C40   H13   S    
C24   N1    S    
C34   O10   A    
C21   H1    S    
C45   O12   S    
C22   H2    S    
C30   C31   A    
C13   O14   S    
C52   C63   S    
C66   C67   A    
C34   O11   A    
C67   C68   A    
C18   C19   A    
C25   H5    S    
C23   C26   S    
O13   H30   S    
C58   C59   A    
C33   C35   A    
C3    H10   S    
C45   C56   A    
C27   C39   A    
C16   C17   A    
Cu1   O10   S    
C47   C48   A    
C61   H28   S    
C35   H4    S    
Cu2   O5    S    
C65   H32   S    
C44   C47   A    
C12   O6    A    
C7    H19   S    
C38   H3    S    
C20   C34   S    
C43   H16   S    
C57   C62   A    
C1    O5    A    
C21   C22   A    
C62   H29   S    
C8    H20   S    
C8    C56   A    
C45   N1    A    
Cu2   O11   S    
Cu2   N4    S    
C63   C64   A    
C44   C46   A    
C67   H34   S    
Cu2   O9    S    
O14   H36   S    
C28   H9    S    
C52   N3    A    
C2    C54   A    
C9    O3    S    
C26   C38   A    
C47   C51   A    
C40   C52   A    
C29   H8    S    
C68   H35   S    
C29   C30   A    
C27   H7    S    
C50   H18   S    
C25   C38   A    
C15   H22   S    
C42   H17   S    
C60   H27   S    
C32   C37   A    
C11   H21   S    
C48   C49   A    
C12   C14   S    
C2    C57   S    
C49   C50   A    
Cu1   O8    S    
C22   C24   A    
C12   O7    A    
C42   C43   A    
C3    C4    A    
C61   C62   A    
C37   H6    S    
C36   H11   S    
C64   C65   A    
C19   O13   S    
C59   H26   S    
C40   C48   A    
C54   C55   A    
C11   C17   A    
C14   C15   A    
C5    C55   A    
C4    C5    A    
C6    C10   A    
C26   C37   A    
C6    C7    A    
C46   C50   A    
C23   O8    A    
C53   N1    A    
C63   C68   A    
C49   H12   S    
C17   N2    S    
C32   C33   A    
C19   C20   A    
C2    C3    A    
C57   C58   A    
C30   C32   A    
C11   C13   A    
Cu1   Cu2   S    
C5    C6    A    
C10   N2    A    
C16   H23   S    
C18   H24   S    
C23   O9    A    
C53   O2    S    
C60   C61   A    
C1    C39   S    
C9    N2    A    
C41   H15   S    
C64   H31   S    
Cu1   O1    S    
C20   C21   A    
C10   O4    S    
C66   H33   S    
C51   H14   S    
C27   C28   A    
C31   C39   A    
C31   C36   A    
Cu2   O7    S    
C4    C9    A    
C13   C14   A    
Cu1   N3    S    
C15   C16   A    
C25   C33   A    
C46   N4    A    
