data_mof_unit_61917.cif
_audit_creation_date              2012-12-10T19:06:44-0500
_audit_creation_method            fapswitch 2.2
_symmetry_space_group_name_H-M    P1
_symmetry_Int_Tables_number       1
_space_group_crystal_system       tetragonal
_cell_length_a                    30.413
_cell_length_b                    30.413
_cell_length_c                    39.1088
_cell_angle_alpha                 90.0
_cell_angle_beta                  90.0
_cell_angle_gamma                 90.0
_cell_volume                      36173.7068129

loop_
_atom_site_label
_atom_site_type_symbol
_atom_type_description
_atom_site_fract_x
_atom_site_fract_y
_atom_site_fract_z
_atom_type_partial_charge
C1    C     C_R   0.916940 0.500000 0.000000 0.884641
C2    C     C_R   0.500000 0.083060 0.000000 0.884640
C3    C     C_R   0.083060 0.500000 0.000000 0.884640
C4    C     C_R   0.500000 0.916940 0.000000 0.884641
C5    C     C_R   0.416940 1.000000 0.500000 0.884641
C6    C     C_R   1.000000 0.583060 0.500000 0.884640
C7    C     C_R   0.583060 1.000000 0.500000 0.884640
C8    C     C_R   1.000000 0.416940 0.500000 0.884641
C9    C     C_R   0.798380 0.471780 0.021880 -0.098031
C10   C     C_R   0.471780 0.201620 0.021880 -0.098031
C11   C     C_R   0.201620 0.528220 0.021880 -0.098031
C12   C     C_R   0.528220 0.798380 0.021880 -0.098031
C13   C     C_R   0.798380 0.528220 0.978120 -0.098031
C14   C     C_R   0.471780 0.798380 0.978120 -0.098031
C15   C     C_R   0.201620 0.471780 0.978120 -0.098031
C16   C     C_R   0.528220 0.201620 0.978120 -0.098031
C17   C     C_R   0.298380 0.971780 0.521880 -0.098031
C18   C     C_R   0.971780 0.701620 0.521880 -0.098031
C19   C     C_R   0.701620 0.028220 0.521880 -0.098031
C20   C     C_R   0.028220 0.298380 0.521880 -0.098031
C21   C     C_R   0.298380 0.028220 0.478120 -0.098031
C22   C     C_R   0.971780 0.298380 0.478120 -0.098031
C23   C     C_R   0.701620 0.971780 0.478120 -0.098031
C24   C     C_R   0.028220 0.701620 0.478120 -0.098031
C25   C     C_R   0.844410 0.471770 0.021890 -0.175185
C26   C     C_R   0.471770 0.155590 0.021890 -0.175186
C27   C     C_R   0.155590 0.528230 0.021890 -0.175185
C28   C     C_R   0.528230 0.844410 0.021890 -0.175185
C29   C     C_R   0.844410 0.528230 0.978110 -0.175185
C30   C     C_R   0.471770 0.844410 0.978110 -0.175185
C31   C     C_R   0.155590 0.471770 0.978110 -0.175185
C32   C     C_R   0.528230 0.155590 0.978110 -0.175185
C33   C     C_R   0.344410 0.971770 0.521890 -0.175186
C34   C     C_R   0.971770 0.655590 0.521890 -0.175185
C35   C     C_R   0.655590 0.028230 0.521890 -0.175185
C36   C     C_R   0.028230 0.344410 0.521890 -0.175185
C37   C     C_R   0.344410 0.028230 0.478110 -0.175185
C38   C     C_R   0.971770 0.344410 0.478110 -0.175185
C39   C     C_R   0.655590 0.971770 0.478110 -0.175185
C40   C     C_R   0.028230 0.655590 0.478110 -0.175185
C41   C     C_R   0.867440 0.500000 0.000000 -0.024893
C42   C     C_R   0.500000 0.132560 0.000000 -0.024892
C43   C     C_R   0.132560 0.500000 0.000000 -0.024892
C44   C     C_R   0.500000 0.867440 0.000000 -0.024893
C45   C     C_R   0.367440 1.000000 0.500000 -0.024892
C46   C     C_R   0.000000 0.632560 0.500000 -0.024893
C47   C     C_R   0.632560 1.000000 0.500000 -0.024893
C48   C     C_R   1.000000 0.367440 0.500000 -0.024893
C49   C     C_R   0.775330 0.500000 0.000000 0.145708
C50   C     C_R   0.500000 0.224670 0.000000 0.145708
C51   C     C_R   0.224670 0.500000 0.000000 0.145708
C52   C     C_R   0.500000 0.775330 0.000000 0.145708
C53   C     C_R   0.275330 1.000000 0.500000 0.145708
C54   C     C_R   1.000000 0.724670 0.500000 0.145708
C55   C     C_R   0.724670 1.000000 0.500000 0.145708
C56   C     C_R   1.000000 0.275330 0.500000 0.145708
C57   C     C_R   0.701690 0.528170 0.978040 0.100192
C58   C     C_R   0.528170 0.298310 0.978040 0.100192
C59   C     C_R   0.298310 0.471830 0.978040 0.100192
C60   C     C_R   0.471830 0.701690 0.978040 0.100192
C61   C     C_R   0.701690 0.471830 0.021960 0.100192
C62   C     C_R   0.528170 0.701690 0.021960 0.100192
C63   C     C_R   0.298310 0.528170 0.021960 0.100192
C64   C     C_R   0.471830 0.298310 0.021960 0.100192
C65   C     C_R   0.201690 0.028170 0.478040 0.100192
C66   C     C_R   0.028170 0.798310 0.478040 0.100192
C67   C     C_R   0.798310 0.971830 0.478040 0.100192
C68   C     C_R   0.971830 0.201690 0.478040 0.100192
C69   C     C_R   0.201690 0.971830 0.521960 0.100192
C70   C     C_R   0.028170 0.201690 0.521960 0.100192
C71   C     C_R   0.798310 0.028170 0.521960 0.100192
C72   C     C_R   0.971830 0.798310 0.521960 0.100192
C73   C     C_R   0.655660 0.528180 0.978030 0.143076
C74   C     C_R   0.528180 0.344340 0.978030 0.143076
C75   C     C_R   0.344340 0.471820 0.978030 0.143076
C76   C     C_R   0.471820 0.655660 0.978030 0.143076
C77   C     C_R   0.655660 0.471820 0.021970 0.143076
C78   C     C_R   0.528180 0.655660 0.021970 0.143076
C79   C     C_R   0.344340 0.528180 0.021970 0.143076
C80   C     C_R   0.471820 0.344340 0.021970 0.143076
C81   C     C_R   0.155660 0.028180 0.478030 0.143076
C82   C     C_R   0.028180 0.844340 0.478030 0.143076
C83   C     C_R   0.844340 0.971820 0.478030 0.143076
C84   C     C_R   0.971820 0.155660 0.478030 0.143076
C85   C     C_R   0.155660 0.971820 0.521970 0.143076
C86   C     C_R   0.028180 0.155660 0.521970 0.143076
C87   C     C_R   0.844340 0.028180 0.521970 0.143076
C88   C     C_R   0.971820 0.844340 0.521970 0.143076
C89   C     C_R   0.632630 0.500000 0.000000 -0.194907
C90   C     C_R   0.500000 0.367370 0.000000 -0.194906
C91   C     C_R   0.367370 0.500000 0.000000 -0.194906
C92   C     C_R   0.500000 0.632630 0.000000 -0.194907
C93   C     C_R   0.132630 1.000000 0.500000 -0.194907
C94   C     C_R   0.000000 0.867370 0.500000 -0.194906
C95   C     C_R   0.867370 1.000000 0.500000 -0.194906
C96   C     C_R   1.000000 0.132630 0.500000 -0.194907
C97   C     C_R   0.724740 0.500000 0.000000 -0.063123
C98   C     C_R   0.500000 0.275260 0.000000 -0.063123
C99   C     C_R   0.275260 0.500000 0.000000 -0.063122
C100  C     C_R   0.500000 0.724740 0.000000 -0.063123
C101  C     C_R   0.224740 1.000000 0.500000 -0.063123
C102  C     C_R   0.000000 0.775260 0.500000 -0.063123
C103  C     C_R   0.775260 1.000000 0.500000 -0.063123
C104  C     C_R   1.000000 0.224740 0.500000 -0.063123
C105  C     C_R   1.000000 0.500000 0.935350 0.894463
C106  C     C_R   0.500000 0.000000 0.935350 0.894463
C107  C     C_R   0.000000 0.500000 0.064650 0.894462
C108  C     C_R   0.500000 1.000000 0.064650 0.894462
C109  C     C_R   0.500000 0.000000 0.435350 0.894463
C110  C     C_R   0.000000 0.500000 0.435350 0.894463
C111  C     C_R   0.500000 0.000000 0.564650 0.894462
C112  C     C_R   1.000000 0.500000 0.564650 0.894462
C113  C     C_R   0.500000 0.416900 0.000000 0.956792
C114  C     C_R   0.416900 0.500000 0.000000 0.956792
C115  C     C_R   0.500000 0.583100 0.000000 0.956790
C116  C     C_R   0.583100 0.500000 0.000000 0.956790
C117  C     C_R   1.000000 0.916900 0.500000 0.956792
C118  C     C_R   0.916900 1.000000 0.500000 0.956792
C119  C     C_R   1.000000 0.083100 0.500000 0.956790
C120  C     C_R   0.083100 1.000000 0.500000 0.956790
C121  C     C_R   0.971830 0.471780 0.621110 0.150954
C122  C     C_R   0.471780 0.028170 0.621110 0.150953
C123  C     C_R   0.028170 0.528220 0.621110 0.150953
C124  C     C_R   0.528220 0.971830 0.621110 0.150954
C125  C     C_R   0.971830 0.528220 0.378890 0.150954
C126  C     C_R   0.471780 0.971830 0.378890 0.150954
C127  C     C_R   0.028170 0.471780 0.378890 0.150953
C128  C     C_R   0.528220 0.028170 0.378890 0.150953
C129  C     C_R   0.471830 0.971780 0.121110 0.150954
C130  C     C_R   0.971780 0.528170 0.121110 0.150953
C131  C     C_R   0.528170 0.028220 0.121110 0.150953
C132  C     C_R   0.028220 0.471830 0.121110 0.150954
C133  C     C_R   0.471830 0.028220 0.878890 0.150954
C134  C     C_R   0.971780 0.471830 0.878890 0.150954
C135  C     C_R   0.528170 0.971780 0.878890 0.150953
C136  C     C_R   0.028220 0.528170 0.878890 0.150953
C137  C     C_R   0.971830 0.471800 0.656900 -0.168793
C138  C     C_R   0.471800 0.028170 0.656900 -0.168792
C139  C     C_R   0.028170 0.528200 0.656900 -0.168792
C140  C     C_R   0.528200 0.971830 0.656900 -0.168793
C141  C     C_R   0.971830 0.528200 0.343100 -0.168793
C142  C     C_R   0.471800 0.971830 0.343100 -0.168793
C143  C     C_R   0.028170 0.471800 0.343100 -0.168792
C144  C     C_R   0.528200 0.028170 0.343100 -0.168792
C145  C     C_R   0.471830 0.971800 0.156900 -0.168793
C146  C     C_R   0.971800 0.528170 0.156900 -0.168792
C147  C     C_R   0.528170 0.028200 0.156900 -0.168792
C148  C     C_R   0.028200 0.471830 0.156900 -0.168793
C149  C     C_R   0.471830 0.028200 0.843100 -0.168793
C150  C     C_R   0.971800 0.471830 0.843100 -0.168793
C151  C     C_R   0.528170 0.971800 0.843100 -0.168792
C152  C     C_R   0.028200 0.528170 0.843100 -0.168792
C153  C     C_R   1.000000 0.500000 0.674780 0.023144
C154  C     C_R   0.500000 1.000000 0.674780 0.023144
C155  C     C_R   0.000000 0.500000 0.325220 0.023144
C156  C     C_R   0.500000 1.000000 0.325220 0.023144
C157  C     C_R   0.500000 1.000000 0.174780 0.023144
C158  C     C_R   0.000000 0.500000 0.174780 0.023144
C159  C     C_R   0.500000 0.000000 0.825220 0.023144
C160  C     C_R   0.000000 0.500000 0.825220 0.023144
C161  C     C_R   0.000000 0.500000 0.603200 -0.049220
C162  C     C_R   0.500000 0.000000 0.603200 -0.049221
C163  C     C_R   1.000000 0.500000 0.396800 -0.049221
C164  C     C_R   0.500000 1.000000 0.396800 -0.049221
C165  C     C_R   0.500000 0.000000 0.103200 -0.049221
C166  C     C_R   0.000000 0.500000 0.103200 -0.049221
C167  C     C_R   0.500000 0.000000 0.896800 -0.049221
C168  C     C_R   0.000000 0.500000 0.896800 -0.049221
C169  C     C_R   0.028220 0.528130 0.732060 -0.154131
C170  C     C_R   0.528130 0.971780 0.732060 -0.154131
C171  C     C_R   0.971780 0.471870 0.732060 -0.154131
C172  C     C_R   0.471870 0.028220 0.732060 -0.154131
C173  C     C_R   0.028220 0.471870 0.267940 -0.154131
C174  C     C_R   0.528130 0.028220 0.267940 -0.154131
C175  C     C_R   0.971780 0.528130 0.267940 -0.154131
C176  C     C_R   0.471870 0.971780 0.267940 -0.154131
C177  C     C_R   0.528220 0.028130 0.232060 -0.154131
C178  C     C_R   0.028130 0.471780 0.232060 -0.154131
C179  C     C_R   0.471780 0.971870 0.232060 -0.154131
C180  C     C_R   0.971870 0.528220 0.232060 -0.154131
C181  C     C_R   0.528220 0.971870 0.767940 -0.154131
C182  C     C_R   0.028130 0.528220 0.767940 -0.154131
C183  C     C_R   0.471780 0.028130 0.767940 -0.154131
C184  C     C_R   0.971870 0.471780 0.767940 -0.154131
C185  C     C_R   1.000000 0.500000 0.785760 0.124567
C186  C     C_R   0.500000 1.000000 0.785760 0.124567
C187  C     C_R   0.000000 0.500000 0.214240 0.124567
C188  C     C_R   0.500000 0.000000 0.214240 0.124567
C189  C     C_R   0.500000 1.000000 0.285760 0.124567
C190  C     C_R   1.000000 0.500000 0.285760 0.124567
C191  C     C_R   0.500000 0.000000 0.714240 0.124567
C192  C     C_R   0.000000 0.500000 0.714240 0.124567
H1    H     H_    0.950100 0.450050 0.670730 0.139438
H2    H     H_    0.450050 0.049900 0.670730 0.139438
H3    H     H_    0.049900 0.549950 0.670730 0.139438
H4    H     H_    0.549950 0.950100 0.670730 0.139438
H5    H     H_    0.950100 0.549950 0.329270 0.139438
H6    H     H_    0.450050 0.950100 0.329270 0.139438
H7    H     H_    0.049900 0.450050 0.329270 0.139438
H8    H     H_    0.549950 0.049900 0.329270 0.139438
H9    H     H_    0.450100 0.950050 0.170730 0.139438
H10   H     H_    0.950050 0.549900 0.170730 0.139438
H11   H     H_    0.549900 0.049950 0.170730 0.139438
H12   H     H_    0.049950 0.450100 0.170730 0.139438
H13   H     H_    0.450100 0.049950 0.829270 0.139438
H14   H     H_    0.950050 0.450100 0.829270 0.139438
H15   H     H_    0.549900 0.950050 0.829270 0.139438
H16   H     H_    0.049950 0.549900 0.829270 0.139438
H17   H     H_    0.049950 0.549880 0.718230 0.125748
H18   H     H_    0.549880 0.950050 0.718230 0.125748
H19   H     H_    0.950050 0.450120 0.718230 0.125748
H20   H     H_    0.450120 0.049950 0.718230 0.125748
H21   H     H_    0.049950 0.450120 0.281770 0.125748
H22   H     H_    0.549880 0.049950 0.281770 0.125748
H23   H     H_    0.950050 0.549880 0.281770 0.125748
H24   H     H_    0.450120 0.950050 0.281770 0.125748
H25   H     H_    0.549950 0.049880 0.218230 0.125748
H26   H     H_    0.049880 0.450050 0.218230 0.125748
H27   H     H_    0.450050 0.950120 0.218230 0.125748
H28   H     H_    0.950120 0.549950 0.218230 0.125748
H29   H     H_    0.549950 0.950120 0.781770 0.125748
H30   H     H_    0.049880 0.549950 0.781770 0.125748
H31   H     H_    0.450050 0.049880 0.781770 0.125748
H32   H     H_    0.950120 0.450050 0.781770 0.125748
H33   H     H_    0.780640 0.450040 0.038810 0.182298
H34   H     H_    0.450040 0.219360 0.038810 0.182298
H35   H     H_    0.219360 0.549960 0.038810 0.182298
H36   H     H_    0.549960 0.780640 0.038810 0.182298
H37   H     H_    0.780640 0.549960 0.961190 0.182298
H38   H     H_    0.450040 0.780640 0.961190 0.182298
H39   H     H_    0.219360 0.450040 0.961190 0.182298
H40   H     H_    0.549960 0.219360 0.961190 0.182298
H41   H     H_    0.280640 0.950040 0.538810 0.182298
H42   H     H_    0.950040 0.719360 0.538810 0.182298
H43   H     H_    0.719360 0.049960 0.538810 0.182298
H44   H     H_    0.049960 0.280640 0.538810 0.182298
H45   H     H_    0.280640 0.049960 0.461190 0.182298
H46   H     H_    0.950040 0.280640 0.461190 0.182298
H47   H     H_    0.719360 0.950040 0.461190 0.182298
H48   H     H_    0.049960 0.719360 0.461190 0.182298
H49   H     H_    0.862180 0.450050 0.038800 0.163935
H50   H     H_    0.450050 0.137820 0.038800 0.163935
H51   H     H_    0.137820 0.549950 0.038800 0.163935
H52   H     H_    0.549950 0.862180 0.038800 0.163935
H53   H     H_    0.862180 0.549950 0.961200 0.163935
H54   H     H_    0.450050 0.862180 0.961200 0.163935
H55   H     H_    0.137820 0.450050 0.961200 0.163935
H56   H     H_    0.549950 0.137820 0.961200 0.163935
H57   H     H_    0.362180 0.950050 0.538800 0.163935
H58   H     H_    0.950050 0.637820 0.538800 0.163935
H59   H     H_    0.637820 0.049950 0.538800 0.163935
H60   H     H_    0.049950 0.362180 0.538800 0.163935
H61   H     H_    0.362180 0.049950 0.461200 0.163935
H62   H     H_    0.950050 0.362180 0.461200 0.163935
H63   H     H_    0.637820 0.950050 0.461200 0.163935
H64   H     H_    0.049950 0.637820 0.461200 0.163935
O1    O     O_R   0.934530 0.536930 0.999970 -0.640536
O2    O     O_R   0.536930 0.065470 0.999970 -0.640536
O3    O     O_R   0.065470 0.463070 0.999970 -0.640535
O4    O     O_R   0.463070 0.934530 0.999970 -0.640535
O5    O     O_R   0.934530 0.463070 0.000030 -0.640535
O6    O     O_R   0.536930 0.934530 0.000030 -0.640536
O7    O     O_R   0.065470 0.536930 0.000030 -0.640536
O8    O     O_R   0.463070 0.065470 0.000030 -0.640535
O9    O     O_R   0.434530 0.036930 0.499970 -0.640536
O10   O     O_R   0.036930 0.565470 0.499970 -0.640536
O11   O     O_R   0.565470 0.963070 0.499970 -0.640535
O12   O     O_R   0.963070 0.434530 0.499970 -0.640535
O13   O     O_R   0.434530 0.963070 0.500030 -0.640535
O14   O     O_R   0.036930 0.434530 0.500030 -0.640536
O15   O     O_R   0.565470 0.036930 0.500030 -0.640536
O16   O     O_R   0.963070 0.565470 0.500030 -0.640535
O17   O     O_R   0.500100 0.434530 0.971230 -0.612511
O18   O     O_R   0.434530 0.499900 0.971230 -0.612511
O19   O     O_R   0.499900 0.565470 0.971230 -0.612511
O20   O     O_R   0.565470 0.500100 0.971230 -0.612511
O21   O     O_R   0.500100 0.565470 0.028770 -0.612511
O22   O     O_R   0.434530 0.500100 0.028770 -0.612512
O23   O     O_R   0.499900 0.434530 0.028770 -0.612512
O24   O     O_R   0.565470 0.499900 0.028770 -0.612511
O25   O     O_R   0.000100 0.934530 0.471230 -0.612511
O26   O     O_R   0.934530 0.999900 0.471230 -0.612511
O27   O     O_R   0.999900 0.065470 0.471230 -0.612511
O28   O     O_R   0.065470 0.000100 0.471230 -0.612511
O29   O     O_R   0.000100 0.065470 0.528770 -0.612511
O30   O     O_R   0.934530 0.000100 0.528770 -0.612512
O31   O     O_R   0.999900 0.934530 0.528770 -0.612512
O32   O     O_R   0.065470 0.999900 0.528770 -0.612511
O33   O     O_R   0.000010 0.536930 0.949060 -0.646595
O34   O     O_R   0.536930 0.999990 0.949060 -0.646595
O35   O     O_R   0.999990 0.463070 0.949060 -0.646594
O36   O     O_R   0.463070 0.000010 0.949060 -0.646594
O37   O     O_R   0.000010 0.463070 0.050940 -0.646594
O38   O     O_R   0.536930 0.000010 0.050940 -0.646595
O39   O     O_R   0.999990 0.536930 0.050940 -0.646595
O40   O     O_R   0.463070 0.999990 0.050940 -0.646594
O41   O     O_R   0.500010 0.036930 0.449060 -0.646595
O42   O     O_R   0.036930 0.499990 0.449060 -0.646595
O43   O     O_R   0.499990 0.963070 0.449060 -0.646594
O44   O     O_R   0.963070 0.500010 0.449060 -0.646594
O45   O     O_R   0.500010 0.963070 0.550940 -0.646594
O46   O     O_R   0.036930 0.500010 0.550940 -0.646595
O47   O     O_R   0.499990 0.036930 0.550940 -0.646595
O48   O     O_R   0.963070 0.499990 0.550940 -0.646594
Zn1   Zn    Zn3+2 0.000000 0.549330 0.000000 0.961065
Zn2   Zn    Zn3+2 0.549330 0.000000 0.000000 0.961065
Zn3   Zn    Zn3+2 0.000000 0.450670 0.000000 0.961065
Zn4   Zn    Zn3+2 0.450670 0.000000 0.000000 0.961065
Zn5   Zn    Zn3+2 0.500000 0.049330 0.500000 0.961065
Zn6   Zn    Zn3+2 0.049330 0.500000 0.500000 0.961065
Zn7   Zn    Zn3+2 0.500000 0.950670 0.500000 0.961065
Zn8   Zn    Zn3+2 0.950670 0.500000 0.500000 0.961065
Zn9   Zn    Zn3+2 0.500000 0.500000 0.961590 1.081038
Zn10  Zn    Zn3+2 0.500000 0.500000 0.038410 1.081038
Zn11  Zn    Zn3+2 0.000000 0.000000 0.461590 1.081038
Zn12  Zn    Zn3+2 0.000000 0.000000 0.538410 1.081038
C193  C     C_3   0.937995 0.437960 0.599632 -0.875446
H65   H     H_    0.942630 0.442577 0.572256 0.278626
H66   H     H_    0.945375 0.404009 0.606366 0.246141
H67   H     H_    0.904046 0.445372 0.606352 0.255963
C194  C     C_3   0.437960 0.062005 0.599632 -0.875446
H68   H     H_    0.442577 0.057370 0.572256 0.278626
H69   H     H_    0.404009 0.054625 0.606366 0.246141
H70   H     H_    0.445372 0.095954 0.606352 0.255963
C195  C     C_3   0.062005 0.562040 0.599632 -0.875447
H71   H     H_    0.057370 0.557423 0.572256 0.278626
H72   H     H_    0.054625 0.595991 0.606366 0.246141
H73   H     H_    0.095954 0.554628 0.606352 0.255963
C196  C     C_3   0.562040 0.937995 0.599632 -0.875446
H74   H     H_    0.557423 0.942630 0.572256 0.278626
H75   H     H_    0.595991 0.945375 0.606366 0.246141
H76   H     H_    0.554628 0.904046 0.606352 0.255963
C197  C     C_3   0.937995 0.562040 0.400368 -0.875446
H77   H     H_    0.942630 0.557423 0.427744 0.278626
H78   H     H_    0.945375 0.595991 0.393634 0.246141
H79   H     H_    0.904046 0.554628 0.393648 0.255963
C198  C     C_3   0.437960 0.937995 0.400368 -0.875446
H80   H     H_    0.442577 0.942630 0.427744 0.278626
H81   H     H_    0.404009 0.945375 0.393634 0.246141
H82   H     H_    0.445372 0.904046 0.393648 0.255963
C199  C     C_3   0.062005 0.437960 0.400368 -0.875446
H83   H     H_    0.057370 0.442577 0.427744 0.278626
H84   H     H_    0.054625 0.404009 0.393634 0.246141
H85   H     H_    0.095954 0.445372 0.393648 0.255963
C200  C     C_3   0.562040 0.062005 0.400368 -0.875446
H86   H     H_    0.557423 0.057370 0.427744 0.278626
H87   H     H_    0.595991 0.054625 0.393634 0.246141
H88   H     H_    0.554628 0.095954 0.393648 0.255963
C201  C     C_3   0.437995 0.937960 0.099632 -0.875446
H89   H     H_    0.442630 0.942577 0.072256 0.278626
H90   H     H_    0.445375 0.904009 0.106366 0.246141
H91   H     H_    0.404046 0.945372 0.106352 0.255963
C202  C     C_3   0.937960 0.562005 0.099632 -0.875446
H92   H     H_    0.942577 0.557370 0.072256 0.278626
H93   H     H_    0.904009 0.554625 0.106366 0.246141
H94   H     H_    0.945372 0.595954 0.106352 0.255963
C203  C     C_3   0.562005 0.062040 0.099632 -0.875447
H95   H     H_    0.557370 0.057423 0.072256 0.278626
H96   H     H_    0.554625 0.095991 0.106366 0.246141
H97   H     H_    0.595954 0.054628 0.106352 0.255963
C204  C     C_3   0.062040 0.437995 0.099632 -0.875446
H98   H     H_    0.057423 0.442630 0.072256 0.278626
H99   H     H_    0.095991 0.445375 0.106366 0.246141
H100  H     H_    0.054628 0.404046 0.106352 0.255963
C205  C     C_3   0.437995 0.062040 0.900368 -0.875446
H101  H     H_    0.442630 0.057423 0.927744 0.278626
H102  H     H_    0.445375 0.095991 0.893634 0.246141
H103  H     H_    0.404046 0.054628 0.893648 0.255963
C206  C     C_3   0.937960 0.437995 0.900368 -0.875446
H104  H     H_    0.942577 0.442630 0.927744 0.278626
H105  H     H_    0.904009 0.445375 0.893634 0.246141
H106  H     H_    0.945372 0.404046 0.893648 0.255963
C207  C     C_3   0.562005 0.937960 0.900368 -0.875446
H107  H     H_    0.557370 0.942577 0.927744 0.278626
H108  H     H_    0.554625 0.904009 0.893634 0.246141
H109  H     H_    0.595954 0.945372 0.893648 0.255963
C208  C     C_3   0.062040 0.562005 0.900368 -0.875446
H110  H     H_    0.057423 0.557370 0.927744 0.278626
H111  H     H_    0.095991 0.554625 0.893634 0.246141
H112  H     H_    0.054628 0.595954 0.893648 0.255963
I1    I     I_    0.736509 0.570840 0.944810 -0.314525
I2    I     I_    0.570840 0.263491 0.944810 -0.314525
I3    I     I_    0.263491 0.429160 0.944810 -0.314525
I4    I     I_    0.429160 0.736509 0.944810 -0.314525
I5    I     I_    0.736509 0.429160 0.055190 -0.314525
I6    I     I_    0.570840 0.736509 0.055190 -0.314525
I7    I     I_    0.263491 0.570840 0.055190 -0.314525
I8    I     I_    0.429160 0.263491 0.055190 -0.314525
I9    I     I_    0.236509 0.070840 0.444810 -0.314525
I10   I     I_    0.070840 0.763491 0.444810 -0.314525
I11   I     I_    0.763491 0.929160 0.444810 -0.314525
I12   I     I_    0.929160 0.236509 0.444810 -0.314525
I13   I     I_    0.236509 0.929160 0.555190 -0.314525
I14   I     I_    0.070840 0.236509 0.555190 -0.314525
I15   I     I_    0.763491 0.070840 0.555190 -0.314525
I16   I     I_    0.929160 0.763491 0.555190 -0.314525
I17   I     I_    0.620769 0.570827 0.944828 -0.199995
I18   I     I_    0.570827 0.379231 0.944828 -0.199995
I19   I     I_    0.379231 0.429173 0.944828 -0.199995
I20   I     I_    0.429173 0.620769 0.944828 -0.199995
I21   I     I_    0.620769 0.429173 0.055172 -0.199995
I22   I     I_    0.570827 0.620769 0.055172 -0.199995
I23   I     I_    0.379231 0.570827 0.055172 -0.199995
I24   I     I_    0.429173 0.379231 0.055172 -0.199995
I25   I     I_    0.120769 0.070827 0.444828 -0.199995
I26   I     I_    0.070827 0.879231 0.444828 -0.199995
I27   I     I_    0.879231 0.929173 0.444828 -0.199995
I28   I     I_    0.929173 0.120769 0.444828 -0.199995
I29   I     I_    0.120769 0.929173 0.555172 -0.199995
I30   I     I_    0.070827 0.120769 0.555172 -0.199995
I31   I     I_    0.879231 0.070827 0.555172 -0.199995
I32   I     I_    0.929173 0.879231 0.555172 -0.199995

loop_
_geom_bond_atom_site_label_1
_geom_bond_atom_site_label_2
_ccdc_geom_bond_type
C67   I11   S    
C154  C191  S    
C5    O9    A    
C203  H95   S    
C82   C94   A    
C130  C146  A    
C33   C45   A    
C56   C104  S    
C157  C188  S    
C35   C47   A    
C158  C187  S    
C198  H80   S    
C197  H77   S    
O19   Zn9   S    
C40   C46   A    
C77   C89   A    
C32   H56   S    
C159  C186  S    
C118  O26   A    
O37   Zn3   S    
C94   C117  S    
C81   I25   S    
C39   H63   S    
C24   C54   A    
C22   C38   A    
C116  O20   A    
C208  H112  S    
C176  C179  A    
C2    O8    A    
C109  O43   A    
C20   H44   S    
O30   Zn12  S    
C112  O46   A    
C93   C120  S    
C15   C51   A    
C129  C145  A    
C38   C48   A    
C24   H48   S    
C206  H106  S    
C138  C154  A    
C4    O4    A    
C141  H5    S    
C202  H93   S    
C139  H3    S    
C121  C193  S    
C204  H100  S    
C136  C208  S    
C50   C98   S    
C181  H29   S    
C72   I16   S    
O7    Zn1   S    
C207  H109  S    
C25   C41   A    
O3    Zn3   S    
C119  O27   A    
C179  C188  A    
O40   Zn4   S    
C28   C44   A    
C182  C185  A    
C193  H67   S    
C173  H21   S    
C180  C187  A    
C66   C82   A    
C145  C157  A    
O44   Zn8   S    
O18   Zn9   S    
C144  H8    S    
C11   C27   A    
C57   C97   A    
C131  C203  S    
C137  C153  A    
C34   H58   S    
C127  C143  A    
C200  H88   S    
C128  C144  A    
C174  C177  A    
O12   Zn8   S    
C133  C205  S    
C88   I32   S    
C1    C41   S    
O14   Zn6   S    
O4    Zn4   S    
C203  H97   S    
C63   I7    S    
C183  C186  A    
O9    Zn5   S    
C37   C45   A    
C198  H82   S    
O11   Zn7   S    
C39   C47   A    
C197  H79   S    
O48   Zn8   S    
C30   H54   S    
C179  H27   S    
C64   I8    S    
C177  H25   S    
C60   C100  A    
C18   H42   S    
C23   C55   A    
O38   Zn2   S    
C69   C101  A    
C74   C90   A    
C147  H11   S    
C19   C35   A    
C205  H101  S    
O42   Zn6   S    
C176  C189  A    
C3    O3    A    
C110  O42   A    
C14   C52   A    
C36   H60   S    
C123  C195  S    
C171  C192  A    
C87   I31   S    
C69   I13   S    
C105  O33   A    
C169  C182  A    
C14   H38   S    
C174  C189  A    
C49   C97   S    
C40   H64   S    
C68   I12   S    
O24   Zn10  S    
C194  H68   S    
C79   I23   S    
C28   H52   S    
C142  C156  A    
O20   Zn9   S    
O33   Zn1   S    
O17   Zn9   S    
O23   Zn10  S    
C21   H45   S    
C67   C83   A    
C201  H89   S    
C58   C98   A    
C65   C101  A    
C20   C56   A    
C67   C103  A    
C85   I29   S    
C177  C188  A    
C31   C43   A    
C84   I28   S    
C123  C161  A    
C77   I21   S    
C128  C164  A    
C171  H19   S    
C184  C185  A    
C129  C201  S    
C121  C137  A    
C195  H72   S    
C124  C140  A    
C8    O14   A    
C112  O48   A    
C85   C93   A    
C125  C141  A    
C87   C95   A    
C6    O10   A    
C131  C147  A    
C34   C46   A    
C135  C207  S    
C83   I27   S    
C75   C91   A    
O47   Zn5   S    
C156  C189  S    
C169  H17   S    
C196  H75   S    
C160  C185  S    
C18   C34   A    
C197  H78   S    
C199  H84   S    
C88   C94   A    
O34   Zn2   S    
C116  O24   A    
C9    C49   A    
C150  H14   S    
C205  H103  S    
C113  O17   A    
C78   C92   A    
C170  C191  A    
C52   C100  S    
C130  C202  S    
C110  O44   A    
C151  C159  A    
C144  C156  A    
C105  O35   A    
C106  O36   A    
C140  H4    S    
C143  C155  A    
C170  H18   S    
C194  H70   S    
C7    O11   A    
C4    O6    A    
C201  H91   S    
C134  C168  A    
C200  H87   S    
C69   C85   A    
C148  H12   S    
O28   Zn11  S    
O43   Zn7   S    
C120  O32   A    
C71   C103  A    
C29   C41   A    
C152  H16   S    
C27   H51   S    
O22   Zn10  S    
C181  C186  A    
C15   C31   A    
C175  C180  A    
C146  C158  A    
C25   H49   S    
C16   C32   A    
C122  C162  A    
C105  C168  S    
C151  H15   S    
C106  C167  S    
C74   I18   S    
C146  H10   S    
O27   Zn11  S    
C172  C183  A    
C72   C102  A    
C173  C178  A    
C2    C42   S    
C36   C48   A    
O10   Zn6   S    
C208  H111  S    
C122  C194  S    
C60   I4    S    
C131  C165  A    
C183  H31   S    
C135  C167  A    
O5    Zn3   S    
C9    H33   S    
O1    Zn1   S    
C206  H105  S    
C147  C157  A    
C205  H102  S    
C96   C119  S    
C175  C190  A    
C202  H92   S    
C9    C25   A    
C112  C161  S    
C204  H99   S    
C58   C74   A    
C82   I26   S    
C75   I19   S    
C12   C28   A    
C76   I20   S    
C13   C29   A    
C16   C50   A    
C70   I14   S    
C106  O34   A    
C70   C104  A    
C12   H36   S    
C139  C153  A    
C173  C190  A    
C196  H74   S    
C193  H66   S    
C127  C199  S    
C12   C52   A    
C107  O39   A    
C53   C101  S    
C117  O31   A    
O26   Zn11  S    
C124  C162  A    
C119  O29   A    
C15   H39   S    
C64   C98   A    
C86   I30   S    
C203  H96   S    
C64   C80   A    
C30   C44   A    
C111  C162  S    
C17   C33   A    
C198  H81   S    
C62   C78   A    
C1    O1    A    
C138  H2    S    
C182  H30   S    
C78   I22   S    
C68   C84   A    
C171  C184  A    
C122  C138  A    
C149  H13   S    
C108  O38   A    
C141  C155  A    
C4    C44   S    
C5    C45   S    
C126  C142  A    
C65   I9    S    
C174  H22   S    
C175  H23   S    
C8    C48   S    
C155  C190  S    
C23   H47   S    
C130  C166  A    
C65   C81   A    
O29   Zn12  S    
C124  C196  S    
C35   H59   S    
O6    Zn2   S    
C33   H57   S    
O41   Zn5   S    
C86   C96   A    
C62   C100  A    
C178  C187  A    
O39   Zn1   S    
C37   H61   S    
O35   Zn3   S    
C59   I3    S    
C10   C50   A    
C17   C53   A    
C202  H94   S    
C114  O18   A    
C150  C160  A    
C19   C55   A    
C127  C163  A    
C29   H53   S    
C178  H26   S    
C61   C97   A    
C68   C104  A    
C109  C164  S    
C19   H43   S    
C22   C56   A    
C110  C163  S    
C107  O37   A    
C17   H41   S    
C5    O13   A    
C61   I5    S    
C7    O15   A    
C73   C89   A    
O21   Zn10  S    
C111  O45   A    
C135  C151  A    
C60   C76   A    
C26   C42   A    
C117  O25   A    
C195  H71   S    
C92   C115  S    
C118  O30   A    
C13   H37   S    
C20   C36   A    
C27   C43   A    
C120  O28   A    
C21   C37   A    
C32   C42   A    
C136  C152  A    
C7    C47   S    
C22   H46   S    
C21   C53   A    
C108  C165  S    
C152  C160  A    
C123  C139  A    
C59   C99   A    
C132  C204  S    
C66   C102  A    
C8    O12   A    
C108  O40   A    
C63   C79   A    
C199  H83   S    
C3    C43   S    
O15   Zn5   S    
C125  C197  S    
C132  C166  A    
C58   I2    S    
C133  C167  A    
C23   C39   A    
C57   C73   A    
C134  C150  A    
C55   C103  S    
C84   C96   A    
C90   C113  S    
O2    Zn2   S    
C1    O5    A    
C194  H69   S    
C63   C99   A    
C176  H24   S    
O8    Zn4   S    
O36   Zn4   S    
C115  O21   A    
C107  C166  S    
C121  C161  A    
C201  H90   S    
C54   C102  S    
C142  H6    S    
C31   H55   S    
C172  C191  A    
C125  C163  A    
C14   C30   A    
C126  C164  A    
C72   C88   A    
C95   C118  S    
C51   C99   S    
C137  H1    S    
C6    O16   A    
C132  C148  A    
C80   I24   S    
C133  C149  A    
C61   C77   A    
C114  O22   A    
C73   I17   S    
C136  C168  A    
C16   H40   S    
O31   Zn12  S    
C195  H73   S    
O16   Zn8   S    
C81   C93   A    
C62   I6    S    
C83   C95   A    
O46   Zn6   S    
C148  C158  A    
C149  C159  A    
C208  H110  S    
C76   C92   A    
C13   C49   A    
C11   H35   S    
C2    O2    A    
C109  O41   A    
C3    O7    A    
C170  C181  A    
C57   I1    S    
C196  H76   S    
C71   C87   A    
C180  H28   S    
O32   Zn12  S    
C70   C86   A    
C59   C75   A    
C206  H104  S    
C199  H85   S    
C184  H32   S    
C113  O23   A    
C6    C46   S    
C38   H62   S    
C66   I10   S    
C79   C91   A    
C128  C200  S    
C172  H20   S    
C71   I15   S    
C26   H50   S    
C134  C206  S    
C143  H7    S    
C204  H98   S    
C207  H107  S    
C145  H9    S    
C10   C26   A    
C111  O47   A    
C24   C40   A    
C207  H108  S    
C80   C90   A    
C193  H65   S    
C89   C116  S    
C11   C51   A    
C18   C54   A    
C115  O19   A    
O45   Zn7   S    
C129  C165  A    
C10   H34   S    
O25   Zn11  S    
C169  C192  A    
C200  H86   S    
C153  C192  S    
C91   C114  S    
C140  C154  A    
O13   Zn7   S    
C126  C198  S    
