data_mof_unit_64498.cif
_audit_creation_date              2012-12-10T17:24:55-0500
_audit_creation_method            fapswitch 2.2
_symmetry_space_group_name_H-M    P1
_symmetry_Int_Tables_number       1
_space_group_crystal_system       triclinic
_cell_length_a                    10.104245
_cell_length_b                    10.836869
_cell_length_c                    19.214879
_cell_angle_alpha                 89.889047
_cell_angle_beta                  81.875406
_cell_angle_gamma                 95.244614
_cell_volume                      2073.92504002

loop_
_atom_site_label
_atom_site_type_symbol
_atom_type_description
_atom_site_fract_x
_atom_site_fract_y
_atom_site_fract_z
_atom_type_partial_charge
C1    C     C_R   0.556080 0.732588 0.493576 0.949688
C2    C     C_R   0.499025 0.500520 0.365575 0.876896
C3    C     C_R   0.384752 0.505051 0.756378 -0.172995
C4    C     C_R   0.615253 0.495025 0.243622 -0.173574
C5    C     C_R   0.387191 0.501745 0.828188 -0.169005
C6    C     C_R   0.612826 0.498456 0.171812 -0.169446
C7    C     C_R   0.508175 0.491076 0.854342 0.030035
C8    C     C_R   0.491863 0.509270 0.145666 0.030245
C9    C     C_R   0.627644 0.481087 0.808039 0.183797
C10   C     C_R   0.372409 0.519289 0.191973 0.183536
C11   C     C_R   0.624326 0.484237 0.736056 -0.211762
C12   C     C_R   0.443803 0.267418 0.502882 0.950953
C13   C     C_R   0.375715 0.516018 0.263954 -0.212455
C14   C     C_R   0.503405 0.496837 0.709938 -0.081690
C15   C     C_R   0.496610 0.503263 0.290065 -0.078819
C16   C     C_R   0.493693 0.507152 0.070227 0.308986
C17   C     C_R   0.506325 0.493245 0.929783 0.308923
C18   C     C_2   0.587755 0.864366 0.484163 -0.366604
C19   C     C_2   0.411680 0.135649 0.498768 -0.369142
C20   C     C_2   0.486874 0.934060 0.480673 -0.138942
C21   C     C_2   0.511796 0.065963 0.478598 -0.140789
C22   C     C_2   0.927259 0.510031 0.505738 -0.119932
C23   C     C_2   0.072751 0.489991 0.494246 -0.121952
C24   C     C_R   0.500977 0.499491 0.634424 0.883667
H1    H     H_    0.290113 0.514132 0.737372 0.177617
H2    H     H_    0.691141 0.904426 0.481051 0.154328
H3    H     H_    0.108940 0.422515 0.456207 0.164460
H4    H     H_    0.891077 0.577521 0.543770 0.164156
H5    H     H_    0.119905 0.614499 0.564350 0.168524
H6    H     H_    0.880085 0.385484 0.435657 0.167073
H7    H     H_    0.709872 0.485828 0.262624 0.177382
H8    H     H_    0.294764 0.509709 0.863449 0.177265
H9    H     H_    0.705240 0.490463 0.136545 0.177261
H10   H     H_    0.716468 0.476125 0.700670 0.177211
H11   H     H_    0.283585 0.524162 0.299345 0.176980
H12   H     H_    0.615120 0.105578 0.464646 0.190022
H13   H     H_    0.383209 0.894446 0.483903 0.190762
H14   H     H_    0.308643 0.095588 0.512794 0.154982
I1    I     I_    0.814382 0.452299 0.841539 -0.335596
I2    I     I_    0.185718 0.548281 0.158483 -0.336624
N1    N     N_R   0.600214 0.565843 0.958339 -0.122950
N2    N     N_R   0.399801 0.434558 0.041672 -0.122960
N3    N     N_R   0.594634 0.571926 0.027611 -0.146950
N4    N     N_R   0.405383 0.428474 0.972400 -0.146959
N5    N     N_2   0.842710 0.448880 0.471430 -0.194140
N6    N     N_2   0.157290 0.551120 0.528570 -0.194576
O1    O     O_R   0.431050 0.692470 0.505750 -0.610879
O2    O     O_R   0.568950 0.307530 0.494250 -0.610396
O3    O     O_R   0.651120 0.659650 0.487410 -0.610248
O4    O     O_R   0.348880 0.340350 0.512590 -0.609947
O5    O     O_R   0.389930 0.516430 0.611030 -0.611054
O6    O     O_R   0.610070 0.483570 0.388970 -0.614104
O7    O     O_R   0.610000 0.483610 0.592700 -0.617542
O8    O     O_R   0.390000 0.516390 0.407300 -0.620596
Zn1   Zn    Zn3+2 0.353060 0.521920 0.512240 0.953933
Zn2   Zn    Zn3+2 0.646940 0.478080 0.487760 0.953943

loop_
_geom_bond_atom_site_label_1
_geom_bond_atom_site_label_2
_ccdc_geom_bond_type
N6    Zn1   S    
C12   O4    A    
N2    N4    A    
C20   H13   S    
C19   H14   S    
C23   H3    S    
O3    Zn2   S    
C9    C11   A    
H6    N5    S    
C18   C20   D    
O4    Zn1   S    
C18   H2    S    
C6    H9    S    
C3    H1    S    
H5    N6    S    
C12   O2    A    
C5    H8    S    
C7    C9    A    
C24   O5    A    
C17   N4    A    
C5    C7    A    
C8    C16   S    
C21   H12   S    
C22   H4    S    
C2    C15   S    
N1    N3    A    
C16   N3    A    
C1    C18   S    
C3    C14   A    
C2    O6    A    
C4    C15   A    
C12   C19   S    
C8    C10   A    
C19   C21   D    
C23   N6    D    
C13   H11   S    
O5    Zn1   S    
C13   C15   A    
C11   C14   A    
C17   N1    A    
C4    C6    A    
C4    H7    S    
C16   N2    A    
C9    I1    S    
C22   N5    D    
C20   C21   S    
O1    Zn1   S    
C2    O8    A    
O7    Zn2   S    
C14   C24   S    
O2    Zn2   S    
C22   C23   S    
C1    O1    A    
C10   I2    S    
C6    C8    A    
C3    C5    A    
C24   O7    A    
O8    Zn1   S    
C1    O3    A    
C11   H10   S    
O6    Zn2   S    
N5    Zn2   S    
C7    C17   S    
C10   C13   A    
