data_mof_unit_5755.cif
_audit_creation_date              2012-10-26T19:24:24-0400
_audit_creation_method            fapswitch 2.2
_symmetry_space_group_name_H-M    P1
_symmetry_Int_Tables_number       1
_space_group_crystal_system       triclinic
_cell_length_a                    27.753454
_cell_length_b                    10.834753
_cell_length_c                    9.650013
_cell_angle_alpha                 90.88786
_cell_angle_beta                  90.529902
_cell_angle_gamma                 94.870479
_cell_volume                      2890.78898999

loop_
_atom_site_label
_atom_site_type_symbol
_atom_type_description
_atom_site_fract_x
_atom_site_fract_y
_atom_site_fract_z
_atom_type_partial_charge
C1    C     C_R   0.502852 0.263838 0.498840 0.535774
C2    C     C_R   0.970728 0.356233 0.524724 -0.018998
C3    C     C_R   0.975496 0.581940 0.511880 0.027063
C4    C     C_R   0.407633 0.501784 0.499145 0.561428
C5    C     C_R   0.947662 0.466814 0.514938 -0.046566
C6    C     C_R   0.942147 0.245964 0.556409 0.461895
C7    C     C_R   0.891742 0.242693 0.556756 0.436299
C8    C     C_R   0.868383 0.349910 0.528275 -0.035570
C9    C     C_R   0.896590 0.462562 0.508331 -0.103219
C10   C     C_R   0.873871 0.571386 0.482244 0.042513
C11   C     C_R   0.823272 0.565867 0.476425 0.417187
C12   C     C_R   0.277954 0.435472 0.603527 -0.115147
C13   C     C_R   0.817599 0.349330 0.523261 0.435822
C14   C     C_R   0.720162 0.454637 0.624231 0.008059
C15   C     C_R   0.670365 0.464043 0.626218 0.386545
C16   C     C_R   0.499746 0.738095 0.502722 0.520742
C17   C     C_R   0.669101 0.468627 0.375124 -0.214409
C18   C     C_R   0.718929 0.459909 0.373631 -0.082577
C19   C     C_R   0.744692 0.455243 0.498330 0.175843
C20   C     C_R   0.021527 0.361392 0.504141 0.039095
C21   C     C_R   0.049510 0.476598 0.519599 -0.037155
C22   C     C_R   0.026038 0.586424 0.538917 0.030325
C23   C     C_R   0.253054 0.496843 0.502803 0.248896
C24   C     C_R   0.044451 0.257053 0.459805 0.427918
C25   C     C_R   0.104496 0.705013 0.573260 0.017966
C26   C     C_R   0.952249 0.687859 0.475821 -0.121046
C27   C     C_R   0.902168 0.682828 0.461918 -0.071857
C28   C     C_R   0.592212 0.493786 0.500587 0.549478
C29   C     C_R   0.053558 0.695861 0.584824 -0.004925
C30   C     C_R   0.559320 0.144879 0.707808 -0.123695
C31   C     C_R   0.571814 0.093641 0.833515 0.031682
C32   C     C_R   0.554721 0.972017 0.860935 0.394300
C33   C     C_R   0.528966 0.899794 0.759725 -0.087284
C34   C     C_R   0.100679 0.481901 0.515134 -0.070566
C35   C     C_R   0.519729 0.946792 0.626622 -0.024733
C36   C     C_R   0.529528 0.075359 0.609635 -0.008668
C37   C     C_R   0.508207 0.131780 0.496576 0.004192
C38   C     C_R   0.486767 0.060082 0.387575 -0.128265
C39   C     C_R   0.484448 0.932537 0.392477 -0.149956
C40   C     C_R   0.174979 0.382468 0.476019 0.417048
C41   C     C_R   0.500426 0.873706 0.510403 -0.000055
C42   C     C_R   0.579312 0.636324 0.139176 0.001994
C43   C     C_R   0.622521 0.652490 0.062512 -0.005822
C44   C     C_R   0.618244 0.664739 0.920302 0.459563
C45   C     C_R   0.123814 0.372901 0.481876 -0.017921
C46   C     C_R   0.573858 0.636151 0.856502 0.011560
C47   C     C_R   0.536293 0.568651 0.925970 0.041924
C48   C     C_R   0.537460 0.568486 0.074953 0.073569
C49   C     C_R   0.466051 0.432050 0.073902 0.481830
C50   C     C_R   0.466390 0.428688 0.926633 0.114169
C51   C     C_R   0.179654 0.596649 0.540186 0.450057
C52   C     C_R   0.278699 0.562802 0.399207 0.456249
C53   C     C_R   0.329537 0.567664 0.395643 -0.010386
C54   C     C_R   0.328102 0.438485 0.600669 -0.166206
C55   C     C_3   0.132087 0.831672 0.591843 -0.338330
C56   C     C_R   0.094954 0.260020 0.451669 0.006153
C57   C     C_3   0.030148 0.792770 0.670967 -0.374344
C58   C     C_3   0.601097 0.169754 0.940871 -0.331443
C59   C     C_3   0.574005 0.749256 0.229340 -0.291885
C60   C     C_3   0.670679 0.692044 0.130607 -0.332428
C61   C     C_3   0.428638 0.338066 0.860151 -0.301516
C62   C     C_3   0.116354 0.141008 0.409291 -0.302066
C63   C     C_3   0.356293 0.644057 0.286497 -0.325585
C64   C     C_R   0.128535 0.596496 0.541523 0.039212
C65   C     C_R   0.354488 0.503236 0.497383 -0.021491
C66   C     C_R   0.644531 0.476663 0.501313 0.013921
Cu1   Cu    Cu3+1 0.500000 0.499990 0.640660 0.936448
Cu2   Cu    Cu3+1 0.500000 0.500010 0.359340 1.006893
F1    F     F_    0.253712 0.621012 0.301604 -0.609195
F2    F     F_    0.562769 0.923088 0.986513 -0.686044
F3    F     F_    0.431829 0.361178 0.143253 -0.630327
F4    F     F_    0.656117 0.713108 0.844623 -0.590656
F5    F     F_    0.647781 0.458544 0.750093 -0.638657
F6    F     F_    0.866174 0.134153 0.587048 -0.518065
F7    F     F_    0.962538 0.143963 0.601100 -0.540972
F8    F     F_    0.017464 0.156001 0.407788 -0.590904
H1    H     H_    0.346272 0.388085 0.678375 0.130738
H2    H     H_    0.468389 0.879551 0.305079 0.137693
H3    H     H_    0.570545 0.666098 0.752340 0.182751
H4    H     H_    0.739917 0.448501 0.720848 0.158181
H5    H     H_    0.108513 0.908912 0.597179 0.108516
H6    H     H_    0.153885 0.835194 0.689068 0.185876
H7    H     H_    0.155374 0.852179 0.500715 0.190122
H8    H     H_    0.052691 0.818629 0.764363 0.151891
H9    H     H_    0.025967 0.877188 0.609761 0.182418
H10   H     H_    0.994454 0.757024 0.711498 0.163568
H11   H     H_    0.611206 0.265200 0.904845 0.170703
H12   H     H_    0.972660 0.774835 0.454937 0.158337
H13   H     H_    0.579783 0.176280 0.037142 0.159335
H14   H     H_    0.634745 0.125288 0.964566 0.181939
H15   H     H_    0.600152 0.829043 0.203881 0.166119
H16   H     H_    0.538772 0.786336 0.207904 0.192494
H17   H     H_    0.581853 0.730087 0.339249 0.150959
H18   H     H_    0.683527 0.787100 0.098557 0.199888
H19   H     H_    0.668234 0.692535 0.245279 0.126839
H20   H     H_    0.697625 0.627235 0.099033 0.170851
H21   H     H_    0.431465 0.325702 0.748244 0.179977
H22   H     H_    0.431546 0.244823 0.904228 0.143122
H23   H     H_    0.649901 0.470236 0.277224 0.149541
H24   H     H_    0.392193 0.367291 0.883747 0.133013
H25   H     H_    0.088812 0.061805 0.392094 0.183404
H26   H     H_    0.136223 0.154080 0.310568 0.182882
H27   H     H_    0.140627 0.112367 0.492715 0.157207
H28   H     H_    0.332128 0.701132 0.227460 0.195689
H29   H     H_    0.384853 0.708546 0.336066 0.120186
H30   H     H_    0.372843 0.582367 0.211016 0.179731
H31   H     H_    0.885731 0.766929 0.436610 0.202631
H32   H     H_    0.737622 0.458171 0.275712 0.150057
H33   H     H_    0.470890 0.102707 0.299210 0.172201
H34   H     H_    0.572976 0.239289 0.687407 0.176560
H35   H     H_    0.258269 0.384634 0.683863 0.150654
H36   H     H_    0.513923 0.811420 0.793898 0.158016
N1    N     N_R   0.201112 0.491980 0.505892 -0.364456
N2    N     N_R   0.796352 0.456288 0.497830 -0.410771
N3    N     N_R   0.500460 0.501210 0.147910 -0.230334
N4    N     N_R   0.500480 0.501290 0.852040 -0.271487
O1    O     O_R   0.500000 0.319640 0.618810 -0.529650
O2    O     O_R   0.569730 0.499970 0.618800 -0.466632
O3    O     O_R   0.569740 0.499990 0.381230 -0.523446
O4    O     O_2   0.199123 0.284199 0.440273 -0.503873
O5    O     O_2   0.789575 0.243278 0.543070 -0.382045
O6    O     O_2   0.208374 0.698972 0.575838 -0.484409
O7    O     O_2   0.801041 0.669480 0.451475 -0.452784
O8    O     O_R   0.500000 0.319660 0.381240 -0.457148
O9    O     O_R   0.430260 0.500010 0.618770 -0.517647
O10   O     O_R   0.430270 0.500030 0.381200 -0.436029
O11   O     O_R   0.500000 0.680340 0.618760 -0.536178
O12   O     O_R   0.500000 0.680360 0.381190 -0.531878

loop_
_geom_bond_atom_site_label_1
_geom_bond_atom_site_label_2
_ccdc_geom_bond_type
C10   C27   A    
C8    C13   A    
C22   C29   A    
C35   C36   A    
C43   C44   A    
C58   H11   S    
Cu2   O8    S    
C6    F7    S    
C39   C41   A    
C54   C65   A    
C31   C32   A    
C12   C23   A    
C26   C27   A    
C51   N1    A    
C4    O9    A    
C30   H34   S    
C31   C58   S    
C36   C37   A    
Cu1   O9    S    
Cu2   O3    S    
C4    C65   S    
C63   H30   S    
C57   H10   S    
C18   C19   A    
C11   N2    A    
C52   F1    S    
C47   C48   A    
C45   C56   A    
C8    C9    A    
C14   H4    S    
C63   H29   S    
C53   C65   A    
C9    C10   A    
Cu2   O12   S    
C13   N2    A    
C1    C37   S    
C54   H1    S    
C21   C22   A    
C2    C6    A    
Cu1   O1    S    
C16   O11   A    
C44   C46   A    
C7    F6    S    
C25   C29   A    
C40   C45   A    
C61   H21   S    
C2    C20   A    
Cu1   Cu2   S    
C39   H2    S    
C20   C24   A    
C7    C8    A    
C38   C39   A    
C34   C45   A    
C24   F8    S    
C32   F2    S    
C21   C34   A    
C19   N2    S    
C15   C66   A    
C38   H33   S    
C25   C64   A    
C28   C66   S    
Cu1   N4    S    
C5    C9    A    
C37   C38   A    
Cu1   O11   S    
C23   N1    S    
C13   O5    S    
C40   N1    A    
C27   H31   S    
C30   C31   A    
C34   C64   A    
C17   C18   A    
C17   C66   A    
C57   H8    S    
C33   H36   S    
C42   C48   A    
C55   H6    S    
C17   H23   S    
C43   C60   S    
C58   H14   S    
C48   N3    A    
C60   H20   S    
C15   F5    S    
C29   C57   S    
C56   C62   S    
C61   H24   S    
C55   H5    S    
C42   C43   A    
C55   H7    S    
C40   O4    S    
Cu2   O10   S    
C52   C53   A    
C62   H27   S    
C59   H15   S    
C50   C61   S    
C46   C47   A    
C49   N3    A    
C14   C19   A    
C3    C26   A    
C11   O7    S    
C51   C64   A    
C25   C55   S    
C63   H28   S    
C3    C5    A    
C28   O3    A    
C42   C59   S    
C6    C7    A    
C30   C36   A    
C24   C56   A    
C4    O10   A    
C32   C33   A    
C62   H25   S    
C1    O8    A    
C28   O2    A    
C53   C63   S    
C61   H22   S    
C23   C52   A    
C46   H3    S    
C47   N4    A    
C33   C35   A    
C57   H9    S    
C58   H13   S    
C44   F4    S    
C50   N4    A    
C59   H16   S    
C16   O12   A    
C35   C41   A    
Cu1   O2    S    
C18   H32   S    
C10   C11   A    
Cu2   N3    S    
C2    C5    A    
C60   H19   S    
C20   C21   A    
C26   H12   S    
C49   C50   A    
C49   F3    S    
C51   O6    S    
C14   C15   A    
C3    C22   A    
C59   H17   S    
C1    O1    A    
C16   C41   S    
C12   H35   S    
C12   C54   A    
C62   H26   S    
C60   H18   S    
