data_mof_unit_43346.cif
_audit_creation_date              2012-12-11T15:52:28-0500
_audit_creation_method            fapswitch 2.2
_symmetry_space_group_name_H-M    P1
_symmetry_Int_Tables_number       1
_space_group_crystal_system       triclinic
_cell_length_a                    11.051682
_cell_length_b                    11.168384
_cell_length_c                    18.746428
_cell_angle_alpha                 89.539413
_cell_angle_beta                  89.51837
_cell_angle_gamma                 118.950156
_cell_volume                      2024.45808854

loop_
_atom_site_label
_atom_site_type_symbol
_atom_type_description
_atom_site_fract_x
_atom_site_fract_y
_atom_site_fract_z
_atom_type_partial_charge
C1    C     C_R   0.520498 0.457245 0.147543 0.542880
C2    C     C_3   0.035044 0.731126 0.448990 0.027777
C3    C     C_3   0.753985 0.049134 0.461347 0.037744
C4    C     C_3   0.263952 0.259645 0.468501 0.010239
C5    C     C_R   0.515590 0.456359 0.352888 0.537837
C6    C     C_R   0.540239 0.053747 0.350678 0.533455
C7    C     C_R   0.874284 0.453962 0.361515 0.578421
C8    C     C_R   0.454916 0.521769 0.645190 0.538157
C9    C     C_R   0.055947 0.541546 0.649084 0.546040
C10   C     C_R   0.455196 0.871347 0.638983 0.590380
C11   C     C_R   0.496515 0.972766 0.927764 0.023586
C12   C     C_R   0.543046 0.063360 0.147592 0.538646
C13   C     C_R   0.047424 0.530766 0.931666 0.023873
C14   C     C_R   0.469775 0.512356 0.930721 0.019994
C15   C     C_R   0.008720 0.501104 0.079608 0.012558
C16   C     C_R   0.507182 0.012499 0.075825 0.014533
C17   C     C_R   0.498572 0.503978 0.078814 0.015279
C18   C     C_R   0.453113 0.059854 0.956961 -0.009954
C19   C     C_R   0.002158 0.403435 0.963887 -0.001364
C20   C     C_R   0.597388 0.593929 0.961833 0.002406
C21   C     C_R   0.981554 0.388376 0.036851 0.003572
C22   C     C_R   0.457415 0.078064 0.029759 0.022406
C23   C     C_R   0.938281 0.479695 0.147864 0.544210
C24   C     C_R   0.612088 0.588131 0.034729 0.007040
C25   C     C_R   0.563847 0.936007 0.046131 -0.167551
C26   C     C_R   0.078949 0.632425 0.049036 -0.162835
C27   C     C_R   0.366186 0.441885 0.049285 -0.166942
C28   C     C_R   0.097909 0.646913 0.975306 -0.147873
C29   C     C_R   0.558173 0.915951 0.972877 -0.145086
C30   C     C_R   0.352094 0.444658 0.975565 -0.155561
C31   C     C_3   0.322694 0.067081 0.949465 -0.284341
C32   C     C_3   0.875399 0.271846 0.949094 -0.282553
C33   C     C_3   0.732719 0.599989 0.945950 -0.280826
C34   C     C_R   0.450759 0.522973 0.854995 0.545175
C35   C     C_3   0.851502 0.255118 0.029082 -0.239052
C36   C     C_3   0.323806 0.081331 0.030133 -0.260398
C37   C     C_3   0.748879 0.592679 0.025802 -0.239505
C38   C     C_R   0.480444 0.907003 0.563171 0.053708
C39   C     C_R   0.996462 0.510854 0.578621 0.014945
C40   C     C_R   0.473914 0.511817 0.569677 -0.008845
C41   C     C_R   0.914454 0.469528 0.436105 0.025362
C42   C     C_R   0.512791 0.993216 0.421687 -0.012017
C43   C     C_R   0.479562 0.498469 0.420237 -0.001120
C44   C     C_R   0.605860 0.020743 0.540595 0.013940
C45   C     C_R   0.073423 0.549585 0.855600 0.544168
C46   C     C_R   0.061218 0.614742 0.528038 0.017693
C47   C     C_R   0.358102 0.420658 0.533242 0.056405
C48   C     C_R   0.025824 0.592828 0.456813 -0.004831
C49   C     C_R   0.622502 0.056787 0.468625 0.013669
C50   C     C_R   0.360499 0.410717 0.460429 -0.004256
C51   C     C_R   0.409519 0.860390 0.439343 -0.200670
C52   C     C_R   0.825881 0.382198 0.490172 -0.171328
C53   C     C_R   0.579303 0.613474 0.455525 -0.174497
C54   C     C_R   0.871044 0.396681 0.561240 -0.192001
C55   C     C_R   0.398362 0.814562 0.510613 -0.134152
C56   C     C_R   0.478220 0.932697 0.853775 0.552981
C57   C     C_R   0.584775 0.611002 0.530303 -0.161866
C58   C     C_3   0.812016 0.912558 0.632419 -0.269873
C59   C     C_3   0.164364 0.947684 0.599521 -0.280986
C60   C     C_3   0.125531 0.187655 0.659227 -0.231522
C61   C     C_3   0.907029 0.807978 0.367161 -0.277028
C62   C     C_3   0.944739 0.150095 0.373270 -0.266184
C63   C     C_3   0.225832 0.064953 0.399161 -0.285936
C64   C     C_3   0.750284 0.034797 0.541429 0.023621
C65   C     C_3   0.054189 0.745130 0.528133 0.038182
C66   C     C_3   0.272314 0.272179 0.548556 0.043720
Cr1   Cr    Cr6+3 0.769160 0.541570 0.250690 0.965154
Cr2   Cr    Cr6+3 0.458430 0.227590 0.250690 0.978665
Cr3   Cr    Cr6+3 0.772410 0.230840 0.250690 0.984783
Cr4   Cr    Cr6+3 0.541570 0.769160 0.749310 0.972579
Cr5   Cr    Cr6+3 0.227590 0.458430 0.749310 0.975720
Cr6   Cr    Cr6+3 0.230840 0.772410 0.749310 0.984317
H1    H     H_    0.612885 0.892470 0.079369 0.131132
H2    H     H_    0.758324 0.261162 0.046529 0.150472
H3    H     H_    0.336943 0.181643 0.047206 0.164417
H4    H     H_    0.746010 0.496005 0.043331 0.148850
H5    H     H_    0.340312 0.161543 0.920471 0.145380
H6    H     H_    0.795503 0.286237 0.920456 0.133087
H7    H     H_    0.721500 0.508202 0.917487 0.132749
H8    H     H_    0.860946 0.167758 0.051704 0.150885
H9    H     H_    0.239100 0.990912 0.057972 0.125608
H10   H     H_    0.835027 0.687868 0.047475 0.147296
H11   H     H_    0.339186 0.794481 0.399438 0.112607
H12   H     H_    0.107083 0.722501 0.080808 0.126944
H13   H     H_    0.723234 0.305258 0.477033 0.125791
H14   H     H_    0.659733 0.696183 0.425624 0.133963
H15   H     H_    0.806818 0.324376 0.602180 0.114083
H16   H     H_    0.321529 0.712001 0.525591 0.136244
H17   H     H_    0.676990 0.677489 0.557670 0.151964
H18   H     H_    0.824601 0.128406 0.569612 0.125829
H19   H     H_    0.960962 0.732524 0.558377 0.144624
H20   H     H_    0.335020 0.230989 0.574086 0.128312
H21   H     H_    0.124044 0.794125 0.414095 0.125727
H22   H     H_    0.732633 0.954702 0.432022 0.140175
H23   H     H_    0.275158 0.380302 0.081987 0.134258
H24   H     H_    0.162264 0.235146 0.448041 0.133300
H25   H     H_    0.810145 0.887376 0.524503 0.242128
H26   H     H_    0.899361 0.891653 0.627864 0.070489
H27   H     H_    0.737320 0.825893 0.664268 0.210719
H28   H     H_    0.836168 0.006094 0.662942 0.148735
H29   H     H_    0.243747 0.920831 0.507887 0.266648
H30   H     H_    0.266828 0.027035 0.617558 0.155840
H31   H     H_    0.104966 0.888564 0.647263 0.170064
H32   H     H_    0.109718 0.994801 0.571888 0.153776
H33   H     H_    0.053718 0.181206 0.555860 0.232327
H34   H     H_    0.147537 0.748597 0.952325 0.137574
H35   H     H_    0.055619 0.079325 0.664965 0.048342
H36   H     H_    0.082844 0.239728 0.692774 0.189496
H37   H     H_    0.222202 0.197296 0.681925 0.153965
H38   H     H_    0.818842 0.642776 0.442730 0.263334
H39   H     H_    0.836440 0.741571 0.326280 0.202573
H40   H     H_    0.009241 0.864894 0.340412 0.116764
H41   H     H_    0.865870 0.875519 0.382828 0.094319
H42   H     H_    0.941312 0.234131 0.469786 0.242360
H43   H     H_    0.029712 0.249492 0.353365 0.155564
H44   H     H_    0.875930 0.096507 0.328464 0.180039
H45   H     H_    0.597633 0.851295 0.951940 0.150899
H46   H     H_    0.990675 0.087988 0.391179 0.075805
H47   H     H_    0.423055 0.209723 0.440265 0.277816
H48   H     H_    0.267369 0.996070 0.387172 0.147289
H49   H     H_    0.209747 0.107176 0.348504 0.164499
H50   H     H_    0.126923 0.005640 0.428510 0.150218
H51   H     H_    0.249399 0.390096 0.953640 0.149483
H52   H     H_    0.234776 0.971664 0.929763 0.139586
H53   H     H_    0.900129 0.195052 0.925585 0.141087
H54   H     H_    0.808892 0.699784 0.921642 0.140468
N1    N     N_2   0.759000 0.913994 0.562254 -0.514256
N2    N     N_2   0.181835 0.861819 0.549239 -0.502036
N3    N     N_2   0.141363 0.236083 0.585198 -0.495438
N4    N     N_2   0.908159 0.730612 0.429677 -0.526848
N5    N     N_2   0.872448 0.171551 0.432502 -0.485617
N6    N     N_2   0.317745 0.172221 0.444751 -0.522316
O1    O     O_R   0.911480 0.572650 0.170990 -0.529308
O2    O     O_R   0.528970 0.640340 0.824320 -0.505992
O3    O     O_R   0.111370 0.471030 0.824320 -0.507799
O4    O     O_R   0.359660 0.888630 0.824320 -0.507089
O5    O     O_R   0.909980 0.572450 0.331530 -0.516782
O6    O     O_R   0.427550 0.337530 0.331530 -0.507123
O7    O     O_R   0.662470 0.090020 0.331530 -0.514029
O8    O     O_R   0.572450 0.909980 0.668470 -0.520405
O9    O     O_R   0.337530 0.427550 0.668470 -0.508247
O10   O     O_R   0.090020 0.662470 0.668470 -0.520838
O11   O     O_R   0.638950 0.528780 0.324500 -0.543953
O12   O     O_R   0.427350 0.338830 0.170990 -0.529690
O13   O     O_R   0.471220 0.110170 0.324500 -0.515544
O14   O     O_R   0.889830 0.361050 0.324500 -0.486111
O15   O     O_R   0.528780 0.638950 0.675500 -0.538693
O16   O     O_R   0.110170 0.471220 0.675500 -0.498132
O17   O     O_R   0.361050 0.889830 0.675500 -0.496549
O18   O     O_3   0.666667 0.333333 0.250560 -0.268279
O19   O     O_3   0.333333 0.666667 0.749440 -0.275902
O20   O     O_R   0.661170 0.088520 0.170990 -0.537751
O21   O     O_R   0.572650 0.911480 0.829010 -0.532060
O22   O     O_R   0.338830 0.427350 0.829010 -0.537383
O23   O     O_R   0.088520 0.661170 0.829010 -0.536830
O24   O     O_R   0.640340 0.528970 0.175680 -0.504645
O25   O     O_R   0.471030 0.111370 0.175680 -0.501020
O26   O     O_R   0.888630 0.359660 0.175680 -0.504101

loop_
_geom_bond_atom_site_label_1
_geom_bond_atom_site_label_2
_ccdc_geom_bond_type
C44   C49   A    
Cr3   O7    S    
C40   C47   A    
C13   C45   S    
C11   C18   A    
Cr4   O8    S    
Cr4   O21   S    
H42   N5    S    
C12   O20   A    
C27   H23   S    
C58   H26   S    
C64   H18   S    
H25   N1    S    
C2    C65   S    
Cr1   O11   S    
C3    C49   S    
C5    O6    A    
C35   H2    S    
C3    C64   S    
C44   C64   S    
Cr6   O10   S    
C57   H17   S    
C3    N5    S    
C59   H32   S    
C52   H13   S    
Cr1   O1    S    
C31   H52   S    
C10   O17   A    
Cr5   O3    S    
C54   H15   S    
Cr6   O4    S    
C39   C54   A    
C34   O2    A    
C23   O26   A    
C35   H8    S    
C6    O7    A    
H29   N2    S    
C55   H16   S    
C60   H37   S    
C56   O4    A    
C4    H24   S    
Cr2   O6    S    
C43   C53   A    
C9    C39   S    
Cr5   O19   S    
C38   C55   A    
C12   C16   S    
C28   H34   S    
C26   H12   S    
C13   C28   A    
Cr2   O12   S    
C8    O9    A    
C45   O23   A    
C12   O25   A    
C47   C66   S    
C25   H1    S    
C60   H36   S    
C42   C51   A    
Cr5   O9    S    
C66   N3    S    
Cr6   O19   S    
C15   C23   S    
Cr5   O16   S    
C5    C43   S    
C58   N1    S    
Cr6   O23   S    
C27   C30   A    
Cr3   O14   S    
C59   H30   S    
C10   O8    A    
C14   C30   A    
C19   C32   S    
C63   H49   S    
C52   C54   A    
C31   H5    S    
C47   C50   A    
C34   O22   A    
C25   C29   A    
C46   C48   A    
C45   O3    A    
C17   C24   A    
C23   O1    A    
C17   C27   A    
C32   C35   S    
C20   C24   A    
C58   H28   S    
C46   C65   S    
C4    N6    S    
C7    O5    A    
C6    O13   A    
C53   C57   A    
C33   H7    S    
C13   C19   A    
H33   N3    S    
C2    C48   S    
C59   N2    S    
Cr5   O22   S    
C29   H45   S    
C33   C37   S    
C18   C31   S    
C4    C50   S    
Cr1   O24   S    
C32   H53   S    
C1    O24   A    
C65   N2    S    
C38   C44   A    
C36   H3    S    
C14   C20   A    
C36   H9    S    
C64   N1    S    
C24   C37   S    
C63   N6    S    
C53   H14   S    
C60   H35   S    
C61   N4    S    
C39   C46   A    
C20   C33   S    
C37   H4    S    
C61   H41   S    
C37   H10   S    
C8    O15   A    
Cr3   O18   S    
Cr2   O25   S    
C61   H39   S    
C51   H11   S    
C63   H50   S    
C16   C25   A    
C65   H19   S    
Cr2   O18   S    
C16   C22   A    
C40   C57   A    
C41   C52   A    
C19   C21   A    
C18   C22   A    
Cr3   O20   S    
C26   C28   A    
C62   N5    S    
C2    H21   S    
C58   H27   S    
C56   O21   A    
C15   C26   A    
H47   N6    S    
C60   N3    S    
C14   C34   S    
C66   H20   S    
C9    O10   A    
C43   C50   A    
C21   C35   S    
C22   C36   S    
C9    O16   A    
C1    C17   S    
C10   C38   S    
C59   H31   S    
C7    O14   A    
C62   H43   S    
C1    O12   A    
C4    C66   S    
C63   H48   S    
C33   H54   S    
C2    N4    S    
C41   C48   A    
Cr3   O26   S    
H38   N4    S    
C3    H22   S    
C51   C55   A    
C7    C41   S    
Cr1   O5    S    
C62   H46   S    
C5    O11   A    
C62   H44   S    
C11   C56   S    
C42   C49   A    
C32   H6    S    
C15   C21   A    
C30   H51   S    
C11   C29   A    
Cr6   O17   S    
C6    C42   S    
Cr4   O2    S    
C31   C36   S    
Cr4   O15   S    
C8    C40   S    
Cr4   O19   S    
C61   H40   S    
Cr2   O13   S    
Cr1   O18   S    
