data_mof_unit_34968.cif
_audit_creation_date              2012-12-10T18:02:52-0500
_audit_creation_method            fapswitch 2.2
_symmetry_space_group_name_H-M    P1
_symmetry_Int_Tables_number       1
_space_group_crystal_system       triclinic
_cell_length_a                    10.90677
_cell_length_b                    9.500324
_cell_length_c                    27.788575
_cell_angle_alpha                 91.107226
_cell_angle_beta                  88.326439
_cell_angle_gamma                 90.895983
_cell_volume                      2877.29942983

loop_
_atom_site_label
_atom_site_type_symbol
_atom_type_description
_atom_site_fract_x
_atom_site_fract_y
_atom_site_fract_z
_atom_type_partial_charge
C1    C     C_R   0.262317 0.498771 0.501791 0.856555
C2    C     C_R   0.738374 0.500278 0.499993 0.867973
C3    C     C_R   0.481423 0.510478 0.101922 -0.118569
C4    C     C_R   0.496658 0.547716 0.898654 -0.120770
C5    C     C_R   0.368991 0.486965 0.127224 -0.097597
C6    C     C_R   0.609952 0.554709 0.872793 -0.103017
C7    C     C_R   0.261934 0.462983 0.101047 0.449818
C8    C     C_R   0.718493 0.577580 0.898229 0.469085
C9    C     C_R   0.589733 0.525466 0.127725 -0.061064
C10   C     C_R   0.386680 0.547769 0.873390 -0.061982
C11   C     C_R   0.492897 0.497572 0.354474 -0.162861
C12   C     C_R   0.498578 0.507390 0.645645 -0.165296
C13   C     C_R   0.378261 0.531439 0.974968 -0.021985
C14   C     C_R   0.601721 0.527706 0.025800 -0.033718
C15   C     C_R   0.604380 0.544332 0.974899 -0.002266
C16   C     C_R   0.376219 0.507690 0.025315 0.005334
C17   C     C_R   0.493124 0.540628 0.949682 0.011300
C18   C     C_R   0.486371 0.517160 0.050851 0.011815
C19   C     C_R   0.270030 0.556779 0.949144 0.430479
C20   C     C_R   0.709666 0.513387 0.053134 0.423823
C21   C     C_R   0.274687 0.556057 0.898884 -0.233659
C22   C     C_R   0.702319 0.527450 0.102972 -0.228065
C23   C     C_R   0.499565 0.498905 0.407384 0.820536
C24   C     C_R   0.498819 0.501515 0.592612 0.802444
C25   C     C_R   0.268288 0.465992 0.050694 -0.271758
C26   C     C_R   0.714138 0.573508 0.948495 -0.296984
C27   C     C_R   0.063930 0.373427 0.490198 0.305208
C28   C     C_R   0.940379 0.623370 0.511381 0.367252
C29   C     C_R   0.936663 0.369614 0.495183 0.316875
C30   C     C_R   0.064136 0.614543 0.521430 0.319167
C31   C     C_R   0.872801 0.498361 0.501632 -0.410515
C32   C     C_R   0.128834 0.495121 0.504958 -0.410194
C33   C     C_R   0.563695 0.073765 0.465253 -0.047455
C34   C     C_R   0.435549 0.926274 0.534595 0.005104
C35   C     C_R   0.435241 0.075110 0.534501 -0.000605
C36   C     C_R   0.563716 0.924871 0.465191 -0.029620
C37   C     C_R   0.368498 0.483494 0.178112 0.584607
C38   C     C_R   0.610047 0.542998 0.822113 0.571722
C39   C     C_R   0.584070 0.527532 0.178108 0.575453
C40   C     C_R   0.391382 0.544821 0.822926 0.579992
C41   C     C_R   0.518020 0.380704 0.276104 -0.090244
C42   C     C_R   0.461604 0.401243 0.723866 -0.086160
C43   C     C_R   0.533956 0.381718 0.326116 0.358046
C44   C     C_R   0.450077 0.395764 0.673628 0.397407
C45   C     C_R   0.444060 0.614474 0.331929 -0.338498
C46   C     C_R   0.543742 0.629414 0.668691 -0.342780
C47   C     C_R   0.436030 0.617394 0.281944 0.014720
C48   C     C_R   0.542544 0.641115 0.718740 0.020725
C49   C     C_R   0.473315 0.500441 0.253803 0.204848
C50   C     C_R   0.503686 0.525991 0.746712 0.196914
Cu1   Cu    Cu3+1 0.500000 0.640660 0.500000 0.946695
Cu2   Cu    Cu3+1 0.500000 0.359340 0.500000 0.956842
H1    H     H_    0.412849 0.704448 0.353289 0.183088
H2    H     H_    0.577632 0.717500 0.647614 0.188702
H3    H     H_    0.614258 0.129766 0.437566 0.168113
H4    H     H_    0.384291 0.870802 0.562359 0.133184
H5    H     H_    0.383177 0.131554 0.562058 0.150256
H6    H     H_    0.614693 0.868288 0.437248 0.115614
H7    H     H_    0.189717 0.566523 0.880092 0.199781
H8    H     H_    0.785703 0.526578 0.122607 0.177486
H9    H     H_    0.188429 0.429083 0.031939 0.208266
H10   H     H_    0.798883 0.596917 0.965891 0.208952
N1    N     N_R   0.474620 0.506483 0.202137 -0.458532
N2    N     N_R   0.501783 0.537689 0.798467 -0.459955
N3    N     N_R   0.500000 0.852070 0.500000 -0.158679
N4    N     N_R   0.500000 0.147930 0.500000 -0.182948
O1    O     O_R   0.319640 0.618740 0.500000 -0.559702
O2    O     O_R   0.680360 0.381260 0.500000 -0.566527
O3    O     O_R   0.680360 0.618740 0.500000 -0.555658
O4    O     O_R   0.319640 0.381260 0.500000 -0.556860
O5    O     O_R   0.500020 0.618770 0.430260 -0.600628
O6    O     O_R   0.499980 0.381230 0.569740 -0.561428
O7    O     O_R   0.499980 0.618770 0.569740 -0.602912
O8    O     O_R   0.500020 0.381230 0.430260 -0.560605
O9    O     O_2   0.263918 0.456549 0.203587 -0.502890
O10   O     O_2   0.716811 0.534809 0.796531 -0.496347
O11   O     O_2   0.286481 0.547976 0.798374 -0.554247
O12   O     O_2   0.687429 0.548377 0.203049 -0.566133
C51   C     C_1   0.390599 0.741813 0.259879 0.274506
N5    N     N_1   0.354156 0.841556 0.242168 -0.274873
C52   C     C_1   0.579162 0.773313 0.740844 0.287110
N6    N     N_1   0.608180 0.879604 0.758443 -0.287123
O13   O     O_3   0.153505 0.424185 0.124730 -0.570727
C53   C     C_3   0.061823 0.525306 0.118294 0.063045
H11   H     H_    0.975767 0.478806 0.133225 0.181543
H12   H     H_    0.046404 0.545364 0.079638 0.171729
C54   C     C_3   0.087254 0.663766 0.146162 -0.339507
H13   H     H_    0.090803 0.642681 0.185273 0.265858
H14   H     H_    0.176927 0.710093 0.134236 0.206897
C55   C     C_3   0.987739 0.771242 0.138095 -0.883461
H15   H     H_    0.980325 0.791547 0.099058 0.252998
H16   H     H_    0.011307 0.871837 0.156884 0.270035
H17   H     H_    0.897909 0.732507 0.152730 0.277259
O14   O     O_3   0.830645 0.595240 0.874020 -0.554655
C56   C     C_3   0.876494 0.734557 0.880643 0.060379
H18   H     H_    0.977456 0.732129 0.874202 0.170100
H19   H     H_    0.861637 0.777185 0.917941 0.100957
C57   C     C_3   0.822015 0.833864 0.844371 -0.315525
H20   H     H_    0.841219 0.793116 0.807200 0.262645
H21   H     H_    0.721025 0.838712 0.850466 0.217093
C58   C     C_3   0.876238 0.982302 0.849350 -0.879775
H22   H     H_    0.856361 0.026140 0.886061 0.249904
H23   H     H_    0.834895 0.051579 0.822686 0.279556
H24   H     H_    0.977098 0.980999 0.842555 0.257098
O15   O     O_3   0.386543 0.284192 0.652487 -0.606637
C59   C     C_3   0.266791 0.328251 0.641382 0.044949
H25   H     H_    0.241563 0.278316 0.606526 0.152170
H26   H     H_    0.260034 0.443904 0.636264 0.103698
C60   C     C_3   0.172708 0.281119 0.680069 -0.334528
H27   H     H_    0.161945 0.164628 0.678224 0.215838
H28   H     H_    0.204697 0.311624 0.716350 0.248957
C61   C     C_3   0.048554 0.349385 0.673659 -0.888940
H29   H     H_    0.054970 0.463871 0.682222 0.263960
H30   H     H_    0.979042 0.301036 0.698493 0.277670
H31   H     H_    0.018002 0.335111 0.636169 0.243527
O16   O     O_3   0.594654 0.271973 0.346577 -0.586165
C62   C     C_3   0.721715 0.305760 0.346030 0.088346
H32   H     H_    0.742194 0.375297 0.377558 0.107142
H33   H     H_    0.753746 0.360940 0.312674 0.139497
C63   C     C_3   0.796789 0.172095 0.349393 -0.368479
H34   H     H_    0.895558 0.202291 0.349080 0.167822
H35   H     H_    0.774301 0.118767 0.383726 0.211064
C64   C     C_3   0.774859 0.069869 0.307360 -0.716002
H36   H     H_    0.677912 0.032260 0.307932 0.277244
H37   H     H_    0.834762 0.977307 0.310203 0.224615
H38   H     H_    0.797194 0.121689 0.272646 0.253993
C65   C     C_1   0.428696 0.279192 0.751989 0.326518
N7    N     N_1   0.402419 0.181468 0.774509 -0.269606
C66   C     C_1   0.550005 0.257584 0.247334 0.333201
N8    N     N_1   0.574902 0.159308 0.224027 -0.281620
O17   O     O_3   0.159357 0.586751 0.972583 -0.626709
C67   C     C_3   0.139183 0.733833 0.973023 0.045042
H39   H     H_    0.040342 0.749826 0.981944 0.171171
H40   H     H_    0.157087 0.781175 0.937048 0.126908
C68   C     C_3   0.215066 0.810707 0.011486 -0.362280
H41   H     H_    0.200753 0.758150 0.046569 0.231125
H42   H     H_    0.314083 0.806797 0.001122 0.216820
C69   C     C_3   0.179101 0.964625 0.017420 -0.893606
H43   H     H_    0.083305 0.971688 0.031546 0.259676
H44   H     H_    0.240072 0.018514 0.043512 0.269577
H45   H     H_    0.188044 0.018956 0.982422 0.258117
O18   O     O_3   0.822733 0.476103 0.033194 -0.643906
C70   C     C_3   0.818842 0.333909 0.016694 0.053450
H46   H     H_    0.887598 0.322691 0.986621 0.183452
H47   H     H_    0.728858 0.301514 0.001554 0.148824
C71   C     C_3   0.852995 0.234096 0.056690 -0.350814
H48   H     H_    0.794414 0.253838 0.089408 0.229900
H49   H     H_    0.950318 0.253232 0.066059 0.235766
C72   C     C_3   0.835428 0.080592 0.040790 -0.916566
H50   H     H_    0.736922 0.057441 0.034605 0.263095
H51   H     H_    0.866661 0.010517 0.069346 0.263988
H52   H     H_    0.889095 0.058341 0.006990 0.246750
O19   O     O_3   0.124463 0.253757 0.474090 -0.568104
C73   C     C_3   0.142712 0.261210 0.423619 0.111322
H53   H     H_    0.173779 0.368293 0.412038 0.109400
H54   H     H_    0.055515 0.233678 0.405775 0.141730
C74   C     C_3   0.241610 0.157040 0.407277 -0.331713
H55   H     H_    0.329564 0.187379 0.423892 0.261982
H56   H     H_    0.216285 0.049915 0.419626 0.224467
C75   C     C_3   0.259857 0.154579 0.352604 -0.868245
H57   H     H_    0.173860 0.120366 0.335085 0.255501
H58   H     H_    0.333518 0.079774 0.341990 0.272171
H59   H     H_    0.286879 0.260900 0.339765 0.263217
O20   O     O_3   0.888376 0.755358 0.511979 -0.566350
C76   C     C_3   0.883151 0.803946 0.463998 0.089821
H60   H     H_    0.833632 0.905243 0.465408 0.166520
H61   H     H_    0.829103 0.730208 0.440969 0.125275
C77   C     C_3   0.010579 0.830207 0.440095 -0.353080
H62   H     H_    0.065119 0.903397 0.462961 0.254919
H63   H     H_    0.060534 0.729757 0.435460 0.205385
C78   C     C_3   0.999406 0.891169 0.390194 -0.944366
H64   H     H_    0.964831 0.999805 0.393494 0.267663
H65   H     H_    0.936287 0.825333 0.368247 0.255994
H66   H     H_    0.090630 0.893418 0.371461 0.268532
O21   O     O_3   0.877524 0.240270 0.489652 -0.589730
C79   C     C_3   0.843576 0.187089 0.535645 0.124095
H67   H     H_    0.769526 0.107077 0.530551 0.173191
H68   H     H_    0.804860 0.269849 0.560467 0.136438
C80   C     C_3   0.950287 0.116416 0.559862 -0.346766
H69   H     H_    0.986003 0.028852 0.536720 0.271854
H70   H     H_    0.025984 0.193846 0.565308 0.210268
C81   C     C_3   0.908493 0.060016 0.608866 -0.900691
H71   H     H_    0.850468 0.137374 0.629089 0.255289
H72   H     H_    0.989534 0.041684 0.630794 0.252970
H73   H     H_    0.855594 0.960050 0.604209 0.283160
O22   O     O_3   0.120613 0.728104 0.544280 -0.564912
C82   C     C_3   0.160668 0.686334 0.589945 0.076261
H74   H     H_    0.258388 0.656464 0.586698 0.156639
H75   H     H_    0.107034 0.595387 0.605062 0.104731
C83   C     C_3   0.148397 0.808607 0.626064 -0.370161
H76   H     H_    0.179566 0.908412 0.609030 0.230185
H77   H     H_    0.050335 0.817078 0.637352 0.228932
C84   C     C_3   0.223559 0.785533 0.670652 -0.877141
H78   H     H_    0.196976 0.684317 0.687696 0.270140
H79   H     H_    0.207159 0.872688 0.697145 0.267586
H80   H     H_    0.322816 0.784579 0.660675 0.260072

loop_
_geom_bond_atom_site_label_1
_geom_bond_atom_site_label_2
_ccdc_geom_bond_type
C33   H3    S    
C70   C71   S    
C7    O13   S    
C54   H13   S    
Cu2   O4    S    
C34   H4    S    
C83   H76   S    
C49   N1    S    
C5    C37   A    
C27   C29   A    
C50   N2    S    
C14   C18   A    
C56   H18   S    
C53   C54   S    
C47   C51   S    
C78   H64   S    
C20   O18   S    
C13   C16   A    
C61   H30   S    
C52   N6    T    
C56   C57   S    
C72   H50   S    
C68   H41   S    
C47   C49   A    
C38   O10   S    
C44   O15   S    
C48   C52   S    
C78   H65   S    
C24   O6    A    
C76   H60   S    
C42   C44   A    
Cu2   O6    S    
C30   O22   S    
O20   C76   S    
C19   C21   A    
C53   H12   S    
C66   N8    T    
C2    O2    A    
C72   H51   S    
C22   H8    S    
C9    C22   A    
C64   H37   S    
C59   H25   S    
C70   H46   S    
C70   H47   S    
C9    C39   A    
C33   C36   A    
C8    C26   A    
O16   C62   S    
C3    C18   A    
C10   C40   A    
C34   C35   A    
Cu1   N3    S    
C11   C23   S    
C81   H71   S    
C82   C83   S    
C83   C84   S    
C77   C78   S    
O19   C73   S    
O21   C79   S    
C67   H39   S    
C84   H79   S    
C6    C38   A    
C11   C43   A    
C2    O3    A    
C73   H54   S    
Cu2   O2    S    
C63   C64   S    
C80   C81   S    
C79   H68   S    
C37   O9    S    
O22   C82   S    
C45   H1    S    
C12   C46   A    
C76   H61   S    
C68   H42   S    
C74   H55   S    
C41   C43   A    
Cu1   O5    S    
C29   O21   S    
C34   N3    A    
C41   C49   A    
C61   H29   S    
C37   N1    A    
C63   H35   S    
C33   N4    A    
C71   H49   S    
C45   C47   A    
C10   C21   A    
C19   O17   S    
C78   H66   S    
C46   C48   A    
C13   C19   A    
C36   H6    S    
Cu1   Cu2   S    
C58   H22   S    
C14   C20   A    
C64   H36   S    
C8    O14   S    
C53   H11   S    
C73   C74   S    
C4    C6    A    
C60   C61   S    
C5    C7    A    
C36   N3    A    
C15   C26   A    
C6    C8    A    
C35   N4    A    
C3    C5    A    
C1    C32   S    
C80   H69   S    
C2    C31   S    
C81   H73   S    
C75   H58   S    
C75   H59   S    
C3    C9    A    
C23   O5    A    
C43   O16   S    
C41   C66   S    
C71   C72   S    
C55   H16   S    
O13   C53   S    
C84   H80   S    
C46   H2    S    
C16   C18   A    
C25   H9    S    
C73   H53   S    
C68   C69   S    
C69   H44   S    
C42   C65   S    
C42   C50   A    
C4    C17   A    
C72   H52   S    
C67   H40   S    
C79   H67   S    
C20   C22   A    
C57   H20   S    
C76   C77   S    
C57   H21   S    
C54   H14   S    
C62   C63   S    
C23   O8    A    
C4    C10   A    
O17   C67   S    
Cu2   N4    S    
C63   H34   S    
C28   O20   S    
C55   H17   S    
C71   H48   S    
C58   H23   S    
C16   C25   A    
C15   C17   A    
C77   H62   S    
C83   H77   S    
C27   C32   A    
C40   O11   S    
C28   C31   A    
Cu1   O7    S    
C64   H38   S    
C69   H45   S    
C40   N2    A    
C56   H19   S    
C21   H7    S    
C74   C75   S    
C57   C58   S    
C39   N1    A    
O15   C59   S    
C12   C24   S    
Cu2   O8    S    
C1    O4    A    
C7    C25   A    
C13   C17   A    
C35   H5    S    
C77   H63   S    
C75   H57   S    
C79   C80   S    
C62   H33   S    
C26   H10   S    
C28   C30   A    
C29   C31   A    
C62   H32   S    
C30   C32   A    
C55   H15   S    
Cu1   O1    S    
C59   H26   S    
C67   C68   S    
C60   H28   S    
C48   C50   A    
C1    O1    A    
C27   O19   S    
O14   C56   S    
C24   O7    A    
C81   H72   S    
C82   H75   S    
C11   C45   A    
C69   H43   S    
C51   N5    T    
C82   H74   S    
C74   H56   S    
C84   H78   S    
C54   C55   S    
O18   C70   S    
C38   N2    A    
C14   C15   A    
C12   C44   A    
C58   H24   S    
Cu1   O3    S    
C39   O12   S    
C60   H27   S    
C61   H31   S    
C65   N7    T    
C80   H70   S    
C59   C60   S    
