data_mof_unit_20117.cif
_audit_creation_date              2012-10-26T18:58:27-0400
_audit_creation_method            fapswitch 2.2
_symmetry_space_group_name_H-M    P1
_symmetry_Int_Tables_number       1
_space_group_crystal_system       triclinic
_cell_length_a                    19.508343
_cell_length_b                    18.171973
_cell_length_c                    16.012617
_cell_angle_alpha                 89.700317
_cell_angle_beta                  91.956555
_cell_angle_gamma                 89.785843
_cell_volume                      5673.12352897

loop_
_atom_site_label
_atom_site_type_symbol
_atom_type_description
_atom_site_fract_x
_atom_site_fract_y
_atom_site_fract_z
_atom_type_partial_charge
C1    C     C_R   0.367734 0.500342 0.500081 0.581642
C2    C     C_R   0.927913 0.492785 0.504129 0.085208
C3    C     C_R   0.455699 0.720718 0.446224 0.374730
C4    C     C_R   0.539992 0.277335 0.557696 0.377041
C5    C     C_R   0.544424 0.719904 0.553653 0.364594
C6    C     C_R   0.459668 0.278190 0.442637 0.375540
C7    C     C_R   0.456175 0.799187 0.445794 -0.153098
C8    C     C_R   0.543737 0.199652 0.554029 -0.128811
C9    C     C_R   0.544835 0.798148 0.553509 -0.155815
C10   C     C_R   0.456415 0.200443 0.445919 -0.131272
C11   C     C_R   0.500492 0.837921 0.499824 0.005645
C12   C     C_R   0.632228 0.500153 0.499854 0.584510
C13   C     C_R   0.500252 0.160396 0.499806 0.000437
C14   C     C_R   0.460075 0.959795 0.556415 0.120513
C15   C     C_R   0.540622 0.038421 0.443235 0.116008
C16   C     C_R   0.541245 0.960088 0.443634 0.119031
C17   C     C_R   0.460334 0.038112 0.556565 0.116980
C18   C     C_R   0.500351 0.077636 0.499813 0.032581
C19   C     C_R   0.500630 0.920600 0.499955 0.035397
C20   C     C_R   0.500344 0.500137 0.341139 0.526077
C21   C     C_R   0.500368 0.499855 0.658865 0.519979
C22   C     C_R   0.491510 0.568581 0.955228 0.241013
C23   C     C_R   0.707714 0.500882 0.503426 0.005789
C24   C     C_R   0.494797 0.434003 0.043755 0.223040
C25   C     C_R   0.489684 0.568556 0.042963 0.251370
C26   C     C_R   0.490600 0.433922 0.956127 0.230959
C27   C     C_R   0.492405 0.501009 0.912127 -0.058181
C28   C     C_R   0.493105 0.500988 0.087078 -0.056589
C29   C     C_1   0.497101 0.500072 0.822725 -0.017383
C30   C     C_1   0.497414 0.500246 0.176929 -0.016046
C31   C     C_1   0.499448 0.500290 0.252003 -0.046197
C32   C     C_1   0.499265 0.499654 0.747866 -0.062204
C33   C     C_R   0.743446 0.451118 0.556737 0.097537
C34   C     C_R   0.292175 0.501218 0.497640 0.004585
C35   C     C_R   0.256405 0.549568 0.549119 0.099537
C36   C     C_R   0.256175 0.452887 0.443806 0.098996
C37   C     C_R   0.743693 0.551638 0.454852 0.094463
C38   C     C_R   0.815460 0.445605 0.554096 0.107810
C39   C     C_R   0.184192 0.546503 0.550517 0.112841
C40   C     C_R   0.184291 0.446767 0.447973 0.106971
C41   C     C_R   0.816008 0.550538 0.457155 0.111337
C42   C     C_R   0.851949 0.496145 0.505032 0.016706
C43   C     C_R   0.148092 0.494492 0.500529 0.014148
C44   C     C_3   0.433522 0.652258 0.124983 0.019474
C45   C     C_R   0.961403 0.491850 0.428078 -0.097728
C46   C     C_3   0.383682 0.693958 0.065982 -0.271005
C47   C     C_3   0.323221 0.725532 0.111730 -0.506671
C48   C     C_3   0.427160 0.347200 0.884835 0.013404
C49   C     C_3   0.392644 0.298205 0.949114 -0.246680
C50   C     C_3   0.325475 0.266556 0.913719 -0.504371
C51   C     C_3   0.445004 0.657574 0.866289 0.010575
C52   C     C_3   0.468328 0.698193 0.788798 -0.255394
C53   C     C_3   0.408029 0.732566 0.739690 -0.487523
C54   C     C_3   0.567874 0.345165 0.094227 0.029993
C55   C     C_3   0.570786 0.263255 0.116198 -0.260009
C56   C     C_R   0.038601 0.487549 0.577742 -0.097790
C57   C     C_3   0.644595 0.235857 0.126812 -0.492392
C58   C     C_3   0.688485 0.453699 0.688989 -0.270545
C59   C     C_3   0.289078 0.676815 0.579335 -0.278982
C60   C     C_3   0.309502 0.459244 0.310512 -0.279707
C61   C     C_3   0.699635 0.676375 0.430272 -0.258535
C62   C     C_3   0.860473 0.389816 0.685028 -0.318896
C63   C     C_3   0.153060 0.591495 0.688617 -0.318396
C64   C     C_3   0.138275 0.395964 0.315628 -0.318797
C65   C     C_3   0.853474 0.607292 0.326864 -0.317322
C66   C     C_3   0.371474 0.715753 0.334668 -0.009966
C67   C     C_R   0.032596 0.495448 0.427023 -0.097824
C68   C     C_3   0.304513 0.744457 0.370374 -0.275547
C69   C     C_3   0.266355 0.796865 0.310301 -0.492383
C70   C     C_3   0.551641 0.302798 0.698205 0.041371
C71   C     C_3   0.589440 0.242967 0.750421 -0.278714
C72   C     C_3   0.667374 0.247706 0.747145 -0.409744
C73   C     C_3   0.617041 0.710000 0.675315 -0.011795
C74   C     C_3   0.689754 0.738781 0.663511 -0.278974
C75   C     C_3   0.717155 0.778002 0.741665 -0.479612
C76   C     C_3   0.444024 0.306023 0.302725 0.045221
C77   C     C_3   0.405729 0.246532 0.251618 -0.282565
C78   C     C_R   0.967409 0.492381 0.578998 -0.096739
C79   C     C_3   0.328050 0.249519 0.259327 -0.410776
C80   C     C_3   0.353642 0.898625 0.587695 -0.326099
C81   C     C_3   0.548868 0.100258 0.308655 -0.319070
C82   C     C_3   0.648126 0.898686 0.413682 -0.317993
C83   C     C_3   0.451491 0.097063 0.691972 -0.319356
C84   C     C_R   0.072115 0.491510 0.501762 0.083002
Cu1   Cu    Cu3+1 0.500000 0.573360 0.500000 1.056764
Cu2   Cu    Cu3+1 0.500000 0.426640 0.500000 1.048478
H1    H     H_    0.932537 0.489962 0.369352 0.112526
H2    H     H_    0.407098 0.603494 0.151051 0.105232
H3    H     H_    0.330237 0.863644 0.636029 0.129095
H4    H     H_    0.631331 0.059099 0.381654 0.251516
H5    H     H_    0.554381 0.160555 0.300309 0.147005
H6    H     H_    0.493405 0.086225 0.306231 0.136883
H7    H     H_    0.573586 0.072157 0.256010 0.120104
H8    H     H_    0.579643 0.944147 0.325811 0.257421
H9    H     H_    0.672330 0.864770 0.365222 0.134861
H10   H     H_    0.646123 0.865233 0.471525 0.147669
H11   H     H_    0.680587 0.947703 0.426179 0.126037
H12   H     H_    0.369304 0.059296 0.617111 0.251056
H13   H     H_    0.411107 0.740096 0.036131 0.183070
H14   H     H_    0.446011 0.157152 0.701806 0.144331
H15   H     H_    0.506918 0.082390 0.694612 0.137818
H16   H     H_    0.426320 0.067717 0.743608 0.118539
H17   H     H_    0.363445 0.655421 0.017623 0.134408
H18   H     H_    0.295913 0.681149 0.144865 0.136561
H19   H     H_    0.286763 0.752170 0.066078 0.142580
H20   H     H_    0.341587 0.767748 0.156928 0.144411
H21   H     H_    0.433103 0.315134 0.826679 0.131299
H22   H     H_    0.393413 0.395084 0.867605 0.107343
H23   H     H_    0.427702 0.252196 0.967841 0.176644
H24   H     H_    0.381628 0.330910 0.005541 0.184759
H25   H     H_    0.067450 0.482548 0.636315 0.116609
H26   H     H_    0.289373 0.311666 0.895283 0.141394
H27   H     H_    0.301477 0.231973 0.961975 0.141722
H28   H     H_    0.335137 0.231839 0.858406 0.143763
H29   H     H_    0.415580 0.697164 0.903062 0.134007
H30   H     H_    0.409850 0.612049 0.846722 0.101050
H31   H     H_    0.504647 0.742411 0.808057 0.166186
H32   H     H_    0.494882 0.658883 0.748119 0.192166
H33   H     H_    0.369230 0.689848 0.724803 0.150355
H34   H     H_    0.426117 0.756744 0.680571 0.168728
H35   H     H_    0.384119 0.776711 0.776711 0.137414
H36   H     H_    0.056455 0.502199 0.367729 0.109567
H37   H     H_    0.594574 0.376910 0.144835 0.127686
H38   H     H_    0.595479 0.353230 0.034920 0.156497
H39   H     H_    0.544201 0.253377 0.175243 0.144414
H40   H     H_    0.544082 0.231416 0.065801 0.168981
H41   H     H_    0.672111 0.243463 0.067799 0.144389
H42   H     H_    0.644711 0.176369 0.143057 0.141520
H43   H     H_    0.671887 0.266233 0.177881 0.146592
H44   H     H_    0.725902 0.359360 0.631883 0.263394
H45   H     H_    0.735232 0.472231 0.724056 0.112833
H46   H     H_    0.657567 0.420301 0.731440 0.142486
H47   H     H_    0.943559 0.496624 0.638545 0.109991
H48   H     H_    0.657534 0.502689 0.669733 0.157641
H49   H     H_    0.293521 0.587929 0.664367 0.234676
H50   H     H_    0.267656 0.708552 0.631525 0.104013
H51   H     H_    0.255423 0.686180 0.523136 0.134617
H52   H     H_    0.341004 0.698014 0.566909 0.172299
H53   H     H_    0.273175 0.363453 0.366111 0.264313
H54   H     H_    0.262350 0.481456 0.278809 0.110504
H55   H     H_    0.337364 0.426083 0.264838 0.132429
H56   H     H_    0.342866 0.505857 0.330072 0.157037
H57   H     H_    0.715088 0.596604 0.338304 0.248439
H58   H     H_    0.421949 0.831496 0.405729 0.097277
H59   H     H_    0.735817 0.712925 0.397949 0.102458
H60   H     H_    0.709770 0.680035 0.498700 0.163556
H61   H     H_    0.646603 0.696082 0.415938 0.173390
H62   H     H_    0.836167 0.334674 0.573815 0.246314
H63   H     H_    0.913725 0.372799 0.702652 0.144482
H64   H     H_    0.824891 0.351693 0.716104 0.121590
H65   H     H_    0.852135 0.446457 0.708501 0.138767
H66   H     H_    0.146494 0.651391 0.575956 0.249414
H67   H     H_    0.101478 0.597648 0.714920 0.137651
H68   H     H_    0.186351 0.635699 0.714822 0.127718
H69   H     H_    0.579796 0.169757 0.594180 0.111021
H70   H     H_    0.174384 0.537014 0.708311 0.135460
H71   H     H_    0.163839 0.336656 0.424541 0.245860
H72   H     H_    0.084865 0.379938 0.298258 0.144920
H73   H     H_    0.173526 0.358796 0.282651 0.120987
H74   H     H_    0.146333 0.453375 0.294034 0.137310
H75   H     H_    0.847296 0.658974 0.443108 0.249914
H76   H     H_    0.906736 0.615637 0.306639 0.141497
H77   H     H_    0.821295 0.653074 0.300946 0.130832
H78   H     H_    0.834281 0.554340 0.300741 0.137130
H79   H     H_    0.357204 0.675109 0.285686 0.135908
H80   H     H_    0.580267 0.829065 0.592856 0.096278
H81   H     H_    0.401101 0.758617 0.301898 0.109394
H82   H     H_    0.270782 0.696861 0.383009 0.158123
H83   H     H_    0.315127 0.773620 0.430019 0.143689
H84   H     H_    0.300210 0.842782 0.291913 0.143761
H85   H     H_    0.221244 0.820314 0.341377 0.141069
H86   H     H_    0.247637 0.766890 0.253910 0.147000
H87   H     H_    0.557037 0.354899 0.733333 0.170376
H88   H     H_    0.495463 0.291064 0.695783 0.084809
H89   H     H_    0.574617 0.248403 0.816549 0.146210
H90   H     H_    0.572826 0.187637 0.730147 0.120097
H91   H     H_    0.420191 0.171112 0.406099 0.111130
H92   H     H_    0.684159 0.240710 0.682112 0.173598
H93   H     H_    0.690918 0.203013 0.786136 0.118614
H94   H     H_    0.685793 0.301056 0.772312 0.141244
H95   H     H_    0.620126 0.666304 0.724115 0.156032
H96   H     H_    0.582945 0.753086 0.700380 0.107815
H97   H     H_    0.724220 0.691762 0.650088 0.158381
H98   H     H_    0.690313 0.777572 0.609733 0.142606
H99   H     H_    0.684445 0.826376 0.755207 0.146496
H100  H     H_    0.770175 0.797361 0.731642 0.140290
H101  H     H_    0.718124 0.739864 0.796145 0.153603
H102  H     H_    0.447522 0.688248 0.178645 0.156875
H103  H     H_    0.500367 0.295099 0.302919 0.093734
H104  H     H_    0.436791 0.358571 0.268206 0.172111
H105  H     H_    0.417529 0.253838 0.184660 0.143120
H106  H     H_    0.424608 0.191128 0.269866 0.117728
H107  H     H_    0.313907 0.241025 0.325238 0.174735
H108  H     H_    0.304184 0.205069 0.221086 0.117635
H109  H     H_    0.307532 0.302950 0.235722 0.139625
H110  H     H_    0.422695 0.942834 0.674795 0.256490
H111  H     H_    0.320702 0.947845 0.576466 0.129358
H112  H     H_    0.355331 0.866516 0.529298 0.147244
N1    N     N_R   0.500000 0.683620 0.500000 -0.199674
N2    N     N_2   0.853157 0.607554 0.417380 -0.510174
N3    N     N_2   0.421912 0.919967 0.616018 -0.520001
N4    N     N_2   0.582013 0.078431 0.387290 -0.515406
N5    N     N_2   0.579977 0.920596 0.384520 -0.512134
N6    N     N_2   0.418871 0.077821 0.612502 -0.515760
N7    N     N_R   0.500000 0.316380 0.500000 -0.214685
N8    N     N_2   0.706582 0.410652 0.616905 -0.456137
N9    N     N_2   0.293939 0.599474 0.601321 -0.491798
N10   N     N_2   0.292516 0.414229 0.381918 -0.453518
N11   N     N_2   0.706482 0.601507 0.401129 -0.495707
N12   N     N_2   0.850904 0.385938 0.594931 -0.515846
N13   N     N_2   0.147028 0.598154 0.598417 -0.509625
N14   N     N_2   0.148799 0.388709 0.405407 -0.515398
O1    O     O_R   0.400190 0.561980 0.499990 -0.448223
O2    O     O_3   0.493638 0.367586 0.914177 -0.571202
O3    O     O_3   0.503660 0.634316 0.913995 -0.531552
O4    O     O_3   0.498508 0.367843 0.086915 -0.578255
O5    O     O_3   0.411193 0.677772 0.396689 -0.530576
O6    O     O_3   0.579258 0.313833 0.617888 -0.519444
O7    O     O_3   0.591157 0.677101 0.600829 -0.540079
O8    O     O_3   0.418629 0.315659 0.384272 -0.518480
O9    O     O_R   0.599810 0.438020 0.500010 -0.458737
O10   O     O_R   0.599810 0.561980 0.500010 -0.447013
O11   O     O_R   0.400190 0.438020 0.499990 -0.458471
O12   O     O_R   0.499980 0.561940 0.380310 -0.462948
O13   O     O_R   0.500020 0.438060 0.619690 -0.489827
O14   O     O_R   0.500020 0.561940 0.619690 -0.478901
O15   O     O_R   0.499980 0.438060 0.380310 -0.493080
O16   O     O_3   0.495103 0.635180 0.084541 -0.526756

loop_
_geom_bond_atom_site_label_1
_geom_bond_atom_site_label_2
_ccdc_geom_bond_type
C15   C18   A    
C66   C68   S    
C54   H37   S    
C64   N14   S    
C8    C13   A    
Cu2   O15   S    
C83   H16   S    
C27   C29   S    
C70   H88   S    
C41   C42   A    
C72   H92   S    
C4    C8    A    
C57   H42   S    
C64   H73   S    
C53   H34   S    
C79   H109  S    
C4    N7    A    
H57   N11   S    
C5    O7    S    
Cu1   Cu2   S    
C58   H48   S    
C25   C28   A    
C7    C11   A    
C21   O14   A    
C12   C23   S    
C11   C19   S    
C26   C27   A    
C70   O6    S    
C79   H108  S    
C13   C18   S    
H44   N8    S    
H12   N6    S    
C9    H80   S    
C62   H63   S    
C24   C26   A    
C63   H70   S    
C38   C42   A    
C29   C32   T    
Cu1   O1    S    
C36   N10   S    
C82   N5    S    
C48   H21   S    
C74   H98   S    
C58   N8    S    
C51   O3    S    
C15   C16   A    
C14   N3    S    
C59   H50   S    
C56   C78   A    
C71   H90   S    
C73   O7    S    
C34   C35   A    
C69   H85   S    
C80   H3    S    
C8    H69   S    
C61   H59   S    
C6    N7    A    
C76   H103  S    
C60   H56   S    
C46   C47   S    
C81   H6    S    
Cu1   N1    S    
C40   C43   A    
C55   H39   S    
C58   H46   S    
C68   C69   S    
C47   H19   S    
C22   C25   A    
C65   H76   S    
C45   C67   A    
C3    N1    A    
C70   C71   S    
C82   H9    S    
Cu2   O9    S    
C16   N5    S    
C62   H64   S    
Cu1   O10   S    
C56   H25   S    
H75   N2    S    
C52   H31   S    
C67   C84   A    
C22   O3    S    
C43   C84   S    
C77   H106  S    
C14   C17   A    
C64   H74   S    
C70   H87   S    
C75   H99   S    
C41   N2    S    
Cu2   N7    S    
C7    H58   S    
Cu1   O12   S    
C44   C46   S    
C1    C34   S    
C56   C84   A    
C77   C79   S    
C2    C45   A    
C62   N12   S    
C21   C32   S    
C48   O2    S    
C33   N8    S    
C82   H10   S    
C62   H65   S    
C51   C52   S    
C77   H105  S    
C36   C40   A    
C76   C77   S    
C63   H67   S    
C5    N1    A    
C74   C75   S    
C60   N10   S    
C39   C43   A    
C74   H97   S    
C59   H52   S    
C23   C33   A    
C23   C37   A    
C51   H29   S    
C50   H28   S    
C69   H86   S    
C17   N6    S    
C35   C39   A    
C61   H60   S    
C5    C9    A    
C2    C78   A    
H62   N12   S    
C60   H55   S    
C65   N2    S    
C73   H95   S    
C68   H83   S    
C54   O4    S    
C80   N3    S    
C55   H40   S    
C58   H45   S    
C3    O5    S    
C47   H20   S    
C80   H112  S    
C65   H77   S    
C50   H26   S    
C17   C18   A    
C20   O12   A    
C39   N13   S    
C61   N11   S    
C38   N12   S    
C81   H7    S    
C9    C11   A    
C37   N11   S    
C60   H54   S    
C6    O8    S    
C66   H81   S    
C35   N9    S    
C48   C49   S    
H66   N13   S    
C44   H102  S    
C4    O6    S    
C83   H14   S    
C55   C57   S    
C1    O1    A    
C82   H11   S    
C75   H100  S    
Cu2   O11   S    
C72   H94   S    
C67   H36   S    
C68   H82   S    
C15   N4    S    
C52   C53   S    
H49   N9    S    
C12   O10   A    
C57   H43   S    
C54   H38   S    
C54   C55   S    
C73   C74   S    
C47   H18   S    
C83   H15   S    
C66   H79   S    
C45   H1    S    
C10   H91   S    
C14   C19   A    
C44   O16   S    
C75   H101  S    
C24   C28   A    
C63   H68   S    
C63   N13   S    
C83   N6    S    
C10   C13   A    
C1    O11   A    
C57   H41   S    
C53   H33   S    
C81   N4    S    
H8    N5    S    
C66   O5    S    
C21   O13   A    
C46   H17   S    
C40   N14   S    
C25   O16   S    
C3    C7    A    
C51   H30   S    
C79   H107  S    
C26   O2    S    
C22   C27   A    
C50   H27   S    
C46   H13   S    
C28   C30   S    
C61   H61   S    
C49   H23   S    
C20   O15   A    
C71   C72   S    
C53   H35   S    
C73   H96   S    
C24   O4    S    
C30   C31   T    
C48   H22   S    
C2    C42   S    
C16   C19   A    
C80   H111  S    
C65   H78   S    
C71   H89   S    
C34   C36   A    
C69   H84   S    
C37   C41   A    
C78   H47   S    
C12   O9    A    
C76   H104  S    
C6    C10   A    
C81   H5    S    
H71   N14   S    
C49   C50   S    
C64   H72   S    
H53   N10   S    
Cu2   O13   S    
C59   H51   S    
C76   O8    S    
C33   C38   A    
Cu1   O14   S    
C72   H93   S    
H110  N3    S    
C44   H2    S    
C59   N9    S    
C49   H24   S    
H4    N4    S    
C20   C31   S    
C52   H32   S    
