data_mof_unit_39013.cif
_audit_creation_date              2012-12-11T14:17:50-0500
_audit_creation_method            fapswitch 2.2
_symmetry_space_group_name_H-M    P1
_symmetry_Int_Tables_number       1
_space_group_crystal_system       triclinic
_cell_length_a                    6.948511
_cell_length_b                    13.723231
_cell_length_c                    20.497799
_cell_angle_alpha                 102.057359
_cell_angle_beta                  90.535491
_cell_angle_gamma                 90.584816
_cell_volume                      1911.23708576

loop_
_atom_site_label
_atom_site_type_symbol
_atom_type_description
_atom_site_fract_x
_atom_site_fract_y
_atom_site_fract_z
_atom_type_partial_charge
O1    O     O_R   0.506860 0.599390 0.449240 -0.544908
O2    O     O_R   0.180220 0.594600 0.586780 -0.540144
O3    O     O_R   0.004500 0.400610 0.550760 -0.532106
C1    C     C_R   0.349833 0.613373 0.614236 0.736313
O4    O     O_R   0.177490 0.611290 0.451970 -0.546536
O5    O     O_R   0.001750 0.417420 0.414990 -0.555389
C2    C     C_R   0.346064 0.637016 0.435066 0.680428
O6    O     O_R   0.509610 0.582580 0.585010 -0.524576
O7    O     O_3   0.337420 0.436370 0.488020 -0.379695
V1    V     V_3+5 0.064680 0.511800 0.502220 1.458853
O8    O     O_R   0.671710 0.405400 0.413220 -0.544010
C3    C     C_R   0.837967 0.384763 0.386500 0.674987
O9    O     O_R   0.674440 0.388710 0.548030 -0.536563
C4    C     C_R   0.842963 0.363301 0.565887 0.819115
V2    V     V_3+5 0.564010 0.488200 0.497780 1.458290
O10   O     O_3   0.841140 0.563630 0.511980 -0.370308
C5    C     C_R   0.814343 0.113182 0.614325 -0.227636
H1    H     H_    0.840559 0.986777 0.695768 0.123119
H2    H     H_    0.792263 0.035709 0.589996 0.123886
C6    C     C_R   0.849146 0.286138 0.606178 -0.118131
C7    C     C_R   0.834239 0.312658 0.927603 -0.176454
C8    C     C_R   0.805741 0.386463 0.891370 -0.107213
C9    C     C_R   0.810427 0.363210 0.821907 -0.100584
C10   C     C_R   0.852628 0.265987 0.786879 0.093386
C11   C     C_R   0.863694 0.189059 0.823885 0.063955
C12   C     C_R   0.862857 0.241094 0.715772 0.038630
C13   C     C_R   0.842221 0.139474 0.683466 0.082023
C14   C     C_R   0.849097 0.064714 0.720442 -0.172680
C15   C     C_R   0.867905 0.089028 0.789485 -0.191964
C16   C     C_R   0.893068 0.312247 0.675169 0.031246
C17   C     C_R   0.804688 0.186469 0.576255 0.246522
C18   C     C_R   0.859880 0.213800 0.894571 -0.072780
H3    H     H_    0.828384 0.331929 0.981578 0.105722
H4    H     H_    0.770029 0.420961 0.796109 0.175754
H5    H     H_    0.775448 0.461830 0.917202 0.134702
H6    H     H_    0.874983 0.028469 0.815826 0.115927
C19   C     C_2   0.990639 0.297166 0.281837 -0.170050
C20   C     C_2   0.830015 0.319320 0.318852 0.142527
H7    H     H_    0.127585 0.327917 0.302973 0.105314
C21   C     C_2   0.997252 0.240129 0.211156 -0.114197
C22   C     C_2   0.863988 0.172427 0.182398 -0.239311
H8    H     H_    0.122318 0.252817 0.182511 0.146822
H9    H     H_    0.743997 0.154016 0.210259 0.203866
C23   C     C_2   0.210731 0.778632 0.785416 -0.088732
C24   C     C_2   0.362320 0.830803 0.816102 -0.284072
H10   H     H_    0.074640 0.780966 0.811291 0.156554
H11   H     H_    0.493702 0.834371 0.788519 0.159711
C25   C     C_2   0.215360 0.724306 0.714343 -0.142247
C26   C     C_2   0.363783 0.668905 0.684674 0.034110
H12   H     H_    0.084060 0.727309 0.685709 0.139898
C27   C     C_R   0.339375 0.887122 0.391115 -0.150504
H13   H     H_    0.333061 0.834518 0.482329 0.099091
H14   H     H_    0.342983 0.013559 0.312731 0.138071
H15   H     H_    0.330160 0.964290 0.416890 0.107678
C28   C     C_R   0.353493 0.714139 0.396310 -0.024062
C29   C     C_R   0.360161 0.690072 0.074974 -0.172023
C30   C     C_R   0.356844 0.614489 0.110280 -0.114051
C31   C     C_R   0.354644 0.636857 0.179510 -0.145216
C32   C     C_R   0.355925 0.736792 0.215900 0.056907
C33   C     C_R   0.356920 0.815710 0.179605 0.030702
C34   C     C_R   0.354966 0.760288 0.287308 0.071314
C35   C     C_R   0.347083 0.861302 0.321247 0.112591
C36   C     C_R   0.347316 0.936678 0.285786 -0.215553
C37   C     C_R   0.355192 0.916095 0.216657 0.085097
C38   C     C_R   0.360884 0.687144 0.326735 -0.209316
C39   C     C_R   0.341360 0.813753 0.428447 -0.173250
C40   C     C_R   0.359730 0.789913 0.108226 -0.075386
H16   H     H_    0.369843 0.608649 0.305465 0.087201
H17   H     H_    0.362859 0.670468 0.020932 0.111471
H18   H     H_    0.350326 0.573562 0.202836 0.103329
H19   H     H_    0.356074 0.537499 0.083683 0.120534
O11   O     O_R   0.203230 0.917310 0.915020 -0.545941
O12   O     O_R   0.535500 0.888690 0.048040 -0.535329
O13   O     O_R   0.711080 0.082610 0.085000 -0.527395
C41   C     C_R   0.367047 0.863320 0.065774 0.750866
O14   O     O_R   0.532630 0.905370 0.913230 -0.544045
O15   O     O_R   0.708190 0.099410 0.949230 -0.543340
C42   C     C_R   0.363831 0.887039 0.885914 0.734596
O16   O     O_R   0.206120 0.900510 0.050790 -0.530360
O17   O     O_3   0.375360 0.063570 0.011990 -0.361535
V3    V     V_3+5 0.648170 0.988200 0.997780 1.475036
O18   O     O_R   0.038240 0.111390 0.951940 -0.545317
C43   C     C_R   0.869483 0.137172 0.934745 0.674942
O19   O     O_R   0.041120 0.094710 0.086750 -0.526625
C44   C     C_R   0.873637 0.114920 0.113336 0.755081
V4    V     V_3+5 0.148810 0.011930 0.002180 1.475491
O20   O     O_3   0.871750 0.936430 0.988010 -0.374794
N1    N     N_2   0.761851 0.158482 0.506859 -0.534260
H20   H     H_    0.839764 0.097897 0.483238 0.256325
C45   C     C_3   0.558303 0.144694 0.491962 -0.548599
H21   H     H_    0.497723 0.085225 0.515458 0.189474
H22   H     H_    0.536048 0.121934 0.437235 0.179628
H23   H     H_    0.480335 0.215199 0.510281 0.222308
N2    N     N_2   0.643612 0.291164 0.290943 -0.504962
H24   H     H_    0.561335 0.351673 0.286569 0.251984
C46   C     C_3   0.539080 0.221277 0.322118 -0.540604
H25   H     H_    0.395919 0.205566 0.297985 0.211765
H26   H     H_    0.512005 0.251969 0.375495 0.205077
H27   H     H_    0.619773 0.150736 0.317376 0.209781
I1    I     I_    0.612328 0.636143 0.738307 -0.421798
I2    I     I_    0.365500 0.049467 0.180748 -0.444629
I3    I     I_    0.062451 0.445127 0.710235 -0.378823

loop_
_geom_bond_atom_site_label_1
_geom_bond_atom_site_label_2
_ccdc_geom_bond_type
C22   H9    S    
C2    C28   S    
C1    O6    A    
C45   H21   S    
C6    C16   A    
C8    H5    S    
C15   H6    S    
C12   C13   A    
C35   C36   A    
C14   C15   A    
O14   C42   A    
C19   C21   S    
O5    C3    A    
C7    H3    S    
O15   C43   A    
V2    O10   S    
C46   H27   S    
C29   C30   A    
O11   C42   A    
O8    V2    S    
C33   C40   A    
C46   H26   S    
O17   V4    S    
C9    C10   A    
C24   C42   S    
O1    V2    S    
O7    V1    S    
C38   H16   S    
C11   C18   A    
C21   H8    S    
C32   C33   A    
O9    C4    A    
O12   C41   A    
C20   N2    S    
C34   C35   A    
C27   C35   A    
O12   V3    S    
C28   C38   A    
C23   H10   S    
C24   H11   S    
C11   C15   A    
C37   I2    S    
C7    C18   A    
C32   C34   A    
C5    C13   A    
C4    C6    S    
H1    C14   S    
C10   C11   A    
O4    C2    A    
V4    O20   S    
C31   H18   S    
C31   C32   A    
O18   V4    S    
O18   C43   A    
C30   H19   S    
C27   C39   A    
O2    C1    A    
C19   C20   D    
C45   H22   S    
O15   V3    S    
C9    H4    S    
C46   H25   S    
C16   I3    S    
O19   C44   A    
N2    C46   S    
V3    O20   S    
O3    C4    A    
C21   C22   D    
N1    C45   S    
C12   C16   A    
O6    V2    S    
O9    V2    S    
C5    C17   A    
C40   C41   S    
O13   V3    S    
O2    V1    S    
C28   C39   A    
H13   C39   S    
C23   C24   D    
C45   H23   S    
C18   C43   S    
C25   C26   D    
C17   N1    S    
O1    C2    A    
C10   C12   A    
O17   V3    S    
O14   V3    S    
O5    V1    S    
O11   V4    S    
O8    C3    A    
C29   C40   A    
C22   C44   S    
C1    C26   S    
C33   C37   A    
C27   H15   S    
O7    V2    S    
O4    V1    S    
C19   H7    S    
O3    V1    S    
V1    O10   S    
C26   I1    S    
H14   C36   S    
C30   C31   A    
C25   H12   S    
C5    H2    S    
O13   C44   A    
C3    C20   S    
N2    H24   S    
C36   C37   A    
C34   C38   A    
N1    H20   S    
C29   H17   S    
C13   C14   A    
C8    C9    A    
O19   V4    S    
C7    C8    A    
C41   O16   A    
O16   V4    S    
C23   C25   S    
C6    C17   A    
