data_mof_unit_31138.cif
_audit_creation_date              2013-03-05T15:50:11-0500
_audit_creation_method            fapswitch 2.2
_symmetry_space_group_name_H-M    P1
_symmetry_Int_Tables_number       1
_space_group_crystal_system       triclinic
_cell_length_a                    15.107347
_cell_length_b                    15.539049
_cell_length_c                    9.593904
_cell_angle_alpha                 90.003443
_cell_angle_beta                  90.735666
_cell_angle_gamma                 89.544879
_cell_volume                      2251.94877511

loop_
_atom_site_label
_atom_site_type_symbol
_atom_site_description
_atom_site_fract_x
_atom_site_fract_y
_atom_site_fract_z
_atom_type_partial_charge
O1    O     O_R   0.409820 0.909830 0.618810 -0.596928
O2    O     O_R   0.409820 0.090170 0.618810 -0.577396
O3    O     O_R   0.909820 0.409830 0.618810 -0.592536
O4    O     O_R   0.909820 0.590170 0.618810 -0.583465
O5    O     O_R   0.409840 0.909830 0.381240 -0.561755
O6    O     O_R   0.409840 0.090170 0.381240 -0.579361
O7    O     O_R   0.909840 0.409830 0.381240 -0.562234
O8    O     O_R   0.909840 0.590170 0.381240 -0.583107
C1    C     C_R   0.384637 0.877840 0.500725 0.784065
C2    C     C_R   0.381008 0.118297 0.499534 0.786961
C3    C     C_R   0.885161 0.377554 0.500411 0.782088
C4    C     C_R   0.879402 0.616627 0.499379 0.794903
Cu1   Cu    Cu3+1 0.499990 1.000000 0.640660 0.948724
Cu2   Cu    Cu3+1 0.999990 0.500000 0.640660 0.953462
Cu3   Cu    Cu3+1 0.500010 0.000000 0.359340 0.974712
Cu4   Cu    Cu3+1 0.000010 0.500000 0.359340 0.973858
O9    O     O_R   0.590170 0.090170 0.618760 -0.613373
O10   O     O_R   0.590170 0.909830 0.618760 -0.600464
O11   O     O_R   0.090170 0.590170 0.618760 -0.615269
O12   O     O_R   0.090170 0.409830 0.618760 -0.590656
O13   O     O_R   0.590190 0.090180 0.381190 -0.604796
O14   O     O_R   0.590190 0.909820 0.381190 -0.580448
O15   O     O_R   0.090190 0.590180 0.381190 -0.606268
O16   O     O_R   0.090190 0.409820 0.381190 -0.579530
C5    C     C_R   0.614946 0.122597 0.501706 0.798956
C6    C     C_R   0.616469 0.879075 0.500568 0.786200
C7    C     C_R   0.114153 0.623098 0.501569 0.799834
C8    C     C_R   0.117973 0.380609 0.500285 0.780544
H1    H     H_    0.394274 0.277336 0.404436 0.153375
H2    H     H_    0.291652 0.817589 0.283362 0.198437
H3    H     H_    0.873039 0.758160 0.346769 0.160307
H4    H     H_    0.791698 0.317439 0.282710 0.199801
C9    C     C_R   0.204654 0.079581 0.598805 -0.271377
C10   C     C_R   0.345567 0.772605 0.757610 -0.220794
C11   C     C_R   0.719031 0.591591 0.660377 -0.272335
C12   C     C_R   0.852477 0.268327 0.752922 -0.218068
H5    H     H_    0.253654 0.028483 0.599132 0.173373
H6    H     H_    0.412913 0.793302 0.758004 0.177365
H7    H     H_    0.764427 0.537833 0.653657 0.182122
H8    H     H_    0.920617 0.287808 0.749423 0.185332
C13   C     C_R   0.118984 0.060359 0.643260 0.389014
C14   C     C_R   0.312399 0.744226 0.885050 0.395212
C15   C     C_R   0.646361 0.583254 0.748274 0.377858
C16   C     C_R   0.820537 0.241107 0.881832 0.414369
C17   C     C_R   0.583037 0.649314 0.751393 -0.137073
C18   C     C_R   0.732531 0.215425 0.889987 -0.180293
C19   C     C_R   0.053649 0.124779 0.638079 -0.149599
C20   C     C_R   0.224539 0.718086 0.890374 -0.201272
H9    H     H_    0.524910 0.643648 0.815540 0.222525
H10   H     H_    0.703682 0.200241 0.989690 0.159329
H11   H     H_    0.986706 0.111450 0.670224 0.217035
H12   H     H_    0.194596 0.702254 0.988990 0.158379
C21   C     C_R   0.592655 0.722346 0.668628 -0.233017
C22   C     C_R   0.681533 0.206433 0.768990 -0.168903
C23   C     C_R   0.073883 0.207200 0.591229 -0.220244
C24   C     C_R   0.175125 0.709732 0.767848 -0.142284
H13   H     H_    0.540275 0.769173 0.669102 0.164631
H14   H     H_    0.612983 0.190190 0.783138 0.185818
H15   H     H_    0.021157 0.254224 0.585145 0.138789
H16   H     H_    0.106269 0.693699 0.779433 0.186836
C25   C     C_R   0.667841 0.733688 0.585380 0.102482
C26   C     C_R   0.718076 0.221381 0.635880 0.129896
C27   C     C_R   0.160149 0.227671 0.548898 0.107327
C28   C     C_R   0.213715 0.724253 0.636024 0.145024
C29   C     C_R   0.225997 0.162689 0.550409 0.039096
C30   C     C_R   0.294175 0.769186 0.632803 0.084391
C31   C     C_R   0.732380 0.667598 0.582262 0.048376
C32   C     C_R   0.798626 0.266067 0.630672 0.061018
C33   C     C_R   0.310781 0.181949 0.498838 -0.069990
C34   C     C_R   0.319603 0.808329 0.504993 -0.099270
C35   C     C_R   0.807570 0.678493 0.498041 -0.072638
C36   C     C_R   0.821785 0.306767 0.503566 -0.109525
C37   C     C_R   0.329359 0.263183 0.445068 -0.163758
C38   C     C_R   0.274134 0.788201 0.381446 -0.115542
C39   C     C_R   0.815741 0.750452 0.412366 -0.162672
C40   C     C_R   0.775343 0.287216 0.380673 -0.110833
H17   H     H_    0.760715 0.870664 0.348604 0.148593
H18   H     H_    0.676852 0.210254 0.283326 0.175852
H19   H     H_    0.281253 0.390593 0.406645 0.149737
H20   H     H_    0.176731 0.710446 0.282910 0.175215
C41   C     C_R   0.751995 0.814480 0.413745 -0.147047
C42   C     C_R   0.707504 0.228062 0.381785 -0.173449
C43   C     C_R   0.265353 0.327329 0.446372 -0.150876
C44   C     C_R   0.206246 0.729090 0.381800 -0.168088
C45   C     C_R   0.679306 0.807880 0.501425 -0.063963
C46   C     C_R   0.678357 0.193757 0.507899 -0.111577
C47   C     C_R   0.181810 0.310667 0.500164 -0.061760
C48   C     C_R   0.176101 0.695325 0.507608 -0.108307
H21   H     H_    0.361418 0.999149 0.126290 0.137876
H22   H     H_    0.861412 0.499163 0.126291 0.146278
C49   C     C_R   0.662924 0.000429 0.146726 -0.227066
C50   C     C_R   0.162977 0.500188 0.146601 -0.221208
H23   H     H_    0.671110 0.999824 0.256457 0.219101
H24   H     H_    0.171245 0.499607 0.256365 0.217910
C51   C     C_R   0.742511 0.001946 0.076539 -0.253410
C52   C     C_R   0.242515 0.501197 0.076187 -0.237825
H25   H     H_    0.803791 0.003226 0.136334 0.215005
H26   H     H_    0.303856 0.501990 0.135860 0.216321
C53   C     C_R   0.743496 0.002187 0.932141 0.326778
C54   C     C_R   0.243374 0.501440 0.931727 0.329019
C55   C     C_R   0.662855 0.999824 0.859297 -0.243667
C56   C     C_R   0.162727 0.499863 0.859099 -0.242692
H27   H     H_    0.668548 0.999312 0.749843 0.241456
H28   H     H_    0.168403 0.499396 0.749677 0.239890
C57   C     C_R   0.580100 0.999856 0.926905 0.149828
C58   C     C_R   0.080067 0.499944 0.926854 0.152396
C59   C     C_R   0.580072 0.000090 0.076245 0.235217
C60   C     C_R   0.080076 0.500082 0.076210 0.231787
N1    N     N_R   0.501200 0.000000 0.147910 -0.191900
N2    N     N_R   0.001200 0.500000 0.147910 -0.194342
C61   C     C_R   0.423848 0.999582 0.072337 0.007514
C62   C     C_R   0.923851 0.499578 0.072358 0.005139
H29   H     H_    0.361457 0.999167 0.867842 0.153786
H30   H     H_    0.861508 0.499144 0.868014 0.161114
C63   C     C_R   0.423878 0.999598 0.924392 -0.008547
C64   C     C_R   0.923897 0.499584 0.924443 -0.004188
N3    N     N_R   0.501270 0.000000 0.852040 -0.198879
N4    N     N_R   0.001270 0.500000 0.852040 -0.199231
N5    N     N_R   0.826138 0.006636 0.859156 0.142732
O17   O     O_R   0.900694 0.012505 0.927886 -0.296639
O18   O     O_R   0.827449 0.008436 0.723536 -0.372616
N6    N     N_R   0.325986 0.504336 0.858488 0.135234
O19   O     O_R   0.400709 0.506397 0.927163 -0.287280
O20   O     O_R   0.327412 0.506948 0.722903 -0.387888
N7    N     N_R   0.098416 0.975233 0.691287 0.130730
O21   O     O_R   0.161421 0.921205 0.724624 -0.393244
O22   O     O_R   0.016618 0.950729 0.701407 -0.278312
N8    N     N_R   0.367507 0.742583 0.008410 0.115022
O23   O     O_R   0.442414 0.783381 0.012331 -0.372392
O24   O     O_R   0.346660 0.694293 0.113594 -0.374869
N9    N     N_R   0.637195 0.507917 0.833926 0.128667
O25   O     O_R   0.684010 0.438908 0.810042 -0.393368
O26   O     O_R   0.586044 0.509532 0.941929 -0.287911
N10   N     N_R   0.876809 0.240705 0.003937 0.123262
O27   O     O_R   0.952531 0.280091 0.004009 -0.358160
O28   O     O_R   0.855347 0.196145 0.113052 -0.375511

loop_
_geom_bond_atom_site_label_1
_geom_bond_atom_site_label_2
_geom_bond_distance
_ccdc_geom_bond_type
H21   C61   1.081728 S    
C43   C47   1.395799 A    
C27   C29   1.411771 A    
H30   C64   1.080977 S    
C23   H15   1.077672 S    
Cu3   N1    2.028751 S    
O10   C6    1.296354 A    
H22   C62   1.081756 S    
H20   C44   1.083513 S    
N8    O23   1.301633 A    
C10   C30   1.419901 A    
Cu4   N2    2.028751 S    
C12   C32   1.419376 A    
O7    C3    1.308325 A    
C26   C46   1.427230 A    
Cu1   O10   1.959707 S    
N1    C61   1.367364 A    
H2    C38   1.082801 S    
C51   C53   1.385615 A    
Cu1   N3    2.027804 S    
H1    C37   1.084129 S    
C50   C52   1.386220 A    
O8    Cu4   1.959602 S    
O2    Cu1   1.955821 S    
C25   C31   1.411061 A    
O6    Cu3   1.959602 S    
C21   C25   1.409119 A    
C50   C60   1.415240 A    
Cu3   O14   1.956036 S    
C64   N4    1.367418 A    
C10   C14   1.399911 A    
C63   N3    1.367408 A    
C23   C27   1.408821 A    
C34   C38   1.398950 A    
C24   C28   1.418212 A    
C33   C37   1.395606 A    
O15   C7    1.310974 A    
O4    C4    1.294837 A    
C11   C15   1.399722 A    
C31   C35   1.413685 A    
C36   C40   1.398844 A    
C17   C21   1.394701 A    
C55   H27   1.054733 S    
C58   N4    1.382141 A    
C55   C57   1.415818 A    
C59   N1    1.383322 A    
C57   N3    1.382809 A    
C50   H24   1.058886 S    
C16   C18   1.394322 A    
C11   C31   1.415976 A    
N5    O18   1.301838 A    
C16   N10   1.438555 S    
C9    C29   1.413447 A    
C13   N7    1.438362 S    
C12   H8    1.076245 S    
O1    C1    1.291185 A    
C1    C34   1.466819 S    
C40   C42   1.382266 A    
C21   H13   1.070805 S    
C3    C36   1.464582 S    
C39   C41   1.379345 A    
N10   O28   1.301085 A    
O12   C8    1.297582 A    
Cu2   N4    2.027804 S    
C42   C46   1.399805 A    
C49   C51   1.385953 A    
C9    H5    1.081228 S    
C24   H16   1.078697 S    
C52   H26   1.083159 S    
C32   C36   1.422669 A    
C28   C30   1.407276 A    
C11   H7    1.079046 S    
O5    C1    1.311654 A    
Cu2   O12   1.959707 S    
C49   H23   1.058444 S    
C57   C59   1.432766 A    
H18   C42   1.083534 S    
H3    C39   1.084128 S    
C17   H9    1.082931 S    
O8    C4    1.294384 A    
C18   C22   1.392611 A    
C8    C47   1.447296 S    
C54   C56   1.396139 A    
C13   C19   1.400648 A    
C14   C20   1.392728 A    
C56   H28   1.054397 S    
C15   C17   1.398193 A    
O3    Cu2   1.971247 S    
C25   C45   1.419410 A    
O7    Cu4   1.975034 S    
C53   C55   1.397424 A    
C4    C35   1.443966 S    
Cu4   O15   1.971462 S    
Cu1   Cu3   2.698960 S    
N7    O21   1.301018 A    
Cu2   Cu4   2.698960 S    
Cu3   O13   1.971462 S    
C12   C16   1.399974 A    
O1    Cu1   1.971247 S    
N6    O20   1.301891 A    
N9    O25   1.301795 A    
O2    C2    1.293908 A    
C62   C64   1.419091 A    
O11   C7    1.292533 A    
C19   C23   1.394844 A    
C22   H14   1.078131 S    
C20   C24   1.391021 A    
O13   C5    1.312357 A    
C28   C48   1.424368 A    
C27   C47   1.414093 A    
C10   H6    1.069433 S    
Cu2   O11   1.975138 S    
O16   C8    1.293222 A    
C38   C44   1.382258 A    
N9    O26   1.300645 A    
N8    O24   1.300996 A    
H4    C40   1.082949 S    
C19   H11   1.082656 S    
N5    O17   1.301662 A    
C51   H25   1.083143 S    
N10   O27   1.301647 A    
C14   N8    1.438340 S    
C22   C26   1.417661 A    
C18   H10   1.083034 S    
C26   C32   1.407300 A    
C9    C13   1.402332 A    
C15   N9    1.438933 S    
O9    C5    1.291898 A    
C35   C39   1.395021 A    
C30   C34   1.427229 A    
C44   C48   1.399102 A    
C58   C60   1.432908 A    
C6    C45   1.451983 S    
C29   C33   1.413274 A    
C52   C54   1.386171 A    
C5    C46   1.469462 S    
C60   N2    1.383539 A    
C56   C58   1.415199 A    
C54   N6    1.441094 S    
O4    Cu2   1.955821 S    
C7    C48   1.467710 S    
N2    C62   1.367221 A    
O5    Cu3   1.975034 S    
O3    C3    1.293309 A    
O6    C2    1.295520 A    
C53   N5    1.441404 S    
Cu1   O9    1.975138 S    
H19   C43   1.084202 S    
C2    C33   1.444679 S    
C20   H12   1.083080 S    
Cu4   O16   1.956036 S    
H17   C41   1.083585 S    
O14   C6    1.297286 A    
N7    O22   1.300792 A    
C61   C63   1.419378 A    
N6    O19   1.300364 A    
C37   C43   1.383372 A    
C41   C45   1.396256 A    
H29   C63   1.081962 S    
C49   C59   1.415033 A    
