data_mof_unit_68153.cif
_audit_creation_date              2012-12-11T16:25:26-0500
_audit_creation_method            fapswitch 2.2
_symmetry_space_group_name_H-M    P1
_symmetry_Int_Tables_number       1
_space_group_crystal_system       triclinic
_cell_length_a                    20.713759
_cell_length_b                    7.403399
_cell_length_c                    13.344395
_cell_angle_alpha                 89.930709
_cell_angle_beta                  103.215483
_cell_angle_gamma                 90.232346
_cell_volume                      1992.18188092

loop_
_atom_site_label
_atom_site_type_symbol
_atom_type_description
_atom_site_fract_x
_atom_site_fract_y
_atom_site_fract_z
_atom_type_partial_charge
O1    O     O_R   0.449520 0.506760 0.599710 -0.525734
O2    O     O_R   0.550480 0.006760 0.400290 -0.551253
O3    O     O_R   0.587930 0.180200 0.595790 -0.533459
O4    O     O_R   0.412070 0.680200 0.404210 -0.520124
C1    C     C_R   0.616144 0.344194 0.611153 0.728697
C2    C     C_R   0.386635 0.843739 0.381091 0.788608
O5    O     O_R   0.452350 0.177380 0.611700 -0.547223
O6    O     O_R   0.547650 0.677380 0.388300 -0.542999
O7    O     O_R   0.413930 0.001760 0.416320 -0.535612
O8    O     O_R   0.586070 0.501760 0.583680 -0.523489
C3    C     C_R   0.435947 0.345372 0.637077 0.817575
C4    C     C_R   0.562215 0.846007 0.361202 0.816491
O9    O     O_3   0.487550 0.337460 0.435880 -0.406871
O10   O     O_3   0.512450 0.837460 0.564120 -0.386050
V1    V     V_3+5 0.502310 0.064670 0.511900 1.470861
V2    V     V_3+5 0.497690 0.564670 0.488100 1.504382
C5    C     C_R   0.608769 0.901026 0.105240 -0.047043
C6    C     C_R   0.386209 0.377451 0.891933 -0.024036
C7    C     C_R   0.602722 0.857838 0.283818 -0.221994
C8    C     C_R   0.393598 0.354401 0.713092 -0.234027
C9    C     C_R   0.922000 0.816055 0.315308 -0.123862
C10   C     C_R   0.071132 0.396688 0.683846 -0.235589
C11   C     C_R   0.888852 0.786662 0.393124 -0.055300
C12   C     C_R   0.102451 0.380786 0.602669 -0.108753
C13   C     C_R   0.818867 0.789081 0.371379 0.404439
C14   C     C_R   0.171293 0.338579 0.621078 0.379966
C15   C     C_R   0.783016 0.836122 0.268496 -0.012010
C16   C     C_R   0.210357 0.345868 0.725694 0.026164
C17   C     C_R   0.819822 0.857587 0.189609 -0.072793
C18   C     C_R   0.174909 0.345577 0.806366 -0.054875
C19   C     C_R   0.711753 0.861121 0.240384 -0.020808
C20   C     C_R   0.282816 0.355172 0.754345 -0.030208
C21   C     C_R   0.678960 0.874719 0.133460 -0.082108
C22   C     C_R   0.315875 0.350690 0.861862 -0.077960
C23   C     C_R   0.716368 0.863152 0.056812 0.432204
C24   C     C_R   0.278453 0.323429 0.937532 0.433350
C25   C     C_R   0.785864 0.866954 0.086499 -0.258536
C26   C     C_R   0.209247 0.324400 0.908463 -0.271607
C27   C     C_R   0.671739 0.881410 0.314335 -0.008934
C28   C     C_R   0.324285 0.378513 0.682000 -0.109931
C29   C     C_R   0.571259 0.880944 0.180350 0.405043
C30   C     C_R   0.424126 0.373641 0.816825 0.434536
C31   C     C_R   0.890367 0.853854 0.213812 -0.110546
C32   C     C_R   0.104863 0.364333 0.784169 -0.069625
H1    H     H_    0.973357 0.792513 0.335186 0.201864
H2    H     H_    0.018952 0.431434 0.668399 0.118755
H3    H     H_    0.814145 0.862289 0.027921 0.124533
H4    H     H_    0.181589 0.302406 0.966892 0.130355
C33   C     C_R   0.234820 0.870154 0.037026 -0.227273
C34   C     C_R   0.768224 0.402829 0.956869 -0.238365
C35   C     C_R   0.290737 0.863136 0.995104 0.065940
C36   C     C_R   0.712628 0.406288 0.999741 0.056093
C37   C     C_R   0.352159 0.821742 0.057851 -0.070148
C38   C     C_R   0.649923 0.377608 0.937052 -0.068788
C39   C     C_R   0.359367 0.803422 0.163060 -0.217820
C40   C     C_R   0.641829 0.355818 0.831605 -0.193054
C41   C     C_R   0.305698 0.833086 0.209029 0.029264
C42   C     C_R   0.696445 0.360616 0.785419 0.035102
C43   C     C_R   0.241024 0.852762 0.144308 0.072991
C44   C     C_R   0.761535 0.374364 0.850098 0.055066
C45   C     C_R   0.316662 0.846233 0.317379 -0.106156
C46   C     C_R   0.686470 0.353256 0.676730 -0.093857
C47   C     C_R   0.261062 0.859641 0.363431 -0.044848
C48   C     C_R   0.743838 0.345009 0.633496 -0.077844
C49   C     C_R   0.195502 0.855119 0.298060 -0.069172
C50   C     C_R   0.807683 0.313820 0.700209 0.001165
C51   C     C_R   0.184559 0.857255 0.187047 -0.119718
C52   C     C_R   0.818153 0.349938 0.808727 -0.100375
C53   C     C_R   0.269594 0.868427 0.473626 0.349711
C54   C     C_R   0.739616 0.370387 0.526117 0.356024
C55   C     C_R   0.212652 0.889094 0.516055 0.368361
C56   C     C_R   0.796455 0.341095 0.484673 0.461878
C57   C     C_R   0.149548 0.896279 0.449542 -0.118200
C58   C     C_R   0.856684 0.281715 0.550045 -0.230049
C59   C     C_R   0.142117 0.848709 0.346228 -0.128609
C60   C     C_R   0.859613 0.253235 0.655480 -0.205885
H5    H     H_    0.187252 0.897127 0.985686 0.091423
H6    H     H_    0.816543 0.420045 0.008133 0.103066
H7    H     H_    0.395339 0.809233 0.025619 0.206756
H8    H     H_    0.606833 0.374155 0.969950 0.205629
H9    H     H_    0.407863 0.769440 0.208490 0.145782
H10   H     H_    0.592261 0.333821 0.786369 0.150267
O11   O     O_R   0.913760 0.203480 0.916370 -0.519621
O12   O     O_R   0.086240 0.703480 0.083630 -0.520389
O13   O     O_R   0.047590 0.535230 0.888250 -0.538935
O14   O     O_R   0.952410 0.035230 0.111750 -0.534482
C61   C     C_R   0.065583 0.369420 0.864495 0.656906
C62   C     C_R   0.932103 0.867980 0.133988 0.679470
O15   O     O_R   0.912020 0.532880 0.904260 -0.536723
O16   O     O_R   0.087980 0.032880 0.095740 -0.547177
O17   O     O_R   0.949590 0.708460 0.099750 -0.525857
O18   O     O_R   0.050410 0.208460 0.900250 -0.545238
C63   C     C_R   0.887020 0.363434 0.879572 0.654594
C64   C     C_R   0.115274 0.865637 0.114780 0.639443
O19   O     O_3   0.012370 0.375360 0.064120 -0.366399
O20   O     O_3   0.987630 0.875360 0.935880 -0.361082
V3    V     V_3+5 0.997700 0.648160 0.988110 1.512613
V4    V     V_3+5 0.002300 0.148160 0.011890 1.487415
O21   O     O_3   0.503175 0.898276 0.153296 -0.564966
C65   C     C_3   0.485121 0.078065 0.170097 -0.176928
H11   H     H_    0.443675 0.116710 0.105649 0.224347
H12   H     H_    0.525698 0.179662 0.174967 0.152725
H13   H     H_    0.465736 0.085085 0.240747 0.123795
O22   O     O_3   0.491454 0.407872 0.844010 -0.564914
C66   C     C_3   0.502847 0.595983 0.837047 -0.187973
H14   H     H_    0.544038 0.635350 0.901970 0.214188
H15   H     H_    0.459556 0.682913 0.840966 0.158723
H16   H     H_    0.519202 0.626412 0.765377 0.139535
C67   C     C_2   0.285916 0.914068 0.887603 0.338331
H17   H     H_    0.239213 0.960737 0.841404 0.083807
O23   O     O_2   0.335109 0.917146 0.851995 -0.552300
C68   C     C_2   0.720316 0.444202 0.109970 0.336595
H18   H     H_    0.767998 0.487559 0.155342 0.078708
O24   O     O_2   0.673299 0.432841 0.150641 -0.545095
O25   O     O_3   0.333316 0.834088 0.533223 -0.576430
C69   C     C_3   0.347953 0.891533 0.635838 -0.022877
H19   H     H_    0.328406 0.792804 0.683509 0.154698
H20   H     H_    0.330999 0.031082 0.643329 0.194153
H21   H     H_    0.402479 0.889503 0.665062 0.143505
O26   O     O_3   0.687674 0.473985 0.470667 -0.531913
C70   C     C_3   0.650226 0.380896 0.384434 -0.019871
H22   H     H_    0.679143 0.294393 0.344695 0.106313
H23   H     H_    0.626133 0.480514 0.326205 0.183300
H24   H     H_    0.610991 0.299910 0.406854 0.119819
O27   O     O_3   0.219120 0.923017 0.620387 -0.547726
C71   C     C_3   0.188026 0.787623 0.667702 -0.323834
H25   H     H_    0.226254 0.707559 0.720333 0.143334
H26   H     H_    0.155988 0.695306 0.613308 0.157641
H27   H     H_    0.156398 0.851940 0.714175 0.164881
O28   O     O_3   0.793877 0.396294 0.383813 -0.510088
C72   C     C_3   0.804642 0.253931 0.319129 -0.120481
H28   H     H_    0.757298 0.209124 0.269078 0.105760
H29   H     H_    0.830105 0.136259 0.360527 0.109980
H30   H     H_    0.836389 0.303696 0.268338 0.178633
C73   C     C_2   0.079253 0.774517 0.291694 0.512504
H31   H     H_    0.043425 0.868489 0.251146 0.021231
O29   O     O_2   0.069835 0.611622 0.285201 -0.526953
C74   C     C_2   0.911169 0.130830 0.713296 0.444166
H32   H     H_    0.963269 0.161610 0.722416 0.022585
O30   O     O_2   0.895034 0.989553 0.748259 -0.517751
O31   O     O_3   0.683400 0.817553 0.956435 -0.571950
C75   C     C_3   0.713928 0.886863 0.880045 -0.252882
H33   H     H_    0.752957 0.793104 0.867145 0.171149
H34   H     H_    0.734436 0.024583 0.898868 0.144402
H35   H     H_    0.675961 0.896364 0.806652 0.176339
O32   O     O_3   0.310599 0.265670 0.035810 -0.566975
C76   C     C_3   0.283974 0.342966 0.114388 -0.282820
H36   H     H_    0.243115 0.257459 0.129628 0.165297
H37   H     H_    0.266802 0.483985 0.096699 0.144495
H38   H     H_    0.323416 0.346819 0.186313 0.172940
C77   C     C_2   0.574929 0.970773 0.001253 0.476749
H39   H     H_    0.602776 0.041562 0.954136 0.072278
O33   O     O_2   0.515258 0.954483 0.967419 -0.511409
C78   C     C_2   0.420329 0.430126 0.999317 0.436007
H40   H     H_    0.392852 0.485474 0.051462 0.069582
O34   O     O_2   0.480252 0.416679 0.030933 -0.515656
C79   C     C_2   0.698649 0.971256 0.414762 0.402989
H41   H     H_    0.744087 0.044023 0.425041 -0.013346
O35   O     O_2   0.673223 0.959604 0.488474 -0.536094
C80   C     C_2   0.299805 0.470600 0.582793 0.497507
H42   H     H_    0.259919 0.564919 0.576345 0.028317
O36   O     O_2   0.321732 0.439768 0.507024 -0.529638
O37   O     O_3   0.784466 0.717162 0.441269 -0.523106
C81   C     C_3   0.807093 0.774351 0.545237 -0.134390
H43   H     H_    0.830527 0.910069 0.552074 0.119643
H44   H     H_    0.839564 0.672075 0.591649 0.113319
H45   H     H_    0.764565 0.779925 0.582389 0.205591
O38   O     O_3   0.198770 0.257162 0.545878 -0.557613
C82   C     C_3   0.179762 0.329942 0.444914 -0.230731
H46   H     H_    0.173541 0.478937 0.444117 0.151236
H47   H     H_    0.135790 0.260515 0.398501 0.153150
H48   H     H_    0.219220 0.299810 0.403708 0.190340
C83   C     C_2   0.929915 0.741142 0.495648 0.487432
H49   H     H_    0.925675 0.611368 0.529775 0.090146
O39   O     O_2   0.967765 0.851752 0.545177 -0.543701
C84   C     C_2   0.062969 0.434738 0.501774 0.382428
H50   H     H_    0.044961 0.338349 0.441795 0.169026
O40   O     O_2   0.050873 0.593319 0.484224 -0.532765
C85   C     C_2   0.092236 0.968596 0.486880 0.491415
H51   H     H_    0.094379 0.987335 0.567817 0.114951
O41   O     O_2   0.042701 0.021490 0.426412 -0.567957
C86   C     C_2   0.918554 0.258509 0.511693 0.344826
H52   H     H_    0.959973 0.182454 0.554892 0.107797
O42   O     O_2   0.925844 0.331522 0.433152 -0.524830

loop_
_geom_bond_atom_site_label_1
_geom_bond_atom_site_label_2
_ccdc_geom_bond_type
C42   C46   A    
C50   C52   A    
C47   C49   A    
C79   H41   S    
C15   C17   A    
C57   C59   A    
C82   H46   S    
C76   H36   S    
O1    C3    A    
C72   H30   S    
O2    C4    A    
C2    O7    A    
C68   O24   D    
O19   V4    S    
O18   V4    S    
C73   H31   S    
C72   H29   S    
C83   H49   S    
O5    C3    A    
C66   H15   S    
C14   O38   S    
C71   H25   S    
C58   C60   A    
C31   C62   S    
C2    C45   S    
C81   H43   S    
C76   H37   S    
C12   C14   A    
C67   O23   D    
C8    C28   A    
O14   C62   A    
C41   C43   A    
C36   C68   S    
C42   C44   A    
O25   C69   S    
O11   C63   A    
C69   H19   S    
C18   C26   A    
C53   C55   A    
O6    V2    S    
C45   C47   A    
C86   H52   S    
O22   C66   S    
C70   H24   S    
C46   C48   A    
C6    C30   A    
C43   C51   A    
C9    C31   A    
C10   C32   A    
C47   C53   A    
C33   H5    S    
C49   C51   A    
O11   V4    S    
C51   C64   S    
C34   C36   A    
C77   H39   S    
C29   O21   S    
C48   C54   A    
C25   H3    S    
C32   C61   S    
C78   O34   D    
C6    C78   S    
C37   C39   A    
C79   O35   D    
C61   O18   A    
C27   C79   S    
C82   H47   S    
C75   H35   S    
C18   C32   A    
C5    C77   S    
C5    C21   A    
C34   H6    S    
C68   H18   S    
C36   C38   A    
O16   C64   A    
C9    H1    S    
C83   O39   D    
C66   H16   S    
C38   C40   A    
C3    C8    S    
C19   C21   A    
O13   C61   A    
C15   C19   A    
C16   C20   A    
C76   H38   S    
C56   C58   A    
C54   O26   S    
C55   C57   A    
O5    V1    S    
C71   H27   S    
C33   C35   A    
C65   H13   S    
O15   V3    S    
C35   C37   A    
C20   C22   A    
O4    V2    S    
C39   C41   A    
O21   C65   S    
C62   O17   A    
O6    C4    A    
C50   C60   A    
O20   V3    S    
C65   H12   S    
C78   H40   S    
O1    V2    S    
O12   C64   A    
O17   V3    S    
C41   C45   A    
O2    V1    S    
C6    C22   A    
C48   C50   A    
C70   H22   S    
C7    C27   A    
C40   H10   S    
C69   H20   S    
C58   C86   S    
C24   O32   S    
O38   C82   S    
C10   H2    S    
C23   O31   S    
C11   C83   S    
C9    C11   A    
C38   H8    S    
O27   C71   S    
C82   H48   S    
C10   C12   A    
O4    C2    A    
C39   H9    S    
O12   V3    S    
C72   H28   S    
C12   C84   S    
C20   C28   A    
O3    V1    S    
O26   C70   S    
O32   C76   S    
C66   H14   S    
C73   O29   D    
C84   H50   S    
C71   H26   S    
C86   O42   D    
C23   C25   A    
O10   V1    S    
C26   H4    S    
C28   C80   S    
C81   H45   S    
O3    C1    A    
C30   O22   S    
C8    C30   A    
C56   O28   S    
C74   O30   D    
C60   C74   S    
C13   C15   A    
C53   O25   S    
C14   C16   A    
C52   C63   S    
C33   C43   A    
C69   H21   S    
C34   C44   A    
C80   H42   S    
C81   H44   S    
O28   C72   S    
O7    V1    S    
C16   C18   A    
O8    V2    S    
C67   H17   S    
C24   C26   A    
C59   C73   S    
C13   O37   S    
C37   H7    S    
C4    C7    S    
C84   O40   D    
C65   H11   S    
C21   C23   A    
C22   C24   A    
C40   C42   A    
C1    C46   S    
C75   H34   S    
C77   O33   D    
O15   C63   A    
O14   V4    S    
C5    C29   A    
C70   H23   S    
O37   C81   S    
O13   V3    S    
C74   H32   S    
C85   H51   S    
C57   C85   S    
C1    O8    A    
C11   C13   A    
C44   C52   A    
C35   C67   S    
O9    V2    S    
C17   C25   A    
C19   C27   A    
C75   H33   S    
C55   O27   S    
C54   C56   A    
O31   C75   S    
O16   V4    S    
C17   C31   A    
C49   C59   A    
C7    C29   A    
C80   O36   D    
C85   O41   D    
