data_mof_unit_18319.cif
_audit_creation_date              2012-12-10T16:50:17-0500
_audit_creation_method            fapswitch 2.2
_symmetry_space_group_name_H-M    P1
_symmetry_Int_Tables_number       1
_space_group_crystal_system       triclinic
_cell_length_a                    23.487868
_cell_length_b                    8.779789
_cell_length_c                    7.524378
_cell_angle_alpha                 102.765902
_cell_angle_beta                  95.231529
_cell_angle_gamma                 93.57894
_cell_volume                      1501.55033054

loop_
_atom_site_label
_atom_site_type_symbol
_atom_type_description
_atom_site_fract_x
_atom_site_fract_y
_atom_site_fract_z
_atom_type_partial_charge
C1    C     C_R   0.497331 0.200409 0.454439 0.846182
C2    C     C_R   0.502669 0.799591 0.545561 0.846182
C3    C     C_R   0.244906 0.652932 0.525765 0.205513
C4    C     C_R   0.755093 0.347067 0.474234 0.205514
C5    C     C_R   0.304741 0.647446 0.553128 0.049058
C6    C     C_R   0.695259 0.352554 0.446872 0.049058
C7    C     C_R   0.328854 0.503919 0.498068 -0.227854
C8    C     C_R   0.671146 0.496081 0.501932 -0.227854
C9    C     C_R   0.293144 0.371865 0.401032 0.179279
C10   C     C_R   0.706856 0.628135 0.598968 0.179279
C11   C     C_R   0.233661 0.379968 0.377759 0.290605
C12   C     C_R   0.766339 0.620032 0.622240 0.290605
C13   C     C_R   0.208925 0.511051 0.477943 0.052790
C14   C     C_R   0.791075 0.488949 0.522057 0.052790
C15   C     C_2   0.489898 0.033670 0.432066 -0.040482
C16   C     C_2   0.510102 0.966330 0.567934 -0.040482
C17   C     C_R   0.391290 0.500492 0.500473 0.879835
C18   C     C_R   0.608710 0.499508 0.499526 0.879836
C19   C     C_R   0.883990 0.637573 0.517877 0.671050
C20   C     C_R   0.116009 0.362427 0.482122 0.671050
C21   C     C_R   0.874962 0.371695 0.383027 0.626833
C22   C     C_R   0.125038 0.628305 0.616973 0.626833
C23   C     C_R   0.934960 0.361774 0.403464 -0.122199
C24   C     C_R   0.065040 0.638226 0.596535 -0.122199
C25   C     C_R   0.969891 0.500592 0.489691 -0.076843
C26   C     C_R   0.030109 0.499408 0.510309 -0.076842
C27   C     C_R   0.944293 0.642286 0.547290 -0.111479
C28   C     C_R   0.055707 0.357714 0.452710 -0.111479
C29   C     C_R   0.960743 0.219873 0.343080 0.201439
C30   C     C_R   0.039257 0.780126 0.656919 0.201439
C31   C     C_R   0.020932 0.218284 0.366842 0.244816
C32   C     C_R   0.979068 0.781716 0.633157 0.244816
Cu1   Cu    Cu3+1 0.506340 0.517380 0.684380 1.104718
Cu2   Cu    Cu3+1 0.493660 0.482620 0.315620 1.104718
N1    N     N_R   0.851365 0.497368 0.483104 -0.442858
N2    N     N_R   0.148635 0.502632 0.516896 -0.442858
N3    N     N_2   0.484110 0.456420 0.038520 0.001204
N4    N     N_2   0.515890 0.543580 0.961480 0.001204
O1    O     O_R   0.504120 0.286130 0.619770 -0.580795
O2    O     O_R   0.495880 0.713870 0.380230 -0.580795
O3    O     O_R   0.493410 0.256770 0.308360 -0.548582
O4    O     O_R   0.506590 0.743230 0.691640 -0.548582
O5    O     O_R   0.423230 0.514630 0.655730 -0.568584
O6    O     O_R   0.576770 0.485370 0.344270 -0.568584
O7    O     O_R   0.412530 0.485280 0.344320 -0.555244
O8    O     O_R   0.587470 0.514720 0.655680 -0.555244
O9    O     O_2   0.858512 0.768457 0.505415 -0.427072
O10   O     O_2   0.141487 0.231543 0.494585 -0.427072
O11   O     O_2   0.841380 0.267126 0.251626 -0.452782
O12   O     O_2   0.158620 0.732874 0.748373 -0.452782
I1    I     I_    0.911097 0.999035 0.234131 0.020216
I2    I     I_    0.088903 0.000965 0.765869 0.020216
Br1   Br    Br    0.054455 0.026602 0.261668 -0.324253
Br2   Br    Br    0.945545 0.973398 0.738332 -0.324252
I3    I     I_    0.214242 0.859997 0.456456 0.011920
I4    I     I_    0.785758 0.140003 0.543544 0.011920
I5    I     I_    0.358342 0.857959 0.663777 -0.150623
I6    I     I_    0.641657 0.142041 0.336223 -0.150623
Br3   Br    Br    0.325047 0.179903 0.296724 -0.338420
Br4   Br    Br    0.674952 0.820097 0.703275 -0.338420
Br5   Br    Br    0.191666 0.244604 0.161809 -0.270359
Br6   Br    Br    0.808334 0.755396 0.838191 -0.270359
I7    I     I_    0.438254 0.916527 0.181448 -0.118579
I8    I     I_    0.561746 0.083473 0.818551 -0.118579
I9    I     I_    0.416717 0.297053 0.901268 -0.028451
I10   I     I_    0.583283 0.702947 0.098732 -0.028451

loop_
_geom_bond_atom_site_label_1
_geom_bond_atom_site_label_2
_ccdc_geom_bond_type
C7    C17   S    
C10   Br4   S    
C17   O5    A    
C2    O2    A    
N3    N4    D    
C21   N1    A    
C18   O6    A    
C25   C27   A    
Cu2   N3    S    
C2    C16   S    
C6    I6    S    
C26   C28   A    
Cu1   N4    S    
C3    C13   A    
C5    I5    S    
C22   O12   S    
C7    C9    A    
C3    C5    A    
C21   O11   S    
Cu1   Cu2   S    
C27   C32   A    
Cu2   O6    S    
C29   C31   A    
Cu2   O7    S    
C19   N1    A    
C31   Br1   S    
C30   C32   A    
Cu1   O8    S    
C9    C11   A    
C20   O10   S    
Cu2   O3    S    
C10   C12   A    
C2    O4    A    
C1    C15   S    
Cu1   O4    S    
C18   O8    A    
C32   Br2   S    
C19   C27   A    
C24   C26   A    
C8    C18   S    
C22   C24   A    
C21   C23   A    
C4    C14   A    
Cu2   O2    S    
C24   C30   A    
C28   C31   A    
C12   Br6   S    
C1    O1    A    
C15   C16   D    
C20   N2    A    
C20   C28   A    
C23   C29   A    
C12   C14   A    
C11   C13   A    
C23   C25   A    
C22   N2    A    
C13   N2    S    
C4    C6    A    
C29   I1    S    
C19   O9    S    
C1    O3    A    
C14   N1    S    
C5    C7    A    
C15   I7    S    
C6    C8    A    
C16   I8    S    
C9    Br3   S    
C25   C26   A    
C3    I3    S    
Cu1   O1    S    
C8    C10   A    
C4    I4    S    
N4    I10   S    
N3    I9    S    
C17   O7    A    
C30   I2    S    
C11   Br5   S    
Cu1   O5    S    
