data_mof_unit_13521.cif
_audit_creation_date              2013-03-05T15:51:49-0500
_audit_creation_method            fapswitch 2.2
_symmetry_space_group_name_H-M    P1
_symmetry_Int_Tables_number       1
_space_group_crystal_system       triclinic
_cell_length_a                    10.99934
_cell_length_b                    10.988465
_cell_length_c                    18.824618
_cell_angle_alpha                 90.507584
_cell_angle_beta                  89.882542
_cell_angle_gamma                 60.231018
_cell_volume                      1974.86640701

loop_
_atom_site_label
_atom_site_type_symbol
_atom_site_description
_atom_site_fract_x
_atom_site_fract_y
_atom_site_fract_z
_atom_type_partial_charge
O1    O     O_R   0.507380 0.255700 0.581440 -0.535589
O2    O     O_R   0.280320 0.527350 0.578930 -0.509128
C1    C     C_R   0.239509 0.645824 0.610300 0.531579
O3    O     O_R   0.260510 0.739590 0.584590 -0.537738
O4    O     O_R   0.532300 0.695080 0.573820 -0.516387
C2    C     C_R   0.653280 0.622069 0.600974 0.530080
O5    O     O_R   0.744840 0.503500 0.576370 -0.535529
O6    O     O_R   0.699120 0.276560 0.571960 -0.504955
C3    C     C_R   0.630358 0.224870 0.601088 0.535686
O7    O     O_R   0.498940 0.256500 0.419860 -0.520162
O8    O     O_R   0.272500 0.528080 0.429150 -0.518262
C4    C     C_R   0.217931 0.651501 0.402950 0.571201
O9    O     O_R   0.252060 0.740380 0.423010 -0.448771
O10   O     O_R   0.524480 0.695810 0.424040 -0.424855
C5    C     C_R   0.645576 0.624288 0.393629 0.559680
O11   O     O_R   0.736390 0.504290 0.414790 -0.532224
O12   O     O_R   0.691300 0.277290 0.422170 -0.505611
C6    C     C_R   0.617180 0.228379 0.395185 0.554286
Cr1   Cr    Cr6+3 0.392960 0.397920 0.502240 1.011789
Cr2   Cr    Cr6+3 0.398340 0.708480 0.501250 1.077364
Cr3   Cr    Cr6+3 0.708670 0.393570 0.496460 1.011892
O13   O     O_3   0.499990 0.499990 0.499980 -0.258196
C7    C     C_3   0.588934 0.815703 0.780003 -0.231623
H1    H     H_    0.625908 0.891285 0.789003 0.147333
H2    H     H_    0.485169 0.856996 0.806661 0.122398
C8    C     C_3   0.573632 0.801625 0.699529 -0.245646
H3    H     H_    0.461933 0.837649 0.687580 0.131495
H4    H     H_    0.603943 0.869789 0.669930 0.117789
H5    H     H_    0.874824 0.698086 0.779806 0.132022
H6    H     H_    0.853507 0.670299 0.661652 0.117963
C9    C     C_3   0.838455 0.620887 0.771781 -0.220126
C10   C     C_3   0.645523 0.567630 0.800953 -0.250562
C11   C     C_3   0.697879 0.672534 0.812342 0.047736
H7    H     H_    0.722228 0.463561 0.822299 0.123793
H8    H     H_    0.544763 0.603900 0.829897 0.121179
C12   C     C_3   0.668268 0.646923 0.676499 0.062160
C13   C     C_3   0.822016 0.604132 0.692375 -0.241199
C14   C     C_3   0.624476 0.555139 0.720895 -0.215008
H9    H     H_    0.512604 0.588362 0.711048 0.128459
H10   H     H_    0.685698 0.443732 0.704275 0.137919
H11   H     H_    0.919666 0.517956 0.792476 0.138510
H12   H     H_    0.894056 0.493052 0.676614 0.131990
C15   C     C_R   0.690430 0.139089 0.820844 0.016171
C16   C     C_R   0.794567 0.142678 0.780274 0.015658
C17   C     C_R   0.786931 0.152709 0.708054 0.018616
C18   C     C_R   0.576011 0.141816 0.709076 -0.185803
C19   C     C_R   0.578038 0.142301 0.782537 -0.178956
C20   C     C_3   0.928342 0.145243 0.783568 -0.278931
C21   C     C_3   0.919343 0.158176 0.701991 -0.277203
C22   C     C_R   0.673925 0.160615 0.670206 0.015362
H13   H     H_    0.489538 0.138550 0.683465 0.134434
H14   H     H_    0.493036 0.136755 0.808526 0.142367
H15   H     H_    0.015928 0.044926 0.802379 0.154275
H16   H     H_    0.917048 0.240071 0.811089 0.125055
H17   H     H_    0.903422 0.259997 0.682527 0.141034
H18   H     H_    0.002846 0.064661 0.673701 0.141360
C23   C     C_R   0.177511 0.669944 0.834351 0.016642
C24   C     C_R   0.152361 0.577926 0.793535 0.018218
C25   C     C_R   0.160849 0.575781 0.719851 -0.004870
C26   C     C_R   0.210660 0.765728 0.725342 -0.167128
C27   C     C_R   0.207671 0.763729 0.799099 -0.171089
C28   C     C_3   0.227210 0.421918 0.796792 -0.282517
C29   C     C_3   0.233824 0.420091 0.716416 -0.271649
C30   C     C_R   0.193089 0.667349 0.684389 0.017309
H19   H     H_    0.236425 0.838971 0.700946 0.130395
H20   H     H_    0.224722 0.839021 0.828535 0.127828
H21   H     H_    0.160370 0.381123 0.818226 0.134287
H22   H     H_    0.330780 0.379986 0.822683 0.142738
H23   H     H_    0.341098 0.376961 0.694977 0.178183
H24   H     H_    0.168972 0.380470 0.690875 0.126581
C31   C     C_R   0.661428 0.675809 0.171057 0.047477
C32   C     C_R   0.733666 0.544246 0.203209 0.030006
C33   C     C_R   0.736208 0.533316 0.276288 0.058810
C34   C     C_R   0.597136 0.784068 0.289341 -0.088455
C35   C     C_R   0.590914 0.795447 0.215097 -0.075297
C36   C     C_3   0.886719 0.437982 0.197582 -0.272278
C37   C     C_3   0.889623 0.430892 0.277111 -0.279491
C38   C     C_R   0.667003 0.651524 0.320309 0.035503
H25   H     H_    0.545562 0.877306 0.322227 0.164137
H26   H     H_    0.538705 0.897938 0.191944 0.160868
H27   H     H_    0.950897 0.481254 0.176973 0.169014
H28   H     H_    0.907197 0.339493 0.170762 0.137660
H29   H     H_    0.918041 0.326506 0.297397 0.140311
H30   H     H_    0.949228 0.476428 0.302076 0.134472
C39   C     C_R   0.649910 0.154779 0.176505 0.032782
C40   C     C_R   0.561550 0.124848 0.216355 0.011604
C41   C     C_R   0.561300 0.130996 0.289451 -0.001935
C42   C     C_R   0.753039 0.177678 0.285253 -0.162768
C43   C     C_R   0.747122 0.179618 0.211479 -0.154138
C44   C     C_3   0.406110 0.195545 0.212001 -0.274970
C45   C     C_3   0.404813 0.202222 0.291968 -0.263800
C46   C     C_R   0.652426 0.165100 0.325013 0.020826
H31   H     H_    0.827356 0.198558 0.311385 0.119982
H32   H     H_    0.817612 0.200284 0.181059 0.118184
H33   H     H_    0.367196 0.126920 0.190467 0.178181
H34   H     H_    0.361557 0.299468 0.186394 0.145030
H35   H     H_    0.359217 0.310468 0.312323 0.174703
H36   H     H_    0.365673 0.137348 0.317300 0.185075
C47   C     C_R   0.105833 0.697945 0.190635 0.063770
C48   C     C_R   0.076160 0.816766 0.231053 0.011621
C49   C     C_R   0.091569 0.810792 0.303132 -0.033080
C50   C     C_R   0.133307 0.574297 0.300627 -0.166729
C51   C     C_R   0.124158 0.578855 0.226402 -0.168582
C52   C     C_3   0.110878 0.931268 0.221633 0.136464
C53   C     C_3   0.132100 0.923857 0.301605 0.124816
C54   C     C_R   0.136702 0.683392 0.338305 0.028036
H37   H     H_    0.151747 0.480648 0.327686 0.117882
H38   H     H_    0.139345 0.487596 0.197188 0.111383
H39   H     H_    0.021017 0.030426 0.205064 0.089813
H40   H     H_    0.057463 0.021075 0.330782 0.061639
O14   O     O_R   0.089400 0.825690 0.930570 -0.515979
O15   O     O_R   0.818460 0.054440 0.929850 -0.497343
C55   C     C_R   0.703168 0.098762 0.895275 0.539931
O16   O     O_R   0.606060 0.077150 0.915510 -0.536486
O17   O     O_R   0.646550 0.806680 0.917570 -0.507069
C56   C     C_R   0.722790 0.687275 0.888492 0.543628
O18   O     O_R   0.837170 0.593410 0.915250 -0.525879
O19   O     O_R   0.065200 0.635530 0.931570 -0.500798
C57   C     C_R   0.118309 0.706059 0.905814 0.547683
O20   O     O_R   0.068260 0.828890 0.091840 -0.465231
O21   O     O_R   0.798870 0.057410 0.079340 -0.513378
C58   C     C_R   0.674281 0.107569 0.103724 0.539657
O22   O     O_R   0.584930 0.080350 0.076780 -0.515204
O23   O     O_R   0.626960 0.809650 0.067060 -0.484883
C59   C     C_R   0.697828 0.691861 0.098623 0.553359
O24   O     O_R   0.816040 0.596610 0.076510 -0.533800
O25   O     O_R   0.045610 0.638500 0.081060 -0.527006
C60   C     C_R   0.084565 0.714581 0.114981 0.573401
Cr4   Cr    Cr6+3 0.937650 0.938540 0.007610 1.045509
Cr5   Cr    Cr6+3 0.625330 0.937370 0.994520 1.030663
Cr6   Cr    Cr6+3 0.937940 0.625230 0.001190 1.008901
O26   O     O_3   0.833640 0.833710 0.001100 -0.267710
Cl1   Cl    Cl    0.262634 0.885854 0.167191 -0.573021
N1    N     N_R   0.277274 0.873786 0.319820 0.133446
O27   O     O_R   0.372023 0.746908 0.301546 -0.299497
O28   O     O_R   0.307367 0.946074 0.364265 -0.392517

loop_
_geom_bond_atom_site_label_1
_geom_bond_atom_site_label_2
_geom_bond_distance
_ccdc_geom_bond_type
C24   C28   1.490288 S    
C47   C51   1.400250 A    
C53   H40   1.110729 S    
O11   Cr3   2.082399 S    
C41   C45   1.496254 S    
C32   C36   1.501286 S    
C23   C24   1.397909 A    
C44   H33   1.109943 S    
O4    Cr2   1.963520 S    
C39   C40   1.390787 A    
C20   H16   1.109624 S    
O8    Cr1   1.963370 S    
C8    H3    1.112012 S    
C28   H21   1.110631 S    
C17   C22   1.399185 A    
C12   C13   1.544429 S    
C14   H10   1.106229 S    
O4    C2    1.275002 A    
C5    C38   1.458128 S    
C37   H29   1.100668 S    
C5    O11   1.264189 A    
C48   C52   1.497048 S    
C56   O18   1.274219 A    
O14   C57   1.272718 A    
C7    C8    1.539449 S    
C13   H12   1.112634 S    
O19   C57   1.277511 A    
O15   C55   1.290225 A    
O19   Cr6   1.960153 S    
C42   H31   1.071790 S    
C27   H20   1.083108 S    
O14   Cr4   2.080832 S    
C29   H23   1.104128 S    
O6    C3    1.275038 A    
C7    C11   1.558682 S    
C33   C38   1.396375 A    
C9    C11   1.553074 S    
C51   H38   1.076773 S    
C10   C14   1.540445 S    
O15   Cr4   1.966304 S    
C35   H26   1.074997 S    
C23   C57   1.456560 S    
Cr4   O26   1.989341 S    
C42   C43   1.390282 A    
C31   C35   1.408077 A    
C41   C46   1.401631 A    
O16   Cr5   2.082008 S    
C50   C51   1.400632 A    
C52   C53   1.520612 S    
O6    Cr3   1.962161 S    
C49   C53   1.514513 S    
C20   H15   1.105630 S    
O1    Cr1   2.084448 S    
C52   Cl1   1.800662 S    
O20   Cr4   2.086642 S    
C10   H8    1.113141 S    
O10   Cr2   1.962974 S    
C50   H37   1.077963 S    
Cr1   O13   1.989354 S    
O1    C3    1.276923 A    
C36   C37   1.499403 S    
C34   C35   1.403081 A    
C36   H28   1.106647 S    
C39   C43   1.393115 A    
C40   C41   1.376986 A    
N1    O28   1.300386 A    
C37   H30   1.106302 S    
C24   C25   1.389224 A    
C21   H17   1.108920 S    
C18   H13   1.083460 S    
O12   Cr3   1.958753 S    
C9    C13   1.526520 S    
H6    C13   1.113475 S    
C26   C27   1.389390 A    
C10   H7    1.110168 S    
Cr5   O26   1.993676 S    
C15   C16   1.392360 A    
C28   C29   1.514134 S    
C47   C48   1.395850 A    
C29   H24   1.111591 S    
C17   C21   1.491372 S    
O7    Cr1   2.080796 S    
C7    H1    1.103210 S    
O12   C6    1.282005 A    
C25   C30   1.396089 A    
O23   Cr5   1.960548 S    
C39   C58   1.437335 S    
C42   C46   1.397991 A    
C45   H35   1.100868 S    
C44   H34   1.109778 S    
O21   C58   1.278815 A    
C2    O5    1.269142 A    
C8    C12   1.545704 S    
C20   C21   1.542318 S    
Cr2   O13   1.988622 S    
C26   H19   1.082341 S    
C34   H25   1.079310 S    
O22   Cr5   2.079568 S    
C40   C44   1.488696 S    
C59   O24   1.264156 A    
O25   C60   1.279699 A    
C16   C17   1.364331 A    
C55   O16   1.262615 A    
C49   C54   1.404387 A    
C18   C19   1.383104 A    
C11   C56   1.482493 S    
C9    H11   1.111280 S    
O9    Cr2   2.083210 S    
O2    Cr1   1.961748 S    
O10   C5    1.291881 A    
C8    H4    1.112323 S    
C3    C22   1.450489 S    
O21   Cr4   1.959579 S    
C32   C33   1.381109 A    
C36   H27   1.100170 S    
C43   H32   1.075163 S    
O8    C4    1.283567 A    
O20   C60   1.259363 A    
C23   C27   1.401135 A    
C19   H14   1.082799 S    
C21   H18   1.110956 S    
C18   C22   1.399407 A    
N1    O27   1.302087 A    
C25   C29   1.486433 S    
C28   H22   1.110241 S    
C26   C30   1.411953 A    
C6    C46   1.446610 S    
C10   C11   1.536795 S    
C12   C14   1.563133 S    
O2    C1    1.284539 A    
C31   C32   1.401586 A    
H5    C9    1.112386 S    
O5    Cr3   2.080331 S    
C15   C55   1.459226 S    
C4    C54   1.450209 S    
C44   C45   1.506174 S    
C14   H9    1.112593 S    
O24   Cr6   2.079879 S    
O7    C6    1.264363 A    
C48   C49   1.365865 A    
C2    C12   1.470335 S    
C50   C54   1.403942 A    
C47   C60   1.442171 S    
C7    H2    1.113442 S    
C45   H36   1.109450 S    
C1    C30   1.460528 S    
Cr6   O26   1.988603 S    
O18   Cr6   2.085719 S    
O25   Cr6   1.964512 S    
O3    Cr2   2.083893 S    
C16   C20   1.487038 S    
C4    O9    1.263107 A    
C34   C38   1.398971 A    
C33   C37   1.492972 S    
C52   H39   1.095123 S    
C31   C59   1.456998 S    
O17   C56   1.271690 A    
C58   O22   1.266435 A    
Cr3   O13   1.993259 S    
C15   C19   1.417852 A    
C1    O3    1.262503 A    
O23   C59   1.284351 A    
C53   N1    1.450265 S    
O17   Cr5   1.960620 S    
