data_mof_unit_14574.cif
_audit_creation_date              2013-03-05T15:42:12-0500
_audit_creation_method            fapswitch 2.2
_symmetry_space_group_name_H-M    P1
_symmetry_Int_Tables_number       1
_space_group_crystal_system       triclinic
_cell_length_a                    7.79332
_cell_length_b                    8.613158
_cell_length_c                    16.76618
_cell_angle_alpha                 92.248932
_cell_angle_beta                  81.032974
_cell_angle_gamma                 93.51694
_cell_volume                      1109.08015918

loop_
_atom_site_label
_atom_site_type_symbol
_atom_site_description
_atom_site_fract_x
_atom_site_fract_y
_atom_site_fract_z
_atom_type_partial_charge
O1    O     O_R   0.388470 0.738640 0.505270 -0.573504
O2    O     O_R   0.611530 0.261360 0.494730 -0.568323
O3    O     O_R   0.679650 0.711510 0.491500 -0.536559
O4    O     O_R   0.320350 0.288490 0.508500 -0.535941
C1    C     C_R   0.545489 0.794192 0.498109 0.858470
C2    C     C_R   0.454484 0.205820 0.502125 0.851154
O5    O     O_R   0.337210 0.515200 0.623500 -0.590475
O6    O     O_R   0.662790 0.484800 0.376500 -0.598798
O7    O     O_R   0.628380 0.488060 0.609730 -0.558825
O8    O     O_R   0.371620 0.511940 0.390270 -0.548830
C3    C     C_R   0.478106 0.498849 0.653667 0.986868
C4    C     C_R   0.521164 0.491176 0.345927 0.947621
Zn1   Zn    Zn3+2 0.305580 0.518120 0.509190 1.264833
Zn2   Zn    Zn3+2 0.694420 0.481880 0.490810 1.266024
C5    C     C_R   0.470981 0.475691 0.739047 -0.354808
C6    C     C_R   0.527654 0.441043 0.261456 -0.362391
C7    C     C_R   0.564788 0.354287 0.760199 0.580381
C8    C     C_R   0.391139 0.341328 0.240253 0.584798
C9    C     C_R   0.594040 0.342311 0.838834 0.205097
C10   C     C_R   0.402910 0.271764 0.163305 0.175598
C11   C     C_R   0.516710 0.446232 0.899017 -0.258502
C12   C     C_R   0.552222 0.304984 0.106675 -0.246598
C13   C     C_R   0.414245 0.565293 0.878845 0.250034
C14   C     C_R   0.698888 0.386886 0.130844 0.228701
C15   C     C_R   0.391183 0.579629 0.797958 0.138018
C16   C     C_R   0.683790 0.462471 0.206896 0.190571
C17   C     C_2   0.551128 0.437350 0.982020 0.571724
C18   C     C_2   0.533837 0.301979 0.020859 0.610824
C19   C     C_2   0.569828 0.956593 0.497416 0.357312
C20   C     C_2   0.430084 0.043465 0.503321 0.347346
N1    N     N_2   0.953500 0.457650 0.478520 0.290787
N2    N     N_2   0.046500 0.542350 0.521480 0.277603
F1    F     F_    0.639154 0.252892 0.702569 -0.573146
F2    F     F_    0.249772 0.304412 0.295782 -0.525568
N3    N     N_R   0.825268 0.562881 0.227990 0.277072
O9    O     O_R   0.797508 0.703831 0.255750 -0.293383
O10   O     O_R   0.981689 0.513621 0.220230 -0.236995
N4    N     N_R   0.290513 0.700902 0.775903 0.267567
O11   O     O_R   0.132808 0.717295 0.812988 -0.225381
O12   O     O_R   0.358270 0.799023 0.721057 -0.302982
F3    F     F_    0.475039 0.168780 0.985236 -0.552694
F4    F     F_    0.590380 0.573576 0.021182 -0.583178
N5    N     N_R   0.343365 0.677567 0.938971 0.302059
O13   O     O_R   0.365872 0.825684 0.925320 -0.162643
O14   O     O_R   0.262510 0.633039 0.008785 -0.218777
N6    N     N_R   0.856751 0.406107 0.074576 0.255446
O15   O     O_R   0.926234 0.285387 0.036511 -0.237484
O16   O     O_R   0.924531 0.544657 0.057189 -0.191120
N7    N     N_R   0.262357 0.169294 0.143022 0.289166
O17   O     O_R   0.294932 0.033113 0.109753 -0.170342
O18   O     O_R   0.101857 0.198917 0.170519 -0.214960
N8    N     N_R   0.718199 0.235782 0.854774 0.273930
O19   O     O_R   0.704702 0.090782 0.830509 -0.163683
O20   O     O_R   0.861228 0.289540 0.879278 -0.280981
F5    F     F_    0.737594 0.016408 0.490712 -0.533515
F6    F     F_    0.262282 0.983674 0.510261 -0.538806
F7    F     F_    0.035907 0.342969 0.435863 -0.434364
F8    F     F_    0.962316 0.653529 0.566489 -0.475450

loop_
_geom_bond_atom_site_label_1
_geom_bond_atom_site_label_2
_geom_bond_distance
_ccdc_geom_bond_type
O5    C3    1.295778 A    
O7    Zn2   1.979455 S    
C19   C20   1.347701 D    
C15   N4    1.436881 S    
O7    C3    1.289144 A    
C18   F3    1.360134 S    
Zn1   N2    2.020241 S    
C1    C19   1.400268 S    
N1    N2    1.277869 D    
N2    F8    1.335266 S    
Zn2   N1    2.020242 S    
O6    C4    1.292288 A    
C14   N6    1.434031 S    
N1    F7    1.333728 S    
C3    C5    1.445110 S    
C13   C15   1.406630 A    
C11   C17   1.463455 S    
N5    O14   1.299972 A    
C12   C18   1.467062 S    
N4    O12   1.301363 A    
C8    F2    1.357269 S    
C17   F4    1.363647 S    
C10   N7    1.438199 S    
O3    Zn2   1.987700 S    
C7    F1    1.361441 S    
O1    C1    1.275804 A    
O8    C4    1.299239 A    
C12   C14   1.411153 A    
C6    C8    1.406321 A    
C7    C9    1.381327 A    
N8    O20   1.300060 A    
C8    C10   1.393197 A    
C11   C13   1.419702 A    
N5    O13   1.301402 A    
C6    C16   1.410750 A    
N4    O11   1.301260 A    
O2    Zn2   1.968570 S    
N6    O16   1.300024 A    
C5    C15   1.403990 A    
O1    Zn1   1.968571 S    
C4    C6    1.458479 S    
C16   N3    1.438504 S    
O5    Zn1   1.971383 S    
C13   N5    1.439431 S    
N8    O19   1.301423 A    
C14   C16   1.400364 A    
O4    C2    1.289077 A    
N7    O17   1.300939 A    
N7    O18   1.300908 A    
C17   C18   1.347091 D    
C5    C7    1.399060 A    
N6    O15   1.300361 A    
O6    Zn2   1.971382 S    
N3    O9    1.301458 A    
C19   F5    1.365135 S    
N3    O10   1.301032 A    
C9    C11   1.410055 A    
C20   F6    1.365123 S    
C9    N8    1.434707 S    
C2    C20   1.400151 S    
O2    C2    1.275807 A    
O4    Zn1   1.987700 S    
C10   C12   1.404799 A    
O3    C1    1.289060 A    
O8    Zn1   1.979453 S    
