data_mof_unit_7604.cif
_audit_creation_date              2012-12-11T14:19:17-0500
_audit_creation_method            fapswitch 2.2
_symmetry_space_group_name_H-M    P1
_symmetry_Int_Tables_number       1
_space_group_crystal_system       triclinic
_cell_length_a                    19.281425
_cell_length_b                    7.238671
_cell_length_c                    17.918843
_cell_angle_alpha                 89.987452
_cell_angle_beta                  107.908735
_cell_angle_gamma                 90.017068
_cell_volume                      2379.78868529

loop_
_atom_site_label
_atom_site_type_symbol
_atom_type_description
_atom_site_fract_x
_atom_site_fract_y
_atom_site_fract_z
_atom_type_partial_charge
O1    O     O_R   0.414820 0.494320 0.416790 -0.544374
O2    O     O_R   0.585180 0.994320 0.583210 -0.544518
O3    O     O_R   0.560270 0.819500 0.430140 -0.547397
O4    O     O_R   0.439730 0.319500 0.569860 -0.547476
C1    C     C_R   0.580972 0.655169 0.414487 0.746500
C2    C     C_R   0.419076 0.155104 0.585558 0.745326
O5    O     O_R   0.413840 0.823740 0.407440 -0.542372
O6    O     O_R   0.586160 0.323740 0.592560 -0.542197
O7    O     O_R   0.437710 0.998590 0.560350 -0.507946
O8    O     O_R   0.562290 0.498590 0.439650 -0.507189
C3    C     C_R   0.386883 0.655019 0.386156 0.720939
C4    C     C_R   0.613090 0.155025 0.613877 0.723563
O9    O     O_3   0.508000 0.662290 0.550200 -0.373789
O10   O     O_3   0.492000 0.162290 0.449800 -0.373444
V1    V     V_3+5 0.498520 0.935380 0.490690 1.449458
V2    V     V_3+5 0.501480 0.435380 0.509310 1.450465
C5    C     C_2   0.794477 0.269592 0.776455 -0.144330
C6    C     C_2   0.205326 0.769454 0.223820 -0.143052
C7    C     C_2   0.822303 0.112415 0.814656 -0.313550
C8    C     C_2   0.177645 0.612404 0.185410 -0.312989
C9    C     C_2   0.725045 0.282624 0.710300 -0.129403
C10   C     C_2   0.274723 0.782448 0.290036 -0.130835
C11   C     C_2   0.681038 0.138597 0.680391 -0.305231
C12   C     C_2   0.318907 0.638587 0.319677 -0.305819
H1    H     H_    0.695399 0.000596 0.703156 0.131334
H2    H     H_    0.304684 0.500702 0.296705 0.131922
C13   C     C_R   0.321455 0.292843 0.633185 -0.260344
C14   C     C_R   0.679071 0.792478 0.367366 -0.259476
C15   C     C_R   0.369856 0.146045 0.635198 -0.187217
C16   C     C_R   0.630278 0.646221 0.364928 -0.186092
C17   C     C_R   0.370552 0.992289 0.684114 0.414382
C18   C     C_R   0.629446 0.492720 0.315891 0.412262
C19   C     C_R   0.319497 0.981936 0.726351 0.033227
C20   C     C_R   0.680525 0.482316 0.273718 0.031424
C21   C     C_R   0.271388 0.131011 0.723997 -0.047004
C22   C     C_R   0.728557 0.631575 0.275899 -0.049238
C23   C     C_R   0.272393 0.287439 0.677288 -0.004773
C24   C     C_R   0.728113 0.787323 0.323187 -0.007626
C25   C     C_R   0.316036 0.825430 0.771465 -0.113174
C26   C     C_R   0.684334 0.325127 0.229159 -0.114797
C27   C     C_R   0.269240 0.820591 0.817042 -0.198909
C28   C     C_R   0.731075 0.320199 0.183530 -0.201061
C29   C     C_R   0.224508 0.972165 0.819121 0.004839
C30   C     C_R   0.775479 0.472210 0.180973 -0.000943
C31   C     C_R   0.223380 0.125106 0.770004 0.023034
C32   C     C_R   0.776496 0.625517 0.229845 0.019464
C33   C     C_R   0.176253 0.274681 0.769036 0.037037
C34   C     C_R   0.823747 0.774773 0.230856 0.033679
C35   C     C_R   0.176986 0.428411 0.721660 -0.272198
C36   C     C_R   0.823618 0.927752 0.278753 -0.267586
C37   C     C_R   0.223989 0.435193 0.675117 0.412023
C38   C     C_R   0.777363 0.933888 0.326371 0.430271
C39   C     C_R   0.182407 0.975388 0.871174 0.374140
C40   C     C_R   0.817614 0.475132 0.128951 0.374260
C41   C     C_R   0.131458 0.118896 0.866554 -0.169349
C42   C     C_R   0.868497 0.618788 0.133397 -0.169107
C43   C     C_R   0.129600 0.268968 0.815963 -0.258453
C44   C     C_R   0.870363 0.768962 0.183899 -0.257795
H3    H     H_    0.349627 0.705370 0.772004 0.148672
H4    H     H_    0.651004 0.204727 0.229043 0.147714
H5    H     H_    0.092094 0.382045 0.813470 0.155689
H6    H     H_    0.907972 0.881882 0.186431 0.155584
O11   O     O_R   0.937810 0.773680 0.060480 -0.542746
O12   O     O_R   0.062190 0.273680 0.939520 -0.542806
O13   O     O_R   0.086190 0.439740 0.092580 -0.547011
O14   O     O_R   0.913810 0.939740 0.907420 -0.547121
C45   C     C_R   0.111539 0.608356 0.115918 0.734181
C46   C     C_R   0.888445 0.108348 0.884102 0.734127
O15   O     O_R   0.939760 0.444210 0.069890 -0.513598
O16   O     O_R   0.060240 0.944210 0.930110 -0.513494
O17   O     O_R   0.914790 0.269640 0.916760 -0.535060
O18   O     O_R   0.085210 0.769640 0.083240 -0.535066
C47   C     C_R   0.918504 0.612417 0.084339 0.731985
C48   C     C_R   0.081468 0.112475 0.915632 0.732213
O19   O     O_3   0.992050 0.601530 0.949880 -0.380983
O20   O     O_3   0.007950 0.101530 0.050120 -0.380934
V3    V     V_3+5 0.001480 0.328340 0.009300 1.444819
V4    V     V_3+5 0.998520 0.828340 0.990700 1.444848
H7    H     H_    0.822888 0.399051 0.795471 0.135619
H8    H     H_    0.176819 0.898829 0.204939 0.135498
H9    H     H_    0.142365 0.545951 0.722261 0.140256
H10   H     H_    0.858776 0.044271 0.278381 0.142874
O21   O     O_3   0.228743 0.594731 0.634386 -0.548815
C49   C     C_3   0.165593 0.613237 0.569284 0.094441
H11   H     H_    0.116532 0.636358 0.588350 0.113383
H12   H     H_    0.157201 0.488591 0.530983 0.108549
C50   C     C_3   0.174771 0.779887 0.521429 -0.699823
H13   H     H_    0.222927 0.760311 0.500615 0.220582
H14   H     H_    0.125453 0.797018 0.469861 0.168273
H15   H     H_    0.182692 0.906783 0.557993 0.223962
O22   O     O_3   0.774246 0.090235 0.370106 -0.553320
C51   C     C_3   0.843129 0.133383 0.424076 0.094661
H16   H     H_    0.888103 0.036815 0.423552 0.093351
H17   H     H_    0.838098 0.127297 0.484131 0.133984
C52   C     C_3   0.864472 0.329436 0.409399 -0.713896
H18   H     H_    0.822698 0.428564 0.415746 0.229418
H19   H     H_    0.917767 0.365308 0.452567 0.166902
H20   H     H_    0.869147 0.341226 0.349372 0.220903
H21   H     H_    0.796317 0.980627 0.795765 0.130251
H22   H     H_    0.203701 0.480666 0.204197 0.130316
H23   H     H_    0.709910 0.419229 0.685596 0.133030
H24   H     H_    0.289709 0.918898 0.314982 0.132898
H25   H     H_    0.321443 0.410874 0.595964 0.194331
H26   H     H_    0.679334 0.909894 0.404955 0.193095
O23   O     O_3   0.420521 0.851157 0.689271 -0.542541
C53   C     C_3   0.476404 0.858601 0.762488 0.067130
H27   H     H_    0.485898 0.716120 0.786485 0.132730
H28   H     H_    0.463441 0.945405 0.807992 0.088087
C54   C     C_3   0.546918 0.928189 0.751279 -0.703480
H29   H     H_    0.539680 0.072244 0.729047 0.194023
H30   H     H_    0.591165 0.925883 0.808200 0.165813
H31   H     H_    0.562763 0.838049 0.709137 0.237363
O24   O     O_3   0.579401 0.351668 0.310676 -0.542955
C55   C     C_3   0.523640 0.359037 0.237373 0.067516
H32   H     H_    0.514142 0.216519 0.213432 0.132649
H33   H     H_    0.536737 0.445708 0.191893 0.088871
C56   C     C_3   0.453083 0.428785 0.248398 -0.703771
H34   H     H_    0.460345 0.572833 0.270627 0.194293
H35   H     H_    0.408922 0.426532 0.191412 0.165847
H36   H     H_    0.437097 0.338714 0.290490 0.237262
H37   H     H_    0.268461 0.697261 0.851014 0.156426
H38   H     H_    0.732113 0.196425 0.149940 0.156925
O25   O     O_3   0.195641 0.848548 0.931773 -0.548078
C57   C     C_3   0.261155 0.899152 0.990200 0.060457
H39   H     H_    0.267591 0.052045 0.998205 0.101770
H40   H     H_    0.309096 0.843567 0.975615 0.121932
C58   C     C_3   0.261437 0.818296 0.068083 -0.686158
H41   H     H_    0.314373 0.846876 0.113369 0.173072
H42   H     H_    0.217270 0.884812 0.085817 0.224742
H43   H     H_    0.252575 0.666609 0.062819 0.220422
O26   O     O_3   0.804540 0.347703 0.068601 -0.548029
C59   C     C_3   0.738784 0.396823 0.010223 0.061877
H44   H     H_    0.731717 0.549570 0.002144 0.101835
H45   H     H_    0.691108 0.339741 0.024902 0.122384
C60   C     C_3   0.738732 0.316459 0.932353 -0.686968
H46   H     H_    0.685692 0.344038 0.887078 0.173120
H47   H     H_    0.782676 0.384140 0.914589 0.224734
H48   H     H_    0.748083 0.164959 0.937658 0.220471

loop_
_geom_bond_atom_site_label_1
_geom_bond_atom_site_label_2
_ccdc_geom_bond_type
C44   H6    S    
C60   H48   S    
O14   C46   A    
C50   H13   S    
C26   H4    S    
C13   C15   A    
C27   C29   A    
O12   V3    S    
C8    C45   S    
O15   V3    S    
C52   H18   S    
O1    C3    A    
C49   C50   S    
O2    C4    A    
C2    O7    A    
C55   H32   S    
C52   H20   S    
O25   C57   S    
C25   C27   A    
O5    C3    A    
C40   O26   S    
C4    C11   S    
C28   H38   S    
C19   C25   A    
C20   C26   A    
C21   C23   A    
C12   H2    S    
C1    C16   S    
C56   H35   S    
C23   C37   A    
O16   V4    S    
C53   H27   S    
C35   H9    S    
C3    C12   S    
C5    H7    S    
C45   O18   A    
C31   C33   A    
C27   H37   S    
C43   H5    S    
O18   V4    S    
C5    C7    D    
C50   H15   S    
C41   C48   S    
C29   C39   A    
C59   H44   S    
C35   C37   A    
O16   C48   A    
C36   C38   A    
C17   C19   A    
O15   C47   A    
C18   O24   S    
C20   C22   A    
C9    H23   S    
C34   C36   A    
O6    V2    S    
C17   O23   S    
C28   C30   A    
C30   C32   A    
C32   C34   A    
C39   C41   A    
C9    C11   D    
O14   V4    S    
C40   C42   A    
O13   V3    S    
C60   H46   S    
O20   V3    S    
C33   C35   A    
C39   O25   S    
C56   H36   S    
O22   C51   S    
C7    H21   S    
O11   C47   A    
O13   C45   A    
C51   C52   S    
C5    C9    S    
C18   C20   A    
O4    V2    S    
C58   H42   S    
C33   C43   A    
C14   H26   S    
O21   C49   S    
C8    H22   S    
C14   C24   A    
O6    C4    A    
C25   H3    S    
C51   H17   S    
C7    C46   S    
C46   O17   A    
O1    V2    S    
C49   H11   S    
C22   C32   A    
O2    V1    S    
C29   C31   A    
C57   C58   S    
O4    C2    A    
C41   C43   A    
C10   C12   D    
C54   H31   S    
C58   H41   S    
C21   C31   A    
C37   O21   S    
O17   V3    S    
O3    V1    S    
C36   H10   S    
C57   H40   S    
O24   C55   S    
C60   H47   S    
C42   C47   S    
C6    C10   S    
C49   H12   S    
C26   C28   A    
O3    C1    A    
C55   H33   S    
C52   H19   S    
C34   C44   A    
O23   C53   S    
C10   H24   S    
C13   H25   S    
C54   H30   S    
O7    V1    S    
C58   H43   S    
C14   C16   A    
C15   C17   A    
O8    V2    S    
C56   H34   S    
C22   C24   A    
C16   C18   A    
C53   H28   S    
C13   C23   A    
C59   C60   S    
C59   H45   S    
O5    V1    S    
C51   H16   S    
C19   C21   A    
C42   C44   A    
C6    C8    D    
C11   H1    S    
O19   V4    S    
C55   C56   S    
C30   C40   A    
C1    O8    A    
C2    C15   S    
C24   C38   A    
C6    H8    S    
O9    V2    S    
C50   H14   S    
O12   C48   A    
O10   V1    S    
C38   O22   S    
C54   H29   S    
C53   C54   S    
O26   C59   S    
C57   H39   S    
O11   V4    S    
