data_mof_unit_39428.cif
_audit_creation_date              2012-12-10T18:58:10-0500
_audit_creation_method            fapswitch 2.2
_symmetry_space_group_name_H-M    P1
_symmetry_Int_Tables_number       1
_space_group_crystal_system       triclinic
_cell_length_a                    10.684933
_cell_length_b                    9.819543
_cell_length_c                    15.849672
_cell_angle_alpha                 89.515132
_cell_angle_beta                  90.087071
_cell_angle_gamma                 91.684737
_cell_volume                      1662.18623833

loop_
_atom_site_label
_atom_site_type_symbol
_atom_type_description
_atom_site_fract_x
_atom_site_fract_y
_atom_site_fract_z
_atom_type_partial_charge
C1    C     C_R   0.873038 0.506441 0.474608 -0.178363
C2    C     C_R   0.123398 0.491418 0.512069 -0.174019
C3    C     C_R   0.258945 0.497332 0.506475 0.903491
C4    C     C_R   0.739482 0.502261 0.489479 0.898199
C5    C     C_R   0.500250 0.500588 0.339331 0.881005
C6    C     C_R   0.499644 0.499436 0.660674 0.891541
C7    C     C_R   0.517863 0.624045 0.953912 -0.089388
C8    C     C_R   0.459915 0.380621 0.045715 -0.077645
C9    C     C_R   0.526804 0.623451 0.042350 -0.096065
C10   C     C_R   0.450210 0.381421 0.957388 -0.093089
C11   C     C_R   0.480474 0.502741 0.912706 -0.026551
C12   C     C_R   0.499064 0.501355 0.086926 -0.033523
C13   C     C_1   0.486505 0.499167 0.823392 0.054305
C14   C     C_1   0.500498 0.502560 0.176366 0.045101
C15   C     C_1   0.500658 0.502055 0.251140 -0.120728
C16   C     C_1   0.493058 0.498221 0.748760 -0.123259
C17   C     C_R   0.531142 0.071991 0.571138 -0.078059
C18   C     C_R   0.469469 0.927993 0.428750 -0.078995
C19   C     C_R   0.470113 0.071858 0.428629 -0.100630
C20   C     C_R   0.531462 0.928130 0.571077 -0.079512
C21   C     C_R   0.056103 0.370564 0.487779 0.097940
C22   C     C_R   0.942523 0.627249 0.491217 0.111391
C23   C     C_R   0.932351 0.382481 0.460629 0.085759
C24   C     C_R   0.061643 0.614937 0.525049 0.101599
H1    H     H_    0.556477 0.126301 0.627990 0.147245
H2    H     H_    0.444429 0.873708 0.371834 0.155115
H3    H     H_    0.445753 0.125937 0.371527 0.165570
H4    H     H_    0.557072 0.874011 0.627908 0.148169
N1    N     N_R   0.500000 0.857200 0.500000 -0.084066
N2    N     N_R   0.500000 0.142800 0.500000 -0.079521
O1    O     O_R   0.316770 0.614620 0.499990 -0.612789
O2    O     O_R   0.683230 0.385380 0.500010 -0.605362
O3    O     O_R   0.683230 0.614620 0.500010 -0.615793
O4    O     O_R   0.316770 0.385380 0.499990 -0.614324
O5    O     O_R   0.499980 0.614630 0.378020 -0.621417
O6    O     O_R   0.500020 0.385370 0.621980 -0.616266
O7    O     O_R   0.500020 0.614630 0.621980 -0.613370
O8    O     O_R   0.499980 0.385370 0.378020 -0.617337
Zn1   Zn    Zn3+2 0.500000 0.653120 0.500000 0.946206
Zn2   Zn    Zn3+2 0.500000 0.346880 0.500000 0.946061
C25   C     C_2   0.559468 0.751455 0.088454 0.964191
O9    O     O_2   0.638324 0.751333 0.144483 -0.616150
O10   O     O_R   0.499455 0.871846 0.067630 -0.762761
H5    H     H_    0.529911 0.951709 0.102986 0.379804
C26   C     C_2   0.414803 0.254068 0.911386 0.966568
O11   O     O_2   0.337745 0.256736 0.854287 -0.615446
O12   O     O_R   0.469893 0.131385 0.933541 -0.752551
H6    H     H_    0.436328 0.051997 0.899000 0.368977
C27   C     C_2   0.553608 0.748585 0.903669 0.968789
O13   O     O_2   0.648939 0.814576 0.920981 -0.587938
O14   O     O_R   0.479128 0.788604 0.835698 -0.806157
H7    H     H_    0.515229 0.871615 0.804835 0.331443
C28   C     C_2   0.423878 0.255744 0.095387 0.960352
O15   O     O_2   0.491750 0.215909 0.152118 -0.638448
O16   O     O_R   0.311962 0.184430 0.077281 -0.771620
H8    H     H_    0.298089 0.101519 0.115047 0.354955
C29   C     C_3   0.104171 0.228995 0.508501 -0.314980
C30   C     C_3   0.160703 0.156439 0.432977 -0.821728
H9    H     H_    0.087678 0.112978 0.390840 0.240118
H10   H     H_    0.222632 0.226135 0.395326 0.275539
H11   H     H_    0.215558 0.069779 0.456505 0.236574
H12   H     H_    0.172948 0.233912 0.560978 0.217760
H13   H     H_    0.028639 0.164046 0.536694 0.192333
C31   C     C_3   0.898366 0.767461 0.463324 -0.426176
C32   C     C_3   0.856808 0.768850 0.370765 -0.756654
H14   H     H_    0.934354 0.735961 0.329729 0.254884
H15   H     H_    0.773778 0.700713 0.360189 0.269525
H16   H     H_    0.831695 0.873638 0.351769 0.247979
H17   H     H_    0.823517 0.804326 0.505004 0.233556
H18   H     H_    0.976273 0.844489 0.467062 0.190753
C33   C     C_3   0.870363 0.276026 0.402846 -0.309343
C34   C     C_3   0.820388 0.146924 0.448055 -0.803111
H19   H     H_    0.794897 0.166815 0.514565 0.267572
H20   H     H_    0.736537 0.105956 0.414382 0.255542
H21   H     H_    0.890490 0.066505 0.447113 0.226885
H22   H     H_    0.791492 0.321842 0.367858 0.202624
H23   H     H_    0.936050 0.249091 0.352019 0.199821
C35   C     C_3   0.114711 0.727958 0.582214 -0.416914
C36   C     C_3   0.157266 0.673101 0.667933 -0.755155
H24   H     H_    0.079001 0.615446 0.699198 0.254752
H25   H     H_    0.186654 0.759490 0.708924 0.263452
H26   H     H_    0.237910 0.605655 0.661499 0.249538
H27   H     H_    0.191310 0.787934 0.551032 0.234586
H28   H     H_    0.041693 0.802258 0.597084 0.197634

loop_
_geom_bond_atom_site_label_1
_geom_bond_atom_site_label_2
_ccdc_geom_bond_type
O16   H8    S    
C25   O9    D    
C18   H2    S    
C29   H12   S    
C28   O15   D    
C7    C11   A    
O3    Zn1   S    
O4    Zn2   S    
C33   H22   S    
C30   H10   S    
C17   C20   A    
C18   C19   A    
C27   O13   D    
C35   H27   S    
O1    Zn1   S    
C32   H15   S    
C31   H18   S    
C19   H3    S    
C30   H11   S    
C26   O12   S    
C1    C22   A    
C5    O8    A    
C17   N2    A    
C25   O10   S    
C10   C26   S    
C34   H21   S    
C29   H13   S    
C20   N1    A    
C28   O16   S    
O14   H7    S    
C23   C33   S    
O6    Zn2   S    
C7    C27   S    
C34   H20   S    
C36   H25   S    
C35   C36   S    
C20   H4    S    
C3    O4    A    
C27   O14   S    
C30   H9    S    
C26   O11   D    
C22   C31   S    
O5    Zn1   S    
O10   H5    S    
C21   C29   S    
O12   H6    S    
C8    C12   A    
C32   H16   S    
N1    Zn1   S    
C2    C21   A    
C6    O7    A    
N2    Zn2   S    
C18   N1    A    
C31   H17   S    
C3    O1    A    
C4    O2    A    
C24   C35   S    
C12   C14   S    
C1    C23   A    
C21   C23   A    
C2    C24   A    
C22   C24   A    
C33   H23   S    
C7    C9    A    
C4    O3    A    
C34   H19   S    
C8    C28   S    
C36   H26   S    
C9    C25   S    
C1    C4    S    
C17   H1    S    
C31   C32   S    
C2    C3    S    
C33   C34   S    
O7    Zn1   S    
O8    Zn2   S    
C11   C13   S    
C29   C30   S    
C5    O5    A    
C6    O6    A    
O2    Zn2   S    
C9    C12   A    
C5    C15   S    
C10   C11   A    
C6    C16   S    
C36   H24   S    
C35   H28   S    
C8    C10   A    
C32   H14   S    
C13   C16   T    
C14   C15   T    
C19   N2    A    
