data_mof_unit_14766.cif
_audit_creation_date              2012-12-10T19:06:25-0500
_audit_creation_method            fapswitch 2.2
_symmetry_space_group_name_H-M    P1
_symmetry_Int_Tables_number       1
_space_group_crystal_system       triclinic
_cell_length_a                    23.519275
_cell_length_b                    10.856105
_cell_length_c                    9.537899
_cell_angle_alpha                 89.837419
_cell_angle_beta                  89.906978
_cell_angle_gamma                 90.329006
_cell_volume                      2435.23676686

loop_
_atom_site_label
_atom_site_type_symbol
_atom_type_description
_atom_site_fract_x
_atom_site_fract_y
_atom_site_fract_z
_atom_type_partial_charge
C1    C     C_R   0.500079 0.262675 0.499984 0.806825
C2    C     C_R   0.968971 0.281829 0.556825 -0.167996
C3    C     C_R   0.028288 0.281119 0.556184 -0.147497
C4    C     C_R   0.059090 0.389049 0.524933 -0.034983
C5    C     C_R   0.029695 0.498465 0.493877 -0.017077
C6    C     C_R   0.060155 0.607226 0.462414 -0.028646
C7    C     C_R   0.030415 0.715893 0.431905 -0.147964
C8    C     C_R   0.971102 0.716636 0.432720 -0.164523
C9    C     C_R   0.118735 0.390702 0.524119 0.621120
C10   C     C_R   0.119777 0.604423 0.463093 0.585752
C11   C     C_R   0.237570 0.492126 0.624317 0.612923
C12   C     C_R   0.390833 0.499549 0.500245 0.885469
C13   C     C_R   0.296899 0.492764 0.626845 0.522033
C14   C     C_R   0.328039 0.498734 0.500340 -0.263226
C15   C     C_R   0.298441 0.503869 0.372402 -0.266639
C16   C     C_R   0.239191 0.503352 0.370568 -0.169064
C17   C     C_R   0.208608 0.497381 0.496297 0.137887
C18   C     C_R   0.760429 0.441979 0.383365 -0.066146
C19   C     C_R   0.700827 0.439893 0.387904 0.498105
C20   C     C_R   0.671471 0.497616 0.497987 -0.148965
C21   C     C_R   0.702179 0.556196 0.604660 -0.260510
C22   C     C_R   0.761346 0.556924 0.602219 -0.127538
C23   C     C_R   0.500477 0.737282 0.499673 0.802354
C24   C     C_R   0.790761 0.500444 0.492313 0.244532
C25   C     C_R   0.502297 0.061598 0.621146 -0.019384
C26   C     C_R   0.500633 0.130060 0.498331 -0.068878
C27   C     C_R   0.499925 0.064911 0.370451 -0.190375
C28   C     C_R   0.500247 0.935762 0.370103 -0.183900
C29   C     C_R   0.501296 0.869836 0.497835 -0.096487
C30   C     C_R   0.502764 0.937441 0.620849 0.037637
C31   C     C_3   0.503857 0.927515 0.776691 0.443432
C32   C     C_3   0.502487 0.069678 0.777643 -0.255255
C33   C     C_R   0.529358 0.588464 0.073534 0.178534
C34   C     C_R   0.608996 0.499173 0.499679 0.846001
C35   C     C_R   0.466029 0.421734 0.074850 -0.061753
C36   C     C_R   0.465952 0.421870 0.925849 0.029736
C37   C     C_R   0.530035 0.587234 0.926126 0.217725
C38   C     C_3   0.592845 0.608474 0.923488 0.379018
C39   C     C_3   0.591491 0.614225 0.082054 -0.513107
C40   C     C_R   0.880691 0.607115 0.464912 0.520304
C41   C     C_R   0.879646 0.393378 0.525938 0.547739
C42   C     C_R   0.939243 0.390442 0.526065 -0.019455
C43   C     C_R   0.969700 0.499175 0.494502 -0.010739
C44   C     C_R   0.940313 0.608706 0.463943 -0.016449
Cu1   Cu    Cu3+1 0.500000 0.499980 0.640670 1.044365
Cu2   Cu    Cu3+1 0.500000 0.500020 0.359330 0.970306
H1    H     H_    0.946533 0.197051 0.581385 0.186296
H2    H     H_    0.680488 0.603771 0.688348 0.213248
H3    H     H_    0.784559 0.601911 0.685814 0.162572
H4    H     H_    0.498745 0.112999 0.271104 0.156827
H5    H     H_    0.499344 0.888364 0.270337 0.177946
H6    H     H_    0.543373 0.884723 0.817502 0.031991
H7    H     H_    0.461818 0.107889 0.818014 0.189929
H8    H     H_    0.439654 0.356224 0.131079 0.139393
H9    H     H_    0.049885 0.195830 0.580384 0.193279
H10   H     H_    0.439483 0.356554 0.870228 0.149277
H11   H     H_    0.605704 0.696017 0.871477 0.046437
H12   H     H_    0.615756 0.538791 0.132399 0.284001
H13   H     H_    0.600502 0.707813 0.123765 0.145920
H14   H     H_    0.052840 0.800713 0.407480 0.193682
H15   H     H_    0.949501 0.801974 0.408762 0.188107
H16   H     H_    0.321013 0.508498 0.273452 0.221277
H17   H     H_    0.216947 0.507394 0.271357 0.205461
N1    N     N_R   0.851757 0.500284 0.494281 -0.451018
N2    N     N_R   0.147674 0.497380 0.493970 -0.437420
N3    N     N_R   0.500360 0.500930 0.147930 -0.178047
N4    N     N_R   0.500360 0.500890 0.852020 -0.167631
O1    O     O_R   0.500000 0.319640 0.618810 -0.579867
O2    O     O_2   0.849724 0.290533 0.557589 -0.556523
O3    O     O_2   0.147649 0.286635 0.552755 -0.499426
O4    O     O_2   0.149692 0.707912 0.434316 -0.505664
O5    O     O_R   0.500010 0.319680 0.381230 -0.602047
O6    O     O_R   0.417880 0.499940 0.618820 -0.514932
O7    O     O_R   0.417880 0.499980 0.381240 -0.591854
O8    O     O_R   0.499990 0.680320 0.618770 -0.569719
O9    O     O_R   0.500000 0.680360 0.381190 -0.588816
O10   O     O_R   0.582120 0.500020 0.618760 -0.535421
O11   O     O_R   0.582120 0.500060 0.381180 -0.555118
O12   O     O_2   0.851779 0.710998 0.435386 -0.550369
F1    F     F_    0.671593 0.381495 0.284843 -0.719647
F2    F     F_    0.454214 0.875482 0.828511 -0.623680
C45   C     C_R   0.555076 0.128089 0.841298 0.111782
C46   C     C_R   0.607771 0.133467 0.770679 -0.136213
C47   C     C_R   0.654813 0.189656 0.833978 -0.119375
C48   C     C_R   0.649975 0.239760 0.968207 0.012027
C49   C     C_R   0.598073 0.233762 0.039382 -0.073530
C50   C     C_R   0.551017 0.177883 0.976454 -0.175810
H18   H     H_    0.612672 0.094668 0.667005 0.122269
H19   H     H_    0.695054 0.194346 0.778923 0.147013
H20   H     H_    0.686373 0.283556 0.016719 0.181874
H21   H     H_    0.594031 0.272565 0.143193 0.199209
H22   H     H_    0.511101 0.173922 0.032813 0.114288
F3    F     F_    0.622149 0.505867 0.878101 -0.643297
F4    F     F_    0.208055 0.487306 0.746631 -0.598513
F5    F     F_    0.323458 0.487372 0.752989 -0.606542
C51   C     C_R   0.790241 0.384910 0.263202 0.167503
C52   C     C_R   0.825017 0.456718 0.174794 -0.160038
C53   C     C_R   0.851912 0.403293 0.059309 -0.127385
C54   C     C_R   0.844180 0.278087 0.031027 -0.089716
C55   C     C_R   0.809594 0.206048 0.118328 -0.177117
C56   C     C_R   0.782647 0.259099 0.233975 -0.048874
H23   H     H_    0.830631 0.554250 0.194000 0.158779
H24   H     H_    0.878486 0.459126 0.991236 0.144348
H25   H     H_    0.864871 0.236993 0.941290 0.152878
H26   H     H_    0.803525 0.109143 0.096168 0.145552
H27   H     H_    0.755905 0.202277 0.300707 0.155208

loop_
_geom_bond_atom_site_label_1
_geom_bond_atom_site_label_2
_ccdc_geom_bond_type
C12   O7    A    
C18   C51   S    
C41   C42   A    
C7    H14   S    
C19   C20   A    
C23   O9    A    
Cu2   O9    S    
C52   C53   A    
C36   N4    A    
C7    C8    A    
Cu1   Cu2   S    
C55   H26   S    
C29   C30   A    
C13   F5    S    
C18   C24   A    
C23   C29   S    
C21   C22   A    
C28   C29   A    
Cu2   N3    S    
C49   H21   S    
C34   O10   A    
C30   C31   S    
C28   H5    S    
C45   C50   A    
C56   H27   S    
C1    O1    A    
Cu1   O6    S    
C18   C19   A    
C3    H9    S    
C46   C47   A    
C16   C17   A    
Cu1   N4    S    
C16   H17   S    
C13   C14   A    
C31   H6    S    
Cu2   O5    S    
C52   H23   S    
C27   H4    S    
C8    H15   S    
C21   H2    S    
C20   C34   S    
C10   O4    S    
C25   C32   S    
C54   H25   S    
C5    C43   A    
C24   N1    S    
C51   C56   A    
C35   H8    S    
C33   N3    A    
C38   C39   S    
C1    O5    A    
C15   C16   A    
C47   C48   A    
Cu2   O11   S    
C49   C50   A    
C35   N3    A    
C25   C26   A    
C48   C49   A    
C39   H12   S    
C33   C37   A    
C35   C36   A    
C43   C44   A    
C37   C38   S    
C36   H10   S    
C38   H11   S    
C54   C55   A    
C39   H13   S    
C51   C52   A    
Cu1   O1    S    
C26   C27   A    
C40   O12   S    
C33   C39   S    
C9    O3    S    
C22   H3    S    
C11   F4    S    
C12   C14   S    
C53   C54   A    
C1    C26   S    
C22   C24   A    
C47   H19   S    
C3    C4    A    
C32   H7    S    
Cu2   O7    S    
C50   H22   S    
C41   O2    S    
C10   N2    A    
C25   C30   A    
C11   C17   A    
C31   C32   S    
C8    C44   A    
C23   O8    A    
C4    C5    A    
C40   N1    A    
C6    C10   A    
C48   H20   S    
C6    C7    A    
C2    H1    S    
C32   C45   S    
C17   N2    S    
C31   F2    S    
Cu1   O8    S    
C2    C3    A    
C34   O11   A    
C11   C13   A    
C5    C6    A    
C2    C42   A    
C37   N4    A    
C38   F3    S    
C55   C56   A    
C15   H16   S    
C46   H18   S    
C19   F1    S    
C9    N2    A    
C40   C44   A    
C20   C21   A    
C45   C46   A    
C42   C43   A    
C27   C28   A    
C14   C15   A    
Cu1   O10   S    
C41   N1    A    
C4    C9    A    
C12   O6    A    
C53   H24   S    
