data_mof_unit_22892.cif
_audit_creation_date              2013-03-05T15:49:56-0500
_audit_creation_method            fapswitch 2.2
_symmetry_space_group_name_H-M    P1
_symmetry_Int_Tables_number       1
_space_group_crystal_system       triclinic
_cell_length_a                    21.686869
_cell_length_b                    21.68683
_cell_length_c                    38.807573
_cell_angle_alpha                 90.001136
_cell_angle_beta                  90.000821
_cell_angle_gamma                 89.999577
_cell_volume                      18251.9560431

loop_
_atom_site_label
_atom_site_type_symbol
_atom_site_description
_atom_site_fract_x
_atom_site_fract_y
_atom_site_fract_z
_atom_type_partial_charge
O1    O     O_R   0.551620 0.091530 0.500110 -0.623080
O2    O     O_R   0.908470 0.551620 0.500110 -0.623094
O3    O     O_R   0.448380 0.908470 0.500110 -0.623106
O4    O     O_R   0.091530 0.448380 0.500110 -0.623108
O5    O     O_R   0.551620 0.908470 0.499890 -0.623087
O6    O     O_R   0.908470 0.448380 0.499890 -0.623106
O7    O     O_R   0.448380 0.091530 0.499890 -0.623108
O8    O     O_R   0.091530 0.551620 0.499890 -0.623087
O9    O     O_R   0.051620 0.591530 0.000110 -0.623076
O10   O     O_R   0.408470 0.051620 0.000110 -0.623083
O11   O     O_R   0.948380 0.408470 0.000110 -0.623100
O12   O     O_R   0.591530 0.948380 0.000110 -0.623110
O13   O     O_R   0.051620 0.408470 0.999890 -0.623084
O14   O     O_R   0.408470 0.948380 0.999890 -0.623106
O15   O     O_R   0.948380 0.591530 0.999890 -0.623109
O16   O     O_R   0.591530 0.051620 0.999890 -0.623092
C1    C     C_R   0.500000 0.120076 0.500000 0.864815
C2    C     C_R   0.879923 0.500000 0.500000 0.864865
C3    C     C_R   0.500000 0.879924 0.500000 0.864839
C4    C     C_R   0.120076 0.500000 0.500000 0.864813
C5    C     C_R   1.000000 0.620076 1.000000 0.864827
C6    C     C_R   0.379923 1.000000 1.000000 0.864899
C7    C     C_R   0.000000 0.379924 0.000000 0.864815
C8    C     C_R   0.620076 1.000000 0.000000 0.864787
O17   O     O_R   0.551620 0.999930 0.449180 -0.601679
O18   O     O_R   0.000070 0.551620 0.449180 -0.601633
O19   O     O_R   0.448380 0.000070 0.449180 -0.601758
O20   O     O_R   0.999930 0.448380 0.449180 -0.601916
O21   O     O_R   0.551620 0.000070 0.550820 -0.601666
O22   O     O_R   0.000070 0.448380 0.550820 -0.601725
O23   O     O_R   0.448380 0.999930 0.550820 -0.601789
O24   O     O_R   0.999930 0.551620 0.550820 -0.601722
O25   O     O_R   0.051620 0.499930 0.949180 -0.601684
O26   O     O_R   0.500070 0.051620 0.949180 -0.601577
O27   O     O_R   0.948380 0.500070 0.949180 -0.601766
O28   O     O_R   0.499930 0.948380 0.949180 -0.602191
O29   O     O_R   0.051620 0.500070 0.050820 -0.601720
O30   O     O_R   0.500070 0.948380 0.050820 -0.601678
O31   O     O_R   0.948380 0.499930 0.050820 -0.601685
O32   O     O_R   0.499930 0.051620 0.050820 -0.601700
C9    C     C_R   0.499999 0.999999 0.432777 0.943446
C10   C     C_R   0.000002 0.499999 0.432777 0.943363
C11   C     C_R   0.500001 0.000006 0.567222 0.943430
C12   C     C_R   0.000001 0.500000 0.567223 0.943442
C13   C     C_R   1.000000 0.499999 0.932777 0.943438
C14   C     C_R   0.500007 0.999999 0.932777 0.943209
C15   C     C_R   0.000001 0.500002 0.067223 0.943459
C16   C     C_R   0.500001 0.000000 0.067223 0.943462
Zn1   Zn    Zn3+2 0.568970 0.000000 0.500000 0.971182
Zn2   Zn    Zn3+2 0.000000 0.568970 0.500000 0.971182
Zn3   Zn    Zn3+2 0.431030 0.000000 0.500000 0.971173
Zn4   Zn    Zn3+2 0.000000 0.431030 0.500000 0.971189
Zn5   Zn    Zn3+2 0.068970 0.500000 0.000000 0.971197
Zn6   Zn    Zn3+2 0.500000 0.068970 0.000000 0.971189
Zn7   Zn    Zn3+2 0.931030 0.500000 0.000000 0.971163
Zn8   Zn    Zn3+2 0.500000 0.931030 0.000000 0.971290
Zn9   Zn    Zn3+2 0.500000 0.500000 0.538510 1.056426
Zn10  Zn    Zn3+2 0.500000 0.500000 0.461490 1.056439
Zn11  Zn    Zn3+2 0.000000 1.000000 0.038510 1.056417
Zn12  Zn    Zn3+2 0.000000 0.000000 0.961490 1.056413
C17   C     C_R   0.450835 0.027522 0.376727 0.409371
C18   C     C_R   0.972489 0.450839 0.376722 0.409281
C19   C     C_R   0.549165 0.972468 0.376729 0.409438
C20   C     C_R   0.027555 0.549162 0.376732 0.409505
C21   C     C_R   0.450841 0.972519 0.623278 0.409357
C22   C     C_R   0.972476 0.549167 0.623273 0.409413
C23   C     C_R   0.549170 0.027574 0.623265 0.409446
C24   C     C_R   0.027533 0.450837 0.623272 0.409389
C25   C     C_R   0.950835 0.527524 0.876727 0.409375
C26   C     C_R   0.472514 0.950852 0.876713 0.409139
C27   C     C_R   0.049164 0.472467 0.876729 0.409434
C28   C     C_R   0.527605 0.049161 0.876738 0.409622
C29   C     C_R   0.950837 0.472487 0.123273 0.409421
C30   C     C_R   0.472480 0.049169 0.123272 0.409424
C31   C     C_R   0.049169 0.527537 0.123270 0.409394
C32   C     C_R   0.527530 0.950835 0.123271 0.409401
C33   C     C_R   0.452230 0.028840 0.340748 -0.248510
C34   C     C_R   0.971174 0.452240 0.340744 -0.248298
C35   C     C_R   0.547775 0.971149 0.340750 -0.248601
C36   C     C_R   0.028879 0.547774 0.340753 -0.248586
C37   C     C_R   0.452239 0.971225 0.659257 -0.248473
C38   C     C_R   0.971159 0.547774 0.659251 -0.248550
C39   C     C_R   0.547782 0.028917 0.659243 -0.248591
C40   C     C_R   0.028853 0.452231 0.659250 -0.248532
C41   C     C_R   0.952229 0.528841 0.840748 -0.248508
C42   C     C_R   0.471203 0.952272 0.840737 -0.247919
C43   C     C_R   0.047773 0.471148 0.840750 -0.248580
C44   C     C_R   0.528941 0.047785 0.840758 -0.248551
C45   C     C_R   0.952231 0.471176 0.159252 -0.248600
C46   C     C_R   0.471164 0.047777 0.159251 -0.248598
C47   C     C_R   0.047778 0.528862 0.159249 -0.248565
C48   C     C_R   0.528850 0.952229 0.159250 -0.248575
H1    H     H_    0.415456 0.052136 0.327076 0.177671
H2    H     H_    0.947872 0.415471 0.327070 0.177764
H3    H     H_    0.584551 0.947855 0.327079 0.177632
H4    H     H_    0.052180 0.584549 0.327084 0.177637
H5    H     H_    0.415467 0.947935 0.672933 0.177692
H6    H     H_    0.947864 0.584549 0.672924 0.177655
H7    H     H_    0.584559 0.052219 0.672910 0.177635
H8    H     H_    0.052149 0.415456 0.672921 0.177661
H9    H     H_    0.915455 0.552138 0.827076 0.177674
H10   H     H_    0.447886 0.915516 0.827059 0.177934
H11   H     H_    0.084548 0.447852 0.827078 0.177643
H12   H     H_    0.552253 0.084557 0.827094 0.177649
H13   H     H_    0.915457 0.447884 0.172925 0.177635
H14   H     H_    0.447872 0.084553 0.172924 0.177636
H15   H     H_    0.084555 0.552158 0.172920 0.177647
H16   H     H_    0.552144 0.915453 0.172922 0.177642
C49   C     C_R   0.500003 0.999995 0.322629 -0.038526
C50   C     C_R   0.000028 0.500010 0.322628 -0.038621
C51   C     C_R   0.500014 0.000081 0.677370 -0.038544
C52   C     C_R   0.000006 0.500002 0.677371 -0.038536
C53   C     C_R   0.000002 0.499995 0.822629 -0.038536
C54   C     C_R   0.500075 0.000038 0.822628 -0.038801
C55   C     C_R   0.000006 0.500022 0.177370 -0.038503
C56   C     C_R   0.500008 0.000003 0.177370 -0.038500
C57   C     C_R   0.499999 0.999995 0.394943 -0.243917
C58   C     C_R   0.000017 0.499998 0.394942 -0.244047
C59   C     C_R   0.500004 0.000033 0.605057 -0.243936
C60   C     C_R   0.000003 0.500001 0.605057 -0.243936
C61   C     C_R   0.999999 0.499996 0.894943 -0.243924
C62   C     C_R   0.500047 0.999999 0.894942 -0.244279
C63   C     C_R   0.000003 0.500008 0.105057 -0.243882
C64   C     C_R   0.500003 0.000001 0.105057 -0.243892
N1    N     N_R   0.538140 0.961939 0.267113 -0.165597
N2    N     N_R   0.038081 0.538149 0.267112 -0.165587
N3    N     N_R   0.461874 0.038058 0.267113 -0.165599
N4    N     N_R   0.961958 0.461889 0.267112 -0.165598
N5    N     N_R   0.538177 0.038129 0.732885 -0.165594
N6    N     N_R   0.038064 0.461866 0.732886 -0.165597
N7    N     N_R   0.461894 0.962029 0.732887 -0.165584
N8    N     N_R   0.961947 0.538134 0.732887 -0.165594
N9    N     N_R   0.038138 0.461940 0.767113 -0.165594
N10   N     N_R   0.538118 0.038193 0.767111 -0.165571
N11   N     N_R   0.961871 0.538056 0.767113 -0.165597
N12   N     N_R   0.461985 0.961942 0.767112 -0.165594
N13   N     N_R   0.038150 0.538077 0.232886 -0.165600
N14   N     N_R   0.538065 0.961866 0.232886 -0.165601
N15   N     N_R   0.961877 0.461967 0.232886 -0.165592
N16   N     N_R   0.461951 0.038136 0.232887 -0.165597
C65   C     C_R   0.500008 0.000002 0.215146 0.347595
C66   C     C_R   0.000011 0.500023 0.215145 0.347596
C67   C     C_R   0.500061 0.000060 0.784853 0.347596
C68   C     C_R   0.000004 0.499997 0.784854 0.347594
C69   C     C_R   0.000006 0.500001 0.715146 0.347595
C70   C     C_R   0.500027 0.000083 0.715145 0.347601
C71   C     C_R   0.000023 0.500017 0.284853 0.347594
C72   C     C_R   0.500006 0.999997 0.284854 0.347594
H17   H     H_    0.653450 0.195372 0.582524 0.195709
H18   H     H_    0.804629 0.653485 0.582506 0.195696
H19   H     H_    0.346535 0.804638 0.582514 0.195720
H20   H     H_    0.195373 0.346546 0.582520 0.195713
H21   H     H_    0.653465 0.804625 0.417485 0.195696
H22   H     H_    0.804631 0.346490 0.417509 0.195754
H23   H     H_    0.346538 0.195366 0.417481 0.195720
H24   H     H_    0.195367 0.653442 0.417474 0.195710
H25   H     H_    0.153460 0.695371 0.082519 0.195706
H26   H     H_    0.304625 0.153511 0.082490 0.195672
H27   H     H_    0.846561 0.304637 0.082529 0.195703
H28   H     H_    0.695371 0.846552 0.082524 0.195709
H29   H     H_    0.153444 0.304627 0.917474 0.195707
H30   H     H_    0.304635 0.846420 0.917550 0.195828
H31   H     H_    0.846536 0.695366 0.917483 0.195721
H32   H     H_    0.695370 0.153438 0.917472 0.195726
C73   C     C_R   0.420877 0.188388 0.453449 -0.183267
C74   C     C_R   0.811608 0.420855 0.453461 -0.183302
C75   C     C_R   0.579126 0.811608 0.453452 -0.183256
C76   C     C_R   0.188388 0.579113 0.453447 -0.183258
C77   C     C_R   0.420877 0.811613 0.546549 -0.183272
C78   C     C_R   0.811609 0.579136 0.546544 -0.183256
C79   C     C_R   0.579117 0.188391 0.546552 -0.183247
C80   C     C_R   0.188392 0.420881 0.546551 -0.183269
C81   C     C_R   0.920876 0.688388 0.953450 -0.183264
C82   C     C_R   0.311606 0.920823 0.953477 -0.183369
C83   C     C_R   0.079114 0.311609 0.953447 -0.183260
C84   C     C_R   0.688389 0.079112 0.953447 -0.183269
C85   C     C_R   0.920890 0.311614 0.046555 -0.183249
C86   C     C_R   0.311607 0.079150 0.046536 -0.183253
C87   C     C_R   0.079121 0.688391 0.046550 -0.183256
C88   C     C_R   0.688391 0.920885 0.046552 -0.183265
C89   C     C_R   0.374998 0.220193 0.435687 -0.189319
C90   C     C_R   0.779803 0.374963 0.435709 -0.189315
C91   C     C_R   0.625006 0.779801 0.435692 -0.189304
C92   C     C_R   0.220193 0.624988 0.435683 -0.189307
C93   C     C_R   0.374996 0.779809 0.564309 -0.189321
C94   C     C_R   0.779803 0.625021 0.564301 -0.189316
C95   C     C_R   0.624994 0.220197 0.564315 -0.189303
C96   C     C_R   0.220198 0.375003 0.564313 -0.189320
C97   C     C_R   0.874996 0.720194 0.935689 -0.189323
C98   C     C_R   0.279804 0.874913 0.935738 -0.189320
C99   C     C_R   0.124989 0.279802 0.935683 -0.189305
C100  C     C_R   0.720195 0.124986 0.935682 -0.189295
C101  C     C_R   0.875015 0.279809 0.064320 -0.189320
C102  C     C_R   0.279800 0.125042 0.064288 -0.189333
C103  C     C_R   0.125001 0.720196 0.064312 -0.189306
C104  C     C_R   0.720197 0.875008 0.064316 -0.189321
C105  C     C_R   0.365281 0.282939 0.441790 0.354952
C106  C     C_R   0.717058 0.365250 0.441812 0.354965
C107  C     C_R   0.634721 0.717055 0.441794 0.354934
C108  C     C_R   0.282938 0.634708 0.441786 0.354940
C109  C     C_R   0.365279 0.717063 0.558206 0.354957
C110  C     C_R   0.717057 0.634736 0.558197 0.354963
C111  C     C_R   0.634714 0.282942 0.558212 0.354935
C112  C     C_R   0.282944 0.365285 0.558210 0.354949
C113  C     C_R   0.865280 0.782940 0.941791 0.354957
C114  C     C_R   0.217057 0.865208 0.941842 0.354990
C115  C     C_R   0.134708 0.217057 0.941786 0.354936
C116  C     C_R   0.782940 0.134706 0.941785 0.354928
C117  C     C_R   0.865295 0.217064 0.058217 0.354944
C118  C     C_R   0.217055 0.134755 0.058182 0.354974
C119  C     C_R   0.134719 0.782942 0.058209 0.354942
C120  C     C_R   0.782942 0.865288 0.058213 0.354944
C121  C     C_R   0.405427 0.313992 0.464130 -0.224139
C122  C     C_R   0.686006 0.405410 0.464145 -0.224121
C123  C     C_R   0.594573 0.686004 0.464133 -0.224116
C124  C     C_R   0.313990 0.594568 0.464129 -0.224123
C125  C     C_R   0.405426 0.686010 0.535867 -0.224133
C126  C     C_R   0.686006 0.594583 0.535860 -0.224166
C127  C     C_R   0.594572 0.313993 0.535869 -0.224107
C128  C     C_R   0.313994 0.405428 0.535868 -0.224126
C129  C     C_R   0.905426 0.813992 0.964131 -0.224147
C130  C     C_R   0.186003 0.905390 0.964161 -0.224136
C131  C     C_R   0.094568 0.186006 0.964128 -0.224106
C132  C     C_R   0.813991 0.094567 0.964129 -0.224124
C133  C     C_R   0.905434 0.186011 0.035873 -0.224134
C134  C     C_R   0.186004 0.094595 0.035849 -0.224136
C135  C     C_R   0.094573 0.813993 0.035868 -0.224097
C136  C     C_R   0.813993 0.905429 0.035870 -0.224126
C137  C     C_R   0.454535 0.282767 0.480853 0.052218
C138  C     C_R   0.717232 0.454526 0.480860 0.052227
C139  C     C_R   0.545465 0.717231 0.480855 0.052240
C140  C     C_R   0.282766 0.545461 0.480853 0.052227
C141  C     C_R   0.454535 0.717234 0.519146 0.052212
C142  C     C_R   0.717232 0.545470 0.519142 0.052185
C143  C     C_R   0.545463 0.282767 0.519146 0.052256
C144  C     C_R   0.282768 0.454536 0.519146 0.052222
C145  C     C_R   0.954535 0.782767 0.980854 0.052215
C146  C     C_R   0.217230 0.954515 0.980868 0.052226
C147  C     C_R   0.045462 0.217232 0.980853 0.052261
C148  C     C_R   0.782767 0.045461 0.980853 0.052221
C149  C     C_R   0.954540 0.217235 0.019149 0.052214
C150  C     C_R   0.217231 0.045476 0.019137 0.052213
C151  C     C_R   0.045465 0.782767 0.019145 0.052289
C152  C     C_R   0.782768 0.954536 0.019147 0.052222
C153  C     C_R   0.458561 0.218560 0.478083 0.081859
C154  C     C_R   0.781438 0.458551 0.478089 0.081869
C155  C     C_R   0.541440 0.781438 0.478085 0.081841
C156  C     C_R   0.218560 0.541434 0.478082 0.081832
C157  C     C_R   0.458562 0.781441 0.521916 0.081866
C158  C     C_R   0.781439 0.541445 0.521913 0.081840
C159  C     C_R   0.541436 0.218561 0.521917 0.081835
C160  C     C_R   0.218562 0.458563 0.521916 0.081847
C161  C     C_R   0.958561 0.718560 0.978084 0.081868
C162  C     C_R   0.281437 0.958537 0.978097 0.081926
C163  C     C_R   0.041435 0.281439 0.978083 0.081848
C164  C     C_R   0.718560 0.041433 0.978082 0.081818
C165  C     C_R   0.958568 0.281441 0.021919 0.081848
C166  C     C_R   0.281437 0.041452 0.021908 0.081848
C167  C     C_R   0.041438 0.718561 0.021916 0.081861
C168  C     C_R   0.718561 0.958564 0.021917 0.081838
C169  C     C_R   0.500000 0.314292 0.499999 -0.091519
C170  C     C_R   0.685708 0.499999 0.500001 -0.091535
C171  C     C_R   0.500000 0.685708 0.500001 -0.091529
C172  C     C_R   0.314292 0.499999 0.499999 -0.091535
C173  C     C_R   0.000000 0.814292 0.999999 -0.091505
C174  C     C_R   0.185707 0.999998 0.000001 -0.091523
C175  C     C_R   0.000001 0.185709 0.000001 -0.091521
C176  C     C_R   0.814292 0.999999 1.000000 -0.091541
C177  C     C_R   0.499999 0.186570 0.500000 -0.150116
C178  C     C_R   0.813429 0.499999 0.500000 -0.150161
C179  C     C_R   0.500001 0.813430 0.500000 -0.150129
C180  C     C_R   0.186570 0.499999 0.500000 -0.150135
C181  C     C_R   1.000000 0.686570 1.000000 -0.150103
C182  C     C_R   0.313428 0.999998 0.000001 -0.150180
C183  C     C_R   0.000001 0.313430 0.000000 -0.150111
C184  C     C_R   0.686570 0.999999 0.000000 -0.150149
H33   H     H_    0.426533 0.140213 0.447213 0.209228
H34   H     H_    0.859781 0.426510 0.447221 0.209200
H35   H     H_    0.573469 0.859782 0.447215 0.209233
H36   H     H_    0.140214 0.573454 0.447211 0.209252
H37   H     H_    0.426534 0.859788 0.552786 0.209200
H38   H     H_    0.859783 0.573480 0.552782 0.209231
H39   H     H_    0.573458 0.140218 0.552789 0.209258
H40   H     H_    0.140218 0.426538 0.552787 0.209231
H41   H     H_    0.926532 0.640214 0.947214 0.209228
H42   H     H_    0.359778 0.926474 0.947234 0.209158
H43   H     H_    0.073456 0.359783 0.947211 0.209230
H44   H     H_    0.640215 0.073454 0.947211 0.209286
H45   H     H_    0.926549 0.359788 0.052791 0.209227
H46   H     H_    0.359779 0.073495 0.052777 0.209232
H47   H     H_    0.073464 0.640217 0.052787 0.209232
H48   H     H_    0.640217 0.926543 0.052789 0.209233
H49   H     H_    0.397640 0.362589 0.468414 0.174605
H50   H     H_    0.637408 0.397629 0.468428 0.174583
H51   H     H_    0.602360 0.637408 0.468418 0.174598
H52   H     H_    0.362586 0.602357 0.468414 0.174605
H53   H     H_    0.397639 0.637413 0.531583 0.174602
H54   H     H_    0.637409 0.602367 0.531576 0.174593
H55   H     H_    0.602360 0.362589 0.531585 0.174599
H56   H     H_    0.362590 0.397640 0.531584 0.174604
H57   H     H_    0.897640 0.862589 0.968415 0.174606
H58   H     H_    0.137404 0.897616 0.968443 0.174564
H59   H     H_    0.102357 0.137410 0.968412 0.174601
H60   H     H_    0.862587 0.102357 0.968414 0.174609
H61   H     H_    0.897644 0.137415 0.031589 0.174612
H62   H     H_    0.137406 0.102376 0.031565 0.174576
H63   H     H_    0.102360 0.862590 0.031585 0.174592
H64   H     H_    0.862589 0.897641 0.031586 0.174606
O33   O     O_R   0.591500 0.499930 0.528880 -0.606064
O34   O     O_R   0.500070 0.591500 0.528880 -0.606067
O35   O     O_R   0.408500 0.500070 0.528880 -0.606067
O36   O     O_R   0.499930 0.408500 0.528880 -0.606073
O37   O     O_R   0.591500 0.500070 0.471120 -0.606049
O38   O     O_R   0.500070 0.408500 0.471120 -0.606071
O39   O     O_R   0.408500 0.499930 0.471120 -0.606073
O40   O     O_R   0.499930 0.591500 0.471120 -0.606061
O41   O     O_R   0.091500 0.999930 0.028880 -0.606066
O42   O     O_R   0.000070 0.091500 0.028880 -0.606068
O43   O     O_R   0.908500 0.000070 0.028880 -0.606067
O44   O     O_R   0.999930 0.908500 0.028880 -0.606079
O45   O     O_R   0.091500 0.000070 0.971120 -0.606059
O46   O     O_R   0.000070 0.908500 0.971120 -0.606070
O47   O     O_R   0.908500 0.999930 0.971120 -0.606070
O48   O     O_R   0.999930 0.091500 0.971120 -0.606075
C185  C     C_R   0.619711 0.500000 0.500000 0.824842
C186  C     C_R   0.499999 0.619711 0.500000 0.824834
C187  C     C_R   0.380289 0.500000 0.500000 0.824833
C188  C     C_R   0.500000 0.380289 0.500000 0.824828
C189  C     C_R   0.119711 1.000000 0.000000 0.824848
C190  C     C_R   1.000000 0.119711 0.000000 0.824834
C191  C     C_R   0.880289 0.999999 1.000000 0.824840
C192  C     C_R   0.000000 0.880289 1.000000 0.824826
O49   O     O_3   0.404259 0.058023 0.394158 -0.612932
C193  C     C_3   0.349309 0.023350 0.391539 0.130797
H65   H     H_    0.356789 0.974427 0.399393 0.158030
H66   H     H_    0.331009 0.024635 0.364757 0.145074
C194  C     C_3   0.301033 0.050963 0.415412 -0.782393
H67   H     H_    0.289825 0.098673 0.407167 0.253899
H68   H     H_    0.258331 0.022756 0.414523 0.211985
H69   H     H_    0.318609 0.051870 0.442299 0.256223
O50   O     O_3   0.941960 0.404271 0.394143 -0.612903
C195  C     C_3   0.976689 0.349347 0.391587 0.130890
H70   H     H_    0.025511 0.356839 0.399639 0.158239
H71   H     H_    0.975751 0.331138 0.364777 0.144906
C196  C     C_3   0.948805 0.300965 0.415298 -0.782538
H72   H     H_    0.901222 0.289717 0.406829 0.253999
H73   H     H_    0.977083 0.258303 0.414494 0.212028
H74   H     H_    0.947495 0.318462 0.442199 0.256148
O51   O     O_3   0.595745 0.941979 0.394165 -0.612941
C197  C     C_3   0.650705 0.976630 0.391522 0.130775
H75   H     H_    0.643228 0.025595 0.399297 0.157950
H76   H     H_    0.669041 0.975204 0.364752 0.145132
C198  C     C_3   0.698939 0.949130 0.415462 -0.782294
H77   H     H_    0.710137 0.901370 0.407306 0.253854
H78   H     H_    0.741654 0.977312 0.414542 0.211967
H79   H     H_    0.681329 0.948383 0.442342 0.256244
O52   O     O_3   0.058041 0.595740 0.394171 -0.612963
C199  C     C_3   0.023390 0.650701 0.391526 0.130766
H80   H     H_    0.974428 0.643226 0.399305 0.157970
H81   H     H_    0.024809 0.669033 0.364756 0.145132
C200  C     C_3   0.050896 0.698938 0.415462 -0.782337
H82   H     H_    0.098653 0.710134 0.407301 0.253855
H83   H     H_    0.022712 0.741654 0.414541 0.211974
H84   H     H_    0.051651 0.681333 0.442343 0.256249
O53   O     O_3   0.404267 0.942000 0.605854 -0.612907
C201  C     C_3   0.349319 0.976680 0.608457 0.130819
H85   H     H_    0.356797 0.025583 0.600561 0.158062
H86   H     H_    0.331036 0.975467 0.635244 0.145045
C202  C     C_3   0.301026 0.949005 0.584616 -0.782405
H87   H     H_    0.289816 0.901319 0.592906 0.253922
H88   H     H_    0.258328 0.977222 0.585487 0.211991
H89   H     H_    0.318587 0.948018 0.557726 0.256207
O54   O     O_3   0.941979 0.595744 0.605840 -0.612930
C203  C     C_3   0.976642 0.650698 0.608470 0.130793
H90   H     H_    0.025584 0.643219 0.600652 0.157988
H91   H     H_    0.975292 0.669016 0.635246 0.145101
C204  C     C_3   0.949081 0.698953 0.584565 -0.782344
H92   H     H_    0.901348 0.710158 0.592769 0.253873
H93   H     H_    0.977279 0.741662 0.585468 0.211977
H94   H     H_    0.948249 0.681360 0.557681 0.256228
O55   O     O_3   0.595750 0.058050 0.605823 -0.612964
C205  C     C_3   0.650709 0.023398 0.608473 0.130765
H95   H     H_    0.643231 0.974431 0.600704 0.157960
H96   H     H_    0.669044 0.024834 0.635243 0.145136
C206  C     C_3   0.698945 0.050886 0.584531 -0.782328
H97   H     H_    0.710141 0.098649 0.592681 0.253850
H98   H     H_    0.741661 0.022703 0.585458 0.211971
H99   H     H_    0.681339 0.051620 0.557651 0.256249
O56   O     O_3   0.058029 0.404260 0.605838 -0.612943
C207  C     C_3   0.023361 0.349308 0.608463 0.130846
H100  H     H_    0.974421 0.356791 0.600634 0.157977
H101  H     H_    0.024694 0.330992 0.635241 0.145069
C208  C     C_3   0.050936 0.301048 0.584562 -0.782252
H102  H     H_    0.098668 0.289839 0.592777 0.253856
H103  H     H_    0.022734 0.258342 0.585460 0.211961
H104  H     H_    0.051787 0.318640 0.557676 0.256213
O57   O     O_3   0.904259 0.558025 0.894158 -0.612933
C209  C     C_3   0.849310 0.523351 0.891540 0.130812
H105  H     H_    0.856792 0.474428 0.899396 0.158026
H106  H     H_    0.831010 0.524633 0.864758 0.145069
C210  C     C_3   0.801034 0.550966 0.915414 -0.782381
H107  H     H_    0.789823 0.598675 0.907167 0.253894
H108  H     H_    0.758333 0.522756 0.914526 0.211984
H109  H     H_    0.818611 0.551876 0.942301 0.256216
O58   O     O_3   0.441929 0.904300 0.894113 -0.612851
C211  C     C_3   0.476741 0.849415 0.891662 0.130946
H110  H     H_    0.525362 0.856903 0.900086 0.158680
H111  H     H_    0.476455 0.831401 0.864802 0.144622
C212  C     C_3   0.448335 0.800823 0.915047 -0.782968
H112  H     H_    0.401000 0.789536 0.906158 0.254238
H113  H     H_    0.476719 0.758223 0.914388 0.212143
H114  H     H_    0.446275 0.818142 0.941973 0.256035
O59   O     O_3   0.095742 0.441974 0.894164 -0.612944
C213  C     C_3   0.150702 0.476627 0.891525 0.130761
H115  H     H_    0.143228 0.525582 0.899318 0.157986
H116  H     H_    0.169028 0.475231 0.864752 0.145126
C214  C     C_3   0.198944 0.449100 0.915448 -0.782331
H117  H     H_    0.210137 0.401349 0.907274 0.253869
H118  H     H_    0.241661 0.477283 0.914532 0.211978
H119  H     H_    0.181346 0.448323 0.942330 0.256245
O60   O     O_3   0.558089 0.095733 0.894183 -0.613003
C215  C     C_3   0.523432 0.150692 0.891547 0.130781
H120  H     H_    0.474476 0.143211 0.899336 0.157998
H121  H     H_    0.524829 0.169025 0.864776 0.145116
C216  C     C_3   0.550952 0.198931 0.915477 -0.782377
H122  H     H_    0.598696 0.210147 0.907299 0.253844
H123  H     H_    0.522752 0.241637 0.914572 0.211976
H124  H     H_    0.551747 0.181317 0.942357 0.256255
O61   O     O_3   0.904257 0.441994 0.105839 -0.612933
C217  C     C_3   0.849295 0.476642 0.108485 0.130765
H125  H     H_    0.856765 0.525603 0.100704 0.157948
H126  H     H_    0.830966 0.475224 0.135256 0.145135
C218  C     C_3   0.801057 0.449130 0.084552 -0.782323
H127  H     H_    0.789873 0.401369 0.092710 0.253865
H128  H     H_    0.758336 0.477305 0.085477 0.211968
H129  H     H_    0.818656 0.448382 0.057670 0.256243
O62   O     O_3   0.441990 0.095749 0.105838 -0.612915
C219  C     C_3   0.476642 0.150709 0.108482 0.130776
H130  H     H_    0.525601 0.143234 0.100698 0.157949
H131  H     H_    0.475232 0.169038 0.135254 0.145129
C220  C     C_3   0.449128 0.198949 0.084553 -0.782345
H132  H     H_    0.401372 0.210140 0.092717 0.253862
H133  H     H_    0.477308 0.241667 0.085475 0.211973
H134  H     H_    0.448370 0.181350 0.057670 0.256234
O63   O     O_3   0.095747 0.558027 0.105834 -0.612941
C221  C     C_3   0.150703 0.523368 0.108470 0.130782
H135  H     H_    0.143225 0.474418 0.100667 0.157983
H136  H     H_    0.169026 0.524744 0.135245 0.145110
C222  C     C_3   0.198952 0.550907 0.084555 -0.782321
H137  H     H_    0.210151 0.598650 0.092742 0.253866
H138  H     H_    0.241664 0.522716 0.085465 0.211974
H139  H     H_    0.181355 0.551707 0.057671 0.256236
O64   O     O_3   0.558021 0.904256 0.105836 -0.612939
C223  C     C_3   0.523366 0.849297 0.108476 0.130770
H140  H     H_    0.474413 0.856772 0.100679 0.157968
H141  H     H_    0.524756 0.830974 0.135249 0.145117
C224  C     C_3   0.550898 0.801051 0.084555 -0.782317
H142  H     H_    0.598646 0.789856 0.092734 0.253863
H143  H     H_    0.522712 0.758336 0.085470 0.211969
H144  H     H_    0.551683 0.818646 0.057672 0.256255
N17   N     N_R   0.315701 0.315271 0.424937 0.214775
O65   O     O_R   0.279209 0.286556 0.403688 -0.381144
O66   O     O_R   0.305898 0.373462 0.431099 -0.386219
N18   N     N_R   0.684726 0.315659 0.424970 0.214783
O67   O     O_R   0.713439 0.279156 0.403725 -0.381147
O68   O     O_R   0.626537 0.305858 0.431134 -0.386223
N19   N     N_R   0.684302 0.684721 0.424942 0.214768
O69   O     O_R   0.720866 0.713463 0.403742 -0.381152
O70   O     O_R   0.694028 0.626499 0.431052 -0.386137
N20   N     N_R   0.315269 0.684286 0.424932 0.214777
O71   O     O_R   0.286553 0.720776 0.403682 -0.381128
O72   O     O_R   0.373461 0.694086 0.431092 -0.386203
N21   N     N_R   0.315697 0.684733 0.575057 0.214780
O73   O     O_R   0.279201 0.713450 0.596303 -0.381128
O74   O     O_R   0.305899 0.626541 0.568897 -0.386203
N22   N     N_R   0.684725 0.684321 0.575045 0.214781
O75   O     O_R   0.713439 0.720820 0.596291 -0.381118
O76   O     O_R   0.626534 0.694120 0.568883 -0.386208
N23   N     N_R   0.684293 0.315274 0.575065 0.214777
O77   O     O_R   0.720783 0.286560 0.596316 -0.381124
O78   O     O_R   0.694094 0.373465 0.568905 -0.386201
N24   N     N_R   0.315277 0.315706 0.575062 0.214776
O79   O     O_R   0.286563 0.279216 0.596313 -0.381134
O80   O     O_R   0.373467 0.305905 0.568901 -0.386212
N25   N     N_R   0.815699 0.815272 0.924939 0.214769
O81   O     O_R   0.779208 0.786558 0.903689 -0.381160
O82   O     O_R   0.805898 0.873463 0.931101 -0.386233
N26   N     N_R   0.184725 0.815603 0.925011 0.214787
O83   O     O_R   0.213441 0.779081 0.903778 -0.381191
O84   O     O_R   0.126535 0.805810 0.931176 -0.386250
N27   N     N_R   0.184286 0.184724 0.924931 0.214781
O85   O     O_R   0.220776 0.213438 0.903681 -0.381102
O86   O     O_R   0.194086 0.126533 0.931091 -0.386178
N28   N     N_R   0.815272 0.184282 0.924930 0.214777
O87   O     O_R   0.786559 0.220764 0.903675 -0.381127
O88   O     O_R   0.873461 0.194087 0.931092 -0.386204
N29   N     N_R   0.815718 0.184733 0.075071 0.214778
O89   O     O_R   0.779227 0.213450 0.096321 -0.381120
O90   O     O_R   0.805917 0.126542 0.068913 -0.386194
N30   N     N_R   0.184722 0.184347 0.075024 0.214779
O91   O     O_R   0.213434 0.220850 0.096269 -0.381128
O92   O     O_R   0.126533 0.194148 0.068857 -0.386235
N31   N     N_R   0.184299 0.815274 0.075061 0.214775
O93   O     O_R   0.220793 0.786560 0.096310 -0.381126
O94   O     O_R   0.194099 0.873465 0.068901 -0.386212
N32   N     N_R   0.815275 0.815710 0.075066 0.214778
O95   O     O_R   0.786561 0.779222 0.096318 -0.381122
O96   O     O_R   0.873465 0.805907 0.068905 -0.386208

loop_
_geom_bond_atom_site_label_1
_geom_bond_atom_site_label_2
_geom_bond_distance
_ccdc_geom_bond_type
O52   C199  1.412772 S    
C75   H35   1.079414 S    
O25   C13   1.287796 A    
C224  H142  1.109938 S    
H29   C99   1.081672 S    
C159  C177  1.418545 A    
N22   O76   1.301890 A    
C194  H67   1.109967 S    
C162  C182  1.418569 A    
C105  C121  1.401109 A    
C87   C103  1.393154 A    
O62   C219  1.412767 S    
N30   O92   1.301884 A    
C205  H95   1.115751 S    
C85   C101  1.393150 A    
C146  C162  1.399309 A    
N4    N15   1.328230 A    
O18   Zn2   2.007770 S    
C174  C189  1.431249 S    
C120  N32   1.440661 S    
C79   C159  1.417703 A    
O45   C189  1.276875 A    
C94   C110  1.397197 A    
C199  C200  1.520836 S    
C145  C173  1.411244 A    
C216  H122  1.109947 S    
C77   C157  1.417712 A    
C204  H94   1.111020 S    
C86   C166  1.417711 A    
C221  C222  1.520857 S    
C214  H118  1.110415 S    
N10   C67   1.356161 A    
C7    C183  1.442035 S    
C98   C114  1.397195 A    
C123  H51   1.080225 S    
C81   C161  1.417708 A    
N18   O67   1.301588 A    
C222  H138  1.110420 S    
O3    C3    1.279260 A    
C173  C192  1.431266 S    
C46   C56   1.399701 A    
C108  N20   1.440660 S    
C88   C104  1.393151 A    
C127  H55   1.080225 S    
H28   C104  1.081674 S    
C202  H89   1.111056 S    
C28   C44   1.396900 A    
C109  C125  1.401113 A    
C213  H116  1.112816 S    
N27   O86   1.301890 A    
O5    Zn1   2.020352 S    
C198  H78   1.110405 S    
N31   O94   1.301889 A    
C200  H84   1.110987 S    
C165  C183  1.418544 A    
C11   C59   1.468257 S    
C35   C49   1.399703 A    
C40   H8    1.082958 S    
C47   H15   1.082954 S    
N16   C65   1.356156 A    
Zn12  O48   2.019222 S    
C1    C177  1.442040 S    
C125  C141  1.419147 A    
C195  H70   1.115828 S    
C220  H134  1.110975 S    
C207  H101  1.112930 S    
C13   C61   1.468269 S    
N32   O95   1.301593 A    
O49   C193  1.412760 S    
C22   O54   1.383999 S    
C129  C145  1.419143 A    
C74   C154  1.417708 A    
C29   C45   1.396871 A    
C22   C38   1.396869 A    
C86   C102  1.393154 A    
C15   C63   1.468261 S    
C136  C152  1.419141 A    
Zn9   O35   2.019228 S    
C218  H129  1.110976 S    
O44   C192  1.276882 A    
C136  H64   1.080226 S    
C40   C52   1.399700 A    
C196  H74   1.111166 S    
C48   C56   1.399699 A    
Zn11  O44   2.019222 S    
C43   H11   1.082953 S    
N19   O70   1.301942 A    
C112  C128  1.401110 A    
O26   Zn6   2.007770 S    
N24   O80   1.301890 A    
C147  C163  1.399307 A    
O55   C205  1.412771 S    
C224  H144  1.110993 S    
C211  H111  1.113154 S    
C193  H65   1.115764 S    
O27   C13   1.287795 A    
O8    Zn2   2.020347 S    
H30   C98   1.081675 S    
C194  H69   1.111025 S    
C121  C137  1.419145 A    
C76   H36   1.079408 S    
O31   C15   1.287800 A    
O32   C16   1.287796 A    
C122  C138  1.419144 A    
C120  C136  1.401110 A    
C221  H136  1.112840 S    
O20   C10   1.287794 A    
H25   C103  1.081670 S    
C139  C155  1.399308 A    
C151  C173  1.411244 A    
C154  C178  1.418559 A    
C195  C196  1.520976 S    
N2    C71   1.356155 A    
N4    C71   1.356156 A    
N1    N14   1.328238 A    
C134  H62   1.080227 S    
C208  H102  1.110064 S    
C85   H45   1.079414 S    
C53   C68   1.465964 S    
C54   C67   1.465952 S    
C30   C46   1.396873 A    
Zn9   O33   2.019238 S    
C125  H53   1.080225 S    
C131  C147  1.419142 A    
O58   C211  1.412726 S    
C193  C194  1.520867 S    
O9    C5    1.279258 A    
C34   H2    1.082965 S    
O11   C7    1.279258 A    
N26   O83   1.301586 A    
N15   C66   1.356151 A    
C80   C160  1.417709 A    
C77   H37   1.079415 S    
O63   C221  1.412766 S    
C217  H126  1.112811 S    
C43   C53   1.399703 A    
C106  N18   1.440660 S    
C104  C120  1.397199 A    
C115  N27   1.440659 S    
C164  C184  1.418547 A    
O6    Zn4   2.020349 S    
C212  H112  1.110273 S    
O53   C201  1.412758 S    
N32   O96   1.301889 A    
C206  H98   1.110409 S    
C140  C156  1.399308 A    
N13   C66   1.356163 A    
C45   C55   1.399707 A    
C23   C39   1.396874 A    
O60   C215  1.412778 S    
C166  C182  1.418561 A    
C148  C176  1.411240 A    
C152  C168  1.399308 A    
C89   C105  1.397198 A    
C210  H107  1.109988 S    
C111  N23   1.440662 S    
O21   Zn1   2.007779 S    
O61   C217  1.412767 S    
C31   C63   1.411710 A    
C21   O53   1.383992 S    
O23   C11   1.287800 A    
C88   H48   1.079411 S    
C107  C123  1.401122 A    
N8    C69   1.356155 A    
N12   C67   1.356149 A    
C134  C150  1.419141 A    
C112  N24   1.440660 S    
C82   H42   1.079408 S    
C17   O49   1.383993 S    
N30   O91   1.301586 A    
O13   C7    1.279256 A    
C203  H90   1.115766 S    
Zn11  O42   2.019237 S    
O2    Zn2   2.020355 S    
C201  H85   1.115776 S    
C105  N17   1.440661 S    
C48   H16   1.082954 S    
C17   C33   1.396856 A    
O7    C1    1.279258 A    
C149  C175  1.411245 A    
O28   C14   1.287792 A    
C223  H140  1.115756 S    
O26   C14   1.287806 A    
O29   C15   1.287791 A    
C19   O51   1.384008 S    
O30   C16   1.287791 A    
C213  C214  1.520831 S    
C31   C47   1.396867 A    
C141  C171  1.411245 A    
C137  C153  1.399307 A    
C118  C134  1.401107 A    
C197  H75   1.115763 S    
C144  C160  1.399307 A    
C44   H12   1.082956 S    
O19   Zn3   2.007783 S    
C107  N19   1.440673 S    
C208  H104  1.111118 S    
N28   O88   1.301892 A    
C148  C164  1.399306 A    
Zn11  O41   2.019238 S    
C38   H6    1.082955 S    
C32   C64   1.411707 A    
C127  C143  1.419143 A    
C146  C174  1.411235 A    
N7    N12   1.328215 A    
C51   C70   1.465952 S    
C87   C167  1.417705 A    
N20   O71   1.301588 A    
C124  H52   1.080225 S    
C96   C112  1.397197 A    
C56   C65   1.465968 S    
N29   O90   1.301889 A    
C203  C204  1.520862 S    
O15   Zn7   2.020350 S    
C33   C49   1.399699 A    
N25   O81   1.301590 A    
C102  C118  1.397195 A    
C28   O60   1.384003 S    
C26   C62   1.411740 A    
O34   C186  1.276886 A    
O40   C186  1.276881 A    
O46   C192  1.276887 A    
C223  C224  1.520850 S    
C99   C115  1.397198 A    
C212  H114  1.111285 S    
C199  H81   1.112819 S    
C132  C148  1.419142 A    
C201  C202  1.520886 S    
C216  H123  1.110422 S    
O32   Zn6   2.007781 S    
C23   O55   1.384005 S    
C215  H120  1.115762 S    
C209  H106  1.112876 S    
C196  H73   1.110438 S    
N3    N16   1.328238 A    
Zn10  O40   2.019222 S    
C42   H10   1.082979 S    
C2    C178  1.442051 S    
C210  H109  1.111045 S    
C25   C41   1.396859 A    
O18   C10   1.287800 A    
C8    C184  1.442044 S    
H27   C101  1.081669 S    
C139  C171  1.411248 A    
N9    C68   1.356156 A    
C140  C172  1.411241 A    
C76   C156  1.417702 A    
C18   C34   1.396822 A    
C14   C62   1.468281 S    
O23   Zn3   2.007768 S    
C5    C181  1.442040 S    
C138  C154  1.399308 A    
H18   C94   1.081673 S    
N31   O93   1.301594 A    
H23   C89   1.081673 S    
C137  C169  1.411245 A    
C116  C132  1.401103 A    
O12   C8    1.279259 A    
O1    C1    1.279260 A    
O37   C185  1.276878 A    
O14   C6    1.279257 A    
C41   C53   1.399699 A    
O57   C209  1.412762 S    
C24   C60   1.411712 A    
O38   C188  1.276883 A    
C20   C58   1.411724 A    
C128  H56   1.080226 S    
C129  H57   1.080225 S    
C108  C124  1.401107 A    
C150  C174  1.411232 A    
C20   O52   1.384005 S    
C18   O50   1.383964 S    
C204  H93   1.110422 S    
C118  N30   1.440662 S    
C168  C184  1.418546 A    
C142  C170  1.411236 A    
O30   Zn8   2.007766 S    
C215  C216  1.520858 S    
N18   O68   1.301887 A    
C222  H137  1.109951 S    
C176  C191  1.431266 S    
C45   H13   1.082953 S    
C9    C57   1.468273 S    
H32   C100  1.081664 S    
C23   C59   1.411722 A    
O35   C187  1.276883 A    
O39   C187  1.276888 A    
C202  H88   1.110426 S    
C170  C185  1.431260 S    
C30   C64   1.411705 A    
C138  C170  1.411241 A    
N2    N13   1.328245 A    
C135  H63   1.080225 S    
O59   C213  1.412767 S    
C86   H46   1.079410 S    
C150  C166  1.399306 A    
N23   O77   1.301591 A    
H20   C96   1.081673 S    
O33   C185  1.276884 A    
C198  H77   1.109934 S    
H24   C92   1.081670 S    
C141  C157  1.399308 A    
O10   C6    1.279271 A    
C115  C131  1.401108 A    
C200  H83   1.110419 S    
H26   C102  1.081671 S    
C130  H58   1.080228 S    
C145  C161  1.399307 A    
C78   H38   1.079411 S    
C92   C108  1.397195 A    
Zn12  O45   2.019228 S    
C169  C188  1.431266 S    
C19   C57   1.411709 A    
C195  H71   1.113001 S    
C220  H133  1.110410 S    
C12   C60   1.468265 S    
C133  C149  1.419142 A    
C95   C111  1.397194 A    
C78   C158  1.417709 A    
C93   C109  1.397197 A    
C219  H130  1.115747 S    
O22   Zn4   2.007766 S    
C82   C162  1.417717 A    
O31   Zn7   2.007768 S    
C97   C113  1.397197 A    
C218  H128  1.110411 S    
C74   C90   1.393148 A    
Zn10  O38   2.019237 S    
Zn11  O43   2.019228 S    
N3    C72   1.356159 A    
C55   C66   1.465960 S    
C109  N21   1.440663 S    
C143  C169  1.411244 A    
C39   H7    1.082956 S    
O21   C11   1.287787 A    
N6    C69   1.356158 A    
C20   C36   1.396885 A    
O22   C12   1.287795 A    
C117  C133  1.401107 A    
C207  C208  1.520943 S    
N22   O75   1.301592 A    
C194  H68   1.110421 S    
C27   C61   1.411711 A    
O13   Zn5   2.020352 S    
O51   C197  1.412772 S    
C29   O61   1.384007 S    
C17   C57   1.411707 A    
C24   C40   1.396861 A    
C46   H14   1.082955 S    
O3    Zn3   2.020346 S    
C10   C58   1.468273 S    
C142  C158  1.399309 A    
C197  C198  1.520861 S    
N17   O65   1.301586 A    
C163  C183  1.418545 A    
C219  C220  1.520838 S    
C38   C52   1.399703 A    
C35   H3    1.082954 S    
O28   Zn8   2.007784 S    
C155  C179  1.418556 A    
C21   C37   1.396842 A    
C156  C180  1.418547 A    
C222  H139  1.111009 S    
C78   C94   1.393151 A    
N26   O84   1.301887 A    
C21   C59   1.411695 A    
C147  C175  1.411246 A    
H31   C97   1.081673 S    
C30   O62   1.384007 S    
C151  C167  1.399305 A    
C197  H76   1.112827 S    
C217  C218  1.520839 S    
N5    C70   1.356171 A    
C82   C98   1.393140 A    
C27   C43   1.396872 A    
C24   O56   1.383997 S    
H17   C95   1.081674 S    
C32   O64   1.384002 S    
C213  H115  1.115741 S    
C39   C51   1.399689 A    
N6    N9    1.328238 A    
O9    Zn5   2.020344 S    
O17   C9    1.287796 A    
N14   C65   1.356159 A    
C198  H79   1.110985 S    
O11   Zn7   2.020346 S    
C206  H97   1.109917 S    
H19   C93   1.081676 S    
C131  H59   1.080225 S    
N21   O74   1.301887 A    
C172  C187  1.431268 S    
C132  H60   1.080226 S    
Zn12  O47   2.019238 S    
C73   H33   1.079411 S    
C175  C190  1.431270 S    
C3    C179  1.442040 S    
C83   C163  1.417704 A    
C207  H100  1.115843 S    
O5    C3    1.279258 A    
C111  C127  1.401108 A    
N7    C70   1.356141 A    
C205  C206  1.520840 S    
O41   C189  1.276880 A    
O7    Zn3   2.020350 S    
C29   C63   1.411700 A    
C161  C181  1.418549 A    
C113  N25   1.440663 S    
C83   C99   1.393148 A    
C110  C126  1.401105 A    
O43   C191  1.276883 A    
C75   C155  1.417715 A    
C33   H1    1.082957 S    
C47   C55   1.399695 A    
C167  C181  1.418550 A    
N20   O72   1.301886 A    
C44   C54   1.399686 A    
C27   O59   1.384001 S    
O17   Zn1   2.007772 S    
C18   C58   1.411722 A    
C77   C93   1.393153 A    
N5    N10   1.328256 A    
C88   C168  1.417704 A    
C36   C50   1.399699 A    
N24   O79   1.301588 A    
C117  N29   1.440658 S    
C211  H110  1.115838 S    
C223  H141  1.112830 S    
C85   C165  1.417702 A    
C6    C182  1.442062 S    
O14   Zn8   2.020349 S    
C221  H135  1.115762 S    
O2    C2    1.279264 A    
C157  C179  1.418551 A    
C90   C106  1.397195 A    
C143  C159  1.399306 A    
C126  H54   1.080227 S    
C171  C186  1.431264 S    
C214  H117  1.109915 S    
C19   C35   1.396875 A    
O50   C195  1.412747 S    
C52   C69   1.465964 S    
C208  H103  1.110435 S    
O8    C4    1.279259 A    
C149  C165  1.399307 A    
O4    Zn4   2.020353 S    
C123  C139  1.419150 A    
Zn9   O34   2.019237 S    
C114  C130  1.401113 A    
C135  C151  1.419144 A    
C193  H66   1.112862 S    
C84   C100  1.393153 A    
O48   C190  1.276882 A    
N1    C72   1.356157 A    
N29   O89   1.301594 A    
C224  H143  1.110415 S    
C217  H125  1.115747 S    
C124  C140  1.419141 A    
C133  H61   1.080226 S    
Zn12  O46   2.019237 S    
C75   C91   1.393159 A    
H21   C91   1.081681 S    
C76   C92   1.393151 A    
C211  C212  1.521065 S    
C122  H50   1.080227 S    
N27   O85   1.301592 A    
C87   H47   1.079410 S    
C212  H113  1.110447 S    
C4    C180  1.442042 S    
C206  H99   1.110974 S    
C121  H49   1.080228 S    
O16   C8    1.279257 A    
C119  C135  1.401110 A    
C215  H121  1.112841 S    
C100  C116  1.397195 A    
C209  C210  1.520890 S    
C199  H80   1.115747 S    
C79   H39   1.079407 S    
C210  H108  1.110422 S    
C201  H86   1.112886 S    
N17   O66   1.301882 A    
O25   Zn5   2.007772 S    
O6    C2    1.279258 A    
O27   Zn7   2.007783 S    
C37   C51   1.399707 A    
C73   C153  1.417708 A    
C126  C142  1.419143 A    
C160  C180  1.418546 A    
C83   H43   1.079412 S    
O36   C188  1.276886 A    
N21   O73   1.301596 A    
C81   C97   1.393150 A    
C130  C146  1.419146 A    
C91   C107  1.397195 A    
C152  C176  1.411246 A    
C153  C177  1.418549 A    
C103  C119  1.397196 A    
C84   C164  1.417698 A    
C84   H44   1.079402 S    
O19   C9    1.287795 A    
C101  C117  1.397198 A    
N19   O69   1.301623 A    
C25   C61   1.411711 A    
O24   C12   1.287796 A    
C81   H41   1.079411 S    
C34   C50   1.399688 A    
O24   Zn2   2.007781 S    
C204  H92   1.109964 S    
O12   Zn8   2.020353 S    
C32   C48   1.396869 A    
N11   C68   1.356156 A    
C31   O63   1.384001 S    
C49   C72   1.465964 S    
C36   H4    1.082954 S    
C158  C178  1.418554 A    
C25   O57   1.383991 S    
C50   C71   1.465960 S    
C26   C42   1.396767 A    
C214  H119  1.110976 S    
C41   H9    1.082956 S    
C202  H87   1.110006 S    
C110  N22   1.440660 S    
N28   O87   1.301592 A    
C205  H96   1.112814 S    
C28   C62   1.411755 A    
C128  C144  1.419144 A    
Zn9   O36   2.019222 S    
Zn10  O37   2.019228 S    
C16   C64   1.468269 S    
N23   O78   1.301888 A    
C144  C172  1.411244 A    
O4    C4    1.279257 A    
C200  H82   1.109921 S    
C79   C95   1.393152 A    
C42   C54   1.399667 A    
C73   C89   1.393151 A    
O16   Zn6   2.020347 S    
Zn10  O39   2.019238 S    
O29   Zn5   2.007779 S    
N25   O82   1.301887 A    
O54   C203  1.412765 S    
O20   Zn4   2.007784 S    
C220  H132  1.109917 S    
O56   C207  1.412768 S    
C26   O58   1.383912 S    
C37   H5    1.082956 S    
C80   C96   1.393151 A    
N8    N11   1.328238 A    
H22   C90   1.081674 S    
C113  C129  1.401108 A    
C216  H124  1.111015 S    
C203  H91   1.112849 S    
O47   C191  1.276888 A    
O64   C223  1.412765 S    
O10   Zn6   2.020355 S    
C219  H131  1.112814 S    
C114  N26   1.440660 S    
C80   H40   1.079411 S    
O15   C5    1.279260 A    
C119  N31   1.440662 S    
C218  H127  1.109917 S    
C116  N28   1.440662 S    
C209  H105  1.115781 S    
O42   C190  1.276887 A    
C22   C60   1.411708 A    
C196  H72   1.110125 S    
O1    Zn1   2.020344 S    
C74   H34   1.079411 S    
C106  C122  1.401111 A    
