data_mof_unit_47068.cif
_audit_creation_date              2012-12-11T20:41:09-0500
_audit_creation_method            fapswitch 2.2
_symmetry_space_group_name_H-M    P1
_symmetry_Int_Tables_number       1
_space_group_crystal_system       triclinic
_cell_length_a                    8.261146
_cell_length_b                    18.913467
_cell_length_c                    27.006844
_cell_angle_alpha                 97.484137
_cell_angle_beta                  92.549891
_cell_angle_gamma                 86.420146
_cell_volume                      4172.80503446

loop_
_atom_site_label
_atom_site_type_symbol
_atom_type_description
_atom_site_fract_x
_atom_site_fract_y
_atom_site_fract_z
_atom_type_partial_charge
Ba1   Ba    Ba6+2 0.852670 0.466460 0.522850 1.664435
Ba2   Ba    Ba6+2 0.337150 0.533490 0.477140 1.648522
C1    C     C_3   0.577853 0.222199 0.664454 -0.357757
C2    C     C_R   0.905021 0.558420 0.178387 0.621878
C3    C     C_2   0.743088 0.517236 0.269786 -0.087078
C4    C     C_3   0.118775 0.267722 0.650342 0.319287
C5    C     C_3   0.701259 0.512533 0.323568 -0.056657
C6    C     C_1   0.984537 0.485378 0.341538 0.040437
C7    C     C_2   0.023635 0.481126 0.293833 -0.090593
C8    C     C_2   0.897245 0.499615 0.254802 0.206341
C9    C     C_R   0.013973 0.495862 0.100844 -0.081451
C10   C     C_R   0.049907 0.435434 0.125719 -0.033936
C11   C     C_R   0.122502 0.373976 0.099069 -0.057908
C12   C     C_3   0.577973 0.292681 0.642992 0.368699
C13   C     C_R   0.941701 0.557803 0.127617 -0.030041
C14   C     C_2   0.849921 0.519420 0.357544 -0.277440
C15   C     C_2   0.345760 0.479043 0.640893 -0.284967
C16   C     C_3   0.043240 0.247301 0.696392 -0.343771
C17   C     C_R   0.165472 0.431478 0.971585 0.020223
C18   C     C_R   0.038340 0.552786 0.972328 0.029007
C19   C     C_R   0.119937 0.491765 0.946389 0.052450
C20   C     C_R   0.249304 0.372461 0.944335 -0.098640
C21   C     C_R   0.285450 0.372293 0.894455 -0.059278
C22   C     C_R   0.240881 0.431017 0.869120 -0.030654
C23   C     C_3   0.508241 0.638893 0.631346 0.287972
C24   C     C_R   0.156628 0.491005 0.894812 -0.085903
C25   C     C_R   0.109246 0.549950 0.868941 -0.043664
C26   C     C_R   0.164628 0.550253 0.819646 0.618541
C27   C     C_R   0.279134 0.430597 0.818510 0.590183
C28   C     C_3   0.184365 0.319003 0.417182 0.303895
C29   C     C_2   0.445389 0.475519 0.729071 -0.069529
C30   C     C_3   0.492040 0.484088 0.676432 -0.068409
C31   C     C_1   0.207817 0.510878 0.656508 0.054341
C32   C     C_2   0.165646 0.510949 0.703551 -0.083819
C33   C     C_2   0.289359 0.490755 0.742783 0.203092
C34   C     C_3   0.474029 0.666018 0.685679 -0.343762
C35   C     C_R   0.126079 0.432032 0.022842 0.019754
C36   C     C_R   0.050068 0.494396 0.049193 0.050057
C37   C     C_R   0.009470 0.555355 0.024444 0.023141
C38   C     C_R   0.159773 0.372190 0.049013 -0.098551
C39   C     C_R   0.908681 0.618384 0.103272 -0.043564
C40   C     C_3   0.205756 0.238355 0.404227 -0.359704
C41   C     C_R   0.982292 0.608519 0.944714 -0.145922
C42   C     C_R   0.011830 0.607060 0.893930 -0.034961
C43   C     C_R   0.942526 0.617464 0.053135 -0.099034
C44   C     C_2   0.410070 0.301459 0.521074 -0.247061
C45   C     C_3   0.189846 0.724728 0.350232 0.277859
C46   C     C_3   0.327897 0.255405 0.552755 -0.069387
C47   C     C_2   0.368128 0.176510 0.539466 -0.124190
C48   C     C_2   0.499362 0.153167 0.512269 -0.066783
C49   C     C_2   0.588317 0.207115 0.489425 -0.124367
C50   C     C_1   0.533763 0.275336 0.493526 0.069714
C51   C     C_R   0.666248 0.935943 0.503537 0.489429
C52   C     C_3   0.012668 0.686044 0.590022 0.303968
C53   C     C_R   0.557198 0.076004 0.507625 0.464375
C54   C     C_R   0.626757 0.810241 0.520359 -0.113018
C55   C     C_R   0.673184 0.737182 0.515030 0.033578
C56   C     C_3   0.244629 0.795550 0.336879 -0.274134
C57   C     C_R   0.916358 0.759140 0.475029 0.046190
C58   C     C_R   0.870456 0.832587 0.478987 -0.082380
C59   C     C_R   0.722848 0.858969 0.501145 -0.030530
C60   C     C_R   0.814207 0.712083 0.491071 -0.304432
C61   C     C_3   0.014227 0.766034 0.606722 -0.371828
C62   C     C_3   0.683589 0.365509 0.370028 0.303746
C63   C     C_3   0.711310 0.333877 0.316066 -0.362979
C64   C     C_2   0.141309 0.675216 0.304429 0.569652
C65   C     C_2   0.601690 0.751809 0.388436 0.444210
C66   C     C_2   0.926565 0.664508 0.868525 0.598962
C67   C     C_3   0.665679 0.698655 0.346457 0.296583
C68   C     C_3   0.734580 0.736025 0.305686 -0.240669
C69   C     C_R   0.011166 0.437398 0.176603 0.591114
H1    H     H_    0.631802 0.281820 0.605567 0.059830
H2    H     H_    0.801433 0.381306 0.387740 0.018660
H3    H     H_    0.596278 0.412592 0.370990 0.031512
H4    H     H_    0.704010 0.199522 0.668910 0.129110
H5    H     H_    0.788654 0.283554 0.315125 0.142877
H6    H     H_    0.773764 0.371283 0.296179 0.075906
H7    H     H_    0.593251 0.322288 0.296325 0.124236
H8    H     H_    0.451012 0.315263 0.640109 -0.085635
H9    H     H_    0.508806 0.183237 0.638896 0.066337
H10   H     H_    0.393357 0.621455 0.612226 0.031282
H11   H     H_    0.599580 0.593107 0.629723 0.034175
H12   H     H_    0.295196 0.224781 0.374462 0.128490
H13   H     H_    0.390296 0.714518 0.687688 0.142124
H14   H     H_    0.416103 0.625096 0.703550 0.078138
H15   H     H_    0.589094 0.679440 0.706650 0.141864
H16   H     H_    0.520923 0.230677 0.701411 0.135316
H17   H     H_    0.131447 0.254059 0.728679 0.101452
H18   H     H_    0.291859 0.697289 0.369369 0.063727
H19   H     H_    0.350913 0.786297 0.312679 0.127503
H20   H     H_    0.144509 0.823589 0.316945 0.124669
H21   H     H_    0.278805 0.830580 0.371528 0.143887
H22   H     H_    0.766921 0.665419 0.361764 -0.069105
H23   H     H_    0.249979 0.213514 0.437637 0.077160
H24   H     H_    0.825314 0.774408 0.321472 0.130363
H25   H     H_    0.636101 0.765408 0.286054 0.131507
H26   H     H_    0.143564 0.325482 0.657394 0.025492
H27   H     H_    0.794790 0.695689 0.278137 0.157298
H28   H     H_    0.146908 0.465501 0.283007 0.126088
H29   H     H_    0.150991 0.326395 0.116919 0.123533
H30   H     H_    0.539576 0.463765 0.756626 0.109686
H31   H     H_    0.350517 0.325537 0.875758 0.120790
H32   H     H_    0.291343 0.325309 0.960561 0.069735
H33   H     H_    0.213464 0.322222 0.031797 0.070419
H34   H     H_    0.087740 0.216294 0.390956 0.134545
H35   H     H_    0.646960 0.528758 0.242774 0.111157
H36   H     H_    0.856408 0.667427 0.123080 0.129305
H37   H     H_    0.905591 0.652769 0.961162 0.054089
H38   H     H_    0.234046 0.234807 0.645063 -0.025159
H39   H     H_    0.043400 0.528381 0.714452 0.138532
H40   H     H_    0.917665 0.667335 0.038300 0.074637
H41   H     H_    0.845369 0.549688 0.394578 0.072036
H42   H     H_    0.353306 0.449978 0.603591 0.067076
H43   H     H_    0.301243 0.139807 0.557320 0.099115
H44   H     H_    0.696227 0.189843 0.468573 0.113589
H45   H     H_    0.886232 0.671303 0.582025 0.012730
H46   H     H_    0.516031 0.828531 0.539224 0.096510
H47   H     H_    0.947181 0.868204 0.463809 0.104219
H48   H     H_    0.380810 0.358531 0.527471 0.065159
H49   H     H_    0.933332 0.282175 0.705723 0.165335
H50   H     H_    0.847691 0.655412 0.486423 0.061723
H51   H     H_    0.010775 0.190660 0.689767 0.111885
H52   H     H_    0.303138 0.340417 0.428924 0.005153
H53   H     H_    0.099974 0.331209 0.448298 0.087300
H54   H     H_    0.084954 0.626451 0.309120 -0.017474
H55   H     H_    0.545090 0.732484 0.419025 0.026809
H56   H     H_    0.085497 0.672751 0.556125 0.048014
H57   H     H_    0.914227 0.718443 0.887949 -0.040820
H58   H     H_    0.942390 0.780403 0.640746 0.140173
H59   H     H_    0.960831 0.796455 0.577089 0.055364
H60   H     H_    0.141026 0.781460 0.615192 0.123091
N1    N     N_R   0.938842 0.498519 0.202519 -0.425203
N2    N     N_R   0.243393 0.490280 0.794464 -0.428363
N3    N     N_R   0.524191 0.959690 0.525106 -0.244975
N4    N     N_R   0.471256 0.027970 0.527201 -0.244521
N5    N     N_R   0.699231 0.052370 0.485780 -0.232805
N6    N     N_R   0.752426 0.983834 0.483706 -0.228686
O1    O     O_2   0.914730 0.537460 0.618690 -0.461503
O2    O     O_2   0.254439 0.754076 0.459897 -0.504507
O3    O     O_3   0.053782 0.739696 0.379846 -0.661810
O4    O     O_3   0.146720 0.537410 0.558510 -0.492310
O5    O     O_3   0.553920 0.415280 0.473710 -0.489028
O6    O     O_2   0.383540 0.672140 0.526840 -0.467774
O7    O     O_3   0.569318 0.694537 0.609773 -0.640427
O8    O     O_2   0.369173 0.549262 0.327187 -0.493610
O9    O     O_3   0.536915 0.658504 0.324555 -0.623871
O10   O     O_2   0.039833 0.384235 0.197544 -0.594803
O11   O     O_2   0.344314 0.376934 0.795828 -0.601755
O12   O     O_3   0.618348 0.313648 0.394145 -0.633843
O13   O     O_2   0.843581 0.612708 0.201180 -0.593500
O14   O     O_2   0.149045 0.604869 0.799867 -0.561232
O15   O     O_3   0.666360 0.409390 0.586570 -0.481856
O16   O     O_2   0.827643 0.450875 0.671611 -0.472035
O17   O     O_3   0.078114 0.650799 0.629077 -0.628391
O18   O     O_3   0.671377 0.339617 0.674853 -0.586110
O19   O     O_2   0.806150 0.327840 0.473120 -0.460232
O20   O     O_3   0.073640 0.373350 0.561550 -0.474289
O21   O     O_2   0.011100 0.246664 0.510530 -0.477645
O22   O     O_2   0.162947 0.688612 0.262250 -0.569068
O23   O     O_3   0.013739 0.253564 0.608240 -0.570941
O24   O     O_2   0.609923 0.816119 0.388599 -0.600432
O25   O     O_2   0.859142 0.651270 0.827489 -0.544507
O26   O     O_2   0.274960 0.462520 0.381280 -0.458342
O27   O     O_3   0.042980 0.462530 0.441480 -0.496279
O28   O     O_3   0.523340 0.590550 0.413420 -0.483618
O29   O     O_3   0.122443 0.348402 0.374883 -0.628439
O30   O     O_3   0.635780 0.584660 0.526290 -0.473830
O31   O     O_3   0.116060 0.626590 0.438450 -0.480732
P1    P     P_3+3 0.084800 0.558370 0.611580 1.001955
P2    P     P_3+3 0.628800 0.338360 0.458800 0.987971
P3    P     P_3+3 0.106295 0.280605 0.557291 0.967843
P4    P     P_3+3 0.104900 0.441570 0.388420 0.993561
P5    P     P_3+3 0.093347 0.720022 0.441006 0.935499
P6    P     P_3+3 0.662812 0.422187 0.652101 0.992276
P7    P     P_3+3 0.566449 0.673353 0.544788 0.950303
P8    P     P_3+3 0.534629 0.576284 0.347898 0.946469

loop_
_geom_bond_atom_site_label_1
_geom_bond_atom_site_label_2
_ccdc_geom_bond_type
C69   O10   D    
C19   C24   A    
O29   P4    S    
C67   O9    S    
Ba2   O31   S    
C12   O18   S    
Ba1   O19   S    
C54   H46   S    
C27   N2    Am   
O6    P7    D    
C31   P1    S    
C33   N2    S    
C27   O11   D    
C15   H42   S    
C55   C60   A    
C2    N1    Am   
C28   H52   S    
O28   P8    S    
C24   C25   A    
C63   H5    S    
C51   N6    A    
C29   H30   S    
C17   C19   A    
C22   C24   A    
C32   C33   S    
C35   C38   A    
C67   H22   S    
C36   C37   A    
O21   P3    D    
C21   H31   S    
C52   C61   S    
Ba1   O30   S    
C53   N5    A    
C44   C50   D    
Ba1   P2    S    
C54   C55   A    
Ba1   O15   S    
C49   H44   S    
Ba1   Ba2   S    
C61   H59   S    
Ba1   P1    S    
C22   C27   A    
C11   C38   A    
Ba1   O5    S    
C17   C35   A    
C69   N1    Am   
C55   P7    S    
C9    C13   A    
C25   C42   A    
Ba1   O27   S    
O3    P5    S    
C52   H45   S    
C45   O3    S    
C21   C22   A    
C58   H47   S    
C61   H60   S    
C1    H4    S    
C56   H20   S    
C66   H57   S    
C45   C64   S    
C37   C43   A    
O15   P6    S    
C47   H43   S    
C57   C58   A    
C6    C14   D    
O1    P1    D    
C23   H10   S    
Ba2   O6    S    
C45   H18   S    
C15   C31   D    
C1    H9    S    
C64   O22   D    
C31   C32   D    
C3    H35   S    
O31   P5    S    
C4    C16   S    
C44   C46   S    
C63   H6    S    
C40   H12   S    
C1    H16   S    
C49   C50   D    
C4    H26   S    
C17   C20   A    
Ba1   O4    S    
C28   O29   S    
C65   H55   S    
Ba2   O27   S    
C3    C5    S    
C18   C37   A    
C6    C7    D    
C34   H15   S    
C30   P6    S    
O16   P6    D    
C16   H17   S    
C20   H32   S    
C26   N2    Am   
O17   P1    S    
O9    P8    S    
C58   C59   A    
C65   C67   S    
C9    C36   A    
C68   H25   S    
C41   C42   A    
C35   C36   A    
C38   H33   S    
C46   P3    S    
C65   O24   D    
C29   C30   S    
O8    P8    D    
C62   H2    S    
C5    P8    S    
O4    P1    S    
C48   C49   S    
C54   C59   A    
C12   H8    S    
C10   C11   A    
O26   P4    D    
C56   H19   S    
Ba2   O28   S    
C13   C39   A    
C1    C12   S    
C16   H51   S    
O18   P6    S    
C46   C47   S    
C10   C69   A    
C28   H53   S    
C23   H11   S    
Ba2   O5    S    
C4    H38   S    
C29   C33   D    
C42   C66   S    
C23   O7    S    
C50   P2    S    
O12   P2    S    
C16   H49   S    
C18   C41   A    
C14   H41   S    
O30   P7    S    
C7    C8    S    
C15   C30   S    
O27   P4    S    
C5    C14   S    
C57   C60   A    
C39   C43   A    
C63   H7    S    
C39   H36   S    
C40   H23   S    
C12   H1    S    
C51   C59   S    
C51   N3    A    
C34   H13   S    
N5    N6    A    
C57   P5    S    
Ba2   O26   S    
C52   O17   S    
C4    O23   S    
C9    C10   A    
C43   H40   S    
N3    N4    A    
C66   O25   D    
C34   H14   S    
C2    O13   D    
C52   H56   S    
C48   C53   S    
C64   H54   S    
O5    P2    S    
C62   O12   S    
C62   C63   S    
C2    C13   A    
Ba1   O20   S    
C68   H24   S    
C3    C8    D    
O20   P3    S    
C45   C56   S    
C11   H29   S    
C53   N4    A    
O7    P7    S    
O19   P2    D    
O23   P3    S    
C44   H48   S    
C41   H37   S    
C61   H58   S    
C67   C68   S    
C40   H34   S    
C8    N1    S    
O2    P5    D    
C23   C34   S    
C6    P4    S    
C18   C19   A    
C26   O14   D    
C7    H28   S    
C47   C48   D    
C25   C26   A    
Ba2   O4    S    
C62   H3    S    
C20   C21   A    
C28   C40   S    
C32   H39   S    
C56   H21   S    
Ba2   O30   S    
C60   H50   S    
Ba1   O1    S    
C68   H27   S    
Ba2   P4    S    
