data_mof_unit_20817.cif
_audit_creation_date              2013-03-05T16:21:22-0500
_audit_creation_method            fapswitch 2.2
_symmetry_space_group_name_H-M    P1
_symmetry_Int_Tables_number       1
_space_group_crystal_system       triclinic
_cell_length_a                    8.712652
_cell_length_b                    15.111737
_cell_length_c                    13.899371
_cell_angle_alpha                 89.959814
_cell_angle_beta                  98.168077
_cell_angle_gamma                 90.501163
_cell_volume                      1811.40283407

loop_
_atom_site_label
_atom_site_type_symbol
_atom_site_description
_atom_site_fract_x
_atom_site_fract_y
_atom_site_fract_z
_atom_type_partial_charge
O1    O     O_R   0.500010 0.371450 0.581430 -0.550414
O2    O     O_R   0.499990 0.628550 0.418570 -0.555765
O3    O     O_R   0.500010 0.371460 0.418560 -0.557356
O4    O     O_R   0.499990 0.628540 0.581440 -0.557779
C1    C     C_R   0.496537 0.330023 0.499775 0.876514
C2    C     C_R   0.496145 0.670112 0.499502 0.873576
O5    O     O_R   0.274840 0.499990 0.562640 -0.600003
O6    O     O_R   0.725160 0.500010 0.437360 -0.598376
O7    O     O_R   0.274840 0.500000 0.399770 -0.552035
O8    O     O_R   0.725160 0.500000 0.600230 -0.551380
C3    C     C_R   0.203695 0.499947 0.475025 0.855618
C4    C     C_R   0.796328 0.499781 0.524974 0.877055
Cu1   Cu    Cu3+1 0.500000 0.499990 0.596430 0.988983
Cu2   Cu    Cu3+1 0.500000 0.500010 0.403570 0.984970
C5    C     C_2   0.037651 0.500112 0.461336 -0.374730
C6    C     C_2   0.962404 0.499081 0.538635 -0.381389
H1    H     H_    0.977181 0.501341 0.387329 0.182140
H2    H     H_    0.022971 0.497601 0.612595 0.165048
C7    C     C_R   0.387250 0.096620 0.560833 0.421737
C8    C     C_R   0.404950 0.903626 0.413034 0.425226
C9    C     C_R   0.395782 0.189184 0.562005 0.399182
C10   C     C_R   0.413539 0.811169 0.413361 0.388000
C11   C     C_R   0.483542 0.233678 0.498746 -0.280442
C12   C     C_R   0.482564 0.766647 0.497818 -0.298870
C13   C     C_R   0.557058 0.185963 0.432627 -0.407832
C14   C     C_R   0.536635 0.814682 0.581984 -0.361564
C15   C     C_R   0.552363 0.093884 0.432099 0.506992
C16   C     C_R   0.532137 0.906698 0.581871 0.494051
C17   C     C_R   0.467289 0.048762 0.496225 -0.124449
C18   C     C_R   0.466583 0.951671 0.497242 -0.122383
C19   C     C_R   0.579031 0.566269 0.115668 -0.273175
C20   C     C_R   0.380811 0.457205 0.880737 -0.282388
H3    H     H_    0.640631 0.620056 0.086597 0.150256
H4    H     H_    0.284291 0.424057 0.906608 0.143620
C21   C     C_R   0.580523 0.563516 0.216857 0.008874
C22   C     C_R   0.385817 0.456326 0.780104 0.004379
N1    N     N_R   0.500000 0.500020 0.258690 -0.213463
N2    N     N_R   0.500000 0.499980 0.741310 -0.213376
C23   C     C_R   0.416679 0.436889 0.202547 0.695639
C24   C     C_R   0.613526 0.545029 0.800447 0.703237
C25   C     C_R   0.414585 0.437221 0.100271 -0.364788
C26   C     C_R   0.612802 0.546142 0.902397 -0.355664
C27   C     C_R   0.496658 0.501919 0.054564 0.100096
C28   C     C_R   0.496420 0.501745 0.944934 0.104038
O9    O     O_3   0.310348 0.054509 0.628972 -0.488831
C29   C     C_3   0.169324 0.017274 0.583382 -0.296797
H5    H     H_    0.187373 0.948359 0.560297 0.153911
H6    H     H_    0.112935 0.056594 0.520525 0.094879
H7    H     H_    0.087028 0.014306 0.637303 0.183744
O10   O     O_3   0.347266 0.945623 0.326874 -0.492598
C30   C     C_3   0.200194 0.981720 0.333666 -0.298017
H8    H     H_    0.212654 0.050600 0.361358 0.147494
H9    H     H_    0.130141 0.941558 0.379060 0.099701
H10   H     H_    0.133592 0.984626 0.259565 0.196594
O11   O     O_3   0.323488 0.235474 0.628596 -0.527673
C31   C     C_3   0.176330 0.262731 0.583026 -0.271979
H11   H     H_    0.183619 0.301900 0.515957 0.134059
H12   H     H_    0.124257 0.305902 0.633980 0.174670
H13   H     H_    0.097082 0.205211 0.565985 0.149068
O12   O     O_3   0.361254 0.765255 0.328717 -0.524735
C32   C     C_3   0.207372 0.736576 0.331636 -0.231598
H14   H     H_    0.195293 0.698614 0.398891 0.118987
H15   H     H_    0.172256 0.691720 0.269076 0.186655
H16   H     H_    0.126520 0.793300 0.324313 0.147499
H17   H     H_    0.621587 0.220132 0.382460 0.197995
H18   H     H_    0.586662 0.780971 0.647742 0.227209
O13   O     O_3   0.622910 0.048364 0.364209 -0.512972
C33   C     C_3   0.781669 0.038743 0.399661 -0.337500
H19   H     H_    0.797978 0.989889 0.459881 0.144197
H20   H     H_    0.838847 0.102935 0.423099 0.138545
H21   H     H_    0.840738 0.012426 0.340235 0.190329
O14   O     O_3   0.584320 0.951891 0.666914 -0.513026
C34   C     C_3   0.743615 0.970939 0.670009 -0.294505
H22   H     H_    0.761250 0.025741 0.619362 0.141278
H23   H     H_    0.811387 0.911729 0.654368 0.140097
H24   H     H_    0.790121 0.993774 0.744354 0.204273
H25   H     H_    0.645023 0.613362 0.262010 0.156384
H26   H     H_    0.296235 0.421390 0.732747 0.158429
O15   O     O_3   0.323877 0.378911 0.246710 -0.562022
C35   C     C_3   0.344487 0.290540 0.218384 -0.314428
H27   H     H_    0.306619 0.245970 0.274133 0.198093
H28   H     H_    0.468095 0.275194 0.213635 0.160191
H29   H     H_    0.269864 0.275377 0.148680 0.161602
O16   O     O_3   0.718933 0.595948 0.758070 -0.558105
C36   C     C_3   0.872749 0.576899 0.799415 -0.338557
H30   H     H_    0.951773 0.599231 0.748170 0.192219
H31   H     H_    0.891963 0.504661 0.811499 0.147626
H32   H     H_    0.905659 0.614475 0.867948 0.163637
H33   H     H_    0.348135 0.387012 0.057416 0.142903
H34   H     H_    0.703187 0.582195 0.947362 0.139466

loop_
_geom_bond_atom_site_label_1
_geom_bond_atom_site_label_2
_geom_bond_distance
_ccdc_geom_bond_type
C25   H33   1.077332 S    
O11   C31   1.411673 S    
C15   C17   1.409546 A    
C25   C27   1.409549 A    
C34   H22   1.110277 S    
C24   O16   1.386784 S    
O7    Cu2   1.954935 S    
C23   C25   1.419091 A    
C8    C18   1.414638 A    
O9    C29   1.412446 S    
O5    C3    1.285596 A    
C29   H7    1.109011 S    
C19   C27   1.413434 A    
O1    C1    1.292999 A    
C20   C22   1.405670 A    
C21   N1    1.361745 A    
C12   C14   1.398569 A    
C10   O12   1.384335 S    
C5    C6    1.335794 D    
C31   H11   1.113024 S    
O4    Cu1   1.953611 S    
C32   H15   1.109414 S    
C8    O10   1.386729 S    
C3    C5    1.432109 S    
C4    C6    1.432505 S    
C33   H19   1.110413 S    
C19   H3    1.079587 S    
C24   C26   1.418063 A    
Cu1   Cu2   2.680632 S    
C34   H23   1.114683 S    
O2    C2    1.293481 A    
C26   C28   1.409170 A    
C35   H29   1.110210 S    
C36   H31   1.114853 S    
C29   H6    1.113622 S    
C30   H8    1.109105 S    
C14   H18   1.083925 S    
C13   H17   1.083865 S    
O16   C36   1.413070 S    
O4    C2    1.296676 A    
C9    O11   1.384567 S    
C35   H27   1.109493 S    
C36   H30   1.109150 S    
C21   H25   1.081722 S    
O13   C33   1.409600 S    
O12   C32   1.411477 S    
C30   H9    1.114168 S    
C23   O15   1.387834 S    
C32   H16   1.109704 S    
C27   C28   1.523503 S    
C17   C18   1.467238 S    
C1    C11   1.459262 S    
O6    C4    1.285665 A    
C2    C12   1.464535 S    
O10   C30   1.412485 S    
C20   C28   1.413292 A    
O7    C3    1.289406 A    
Cu1   N2    2.013741 S    
O3    Cu2   1.953609 S    
O8    C4    1.289563 A    
C35   H28   1.114698 S    
C8    C10   1.399815 A    
C9    C11   1.411043 A    
C34   H24   1.109112 S    
C19   C21   1.405266 A    
O1    Cu1   1.953766 S    
C7    C17   1.415437 A    
C36   H32   1.110110 S    
C5    H1    1.087287 S    
C29   H5    1.109025 S    
O6    Cu2   1.951204 S    
C7    C9    1.400121 A    
O14   C34   1.409604 S    
O3    C1    1.294487 A    
O8    Cu1   1.954934 S    
C7    O9    1.386667 S    
C13   C15   1.391699 A    
C14   C16   1.391417 A    
C31   H13   1.109828 S    
C30   H10   1.109070 S    
C16   C18   1.409440 A    
N1    C23   1.368962 A    
C22   H26   1.080964 S    
C16   O14   1.383235 S    
Cu2   N1    2.013742 S    
N2    C24   1.369456 A    
C33   H21   1.109100 S    
C22   N2    1.362377 A    
C31   H12   1.109125 S    
C10   C12   1.413421 A    
C11   C13   1.396806 A    
C32   H14   1.113635 S    
O2    Cu2   1.953767 S    
C15   O13   1.383670 S    
O15   C35   1.412697 S    
O5    Cu1   1.951206 S    
C6    H2    1.087091 S    
C33   H20   1.114080 S    
C26   H34   1.077356 S    
C20   H4    1.079687 S    
