data_mof_unit_43216.cif
_audit_creation_date              2012-12-11T15:34:05-0500
_audit_creation_method            fapswitch 2.2
_symmetry_space_group_name_H-M    P1
_symmetry_Int_Tables_number       1
_space_group_crystal_system       triclinic
_cell_length_a                    15.053509
_cell_length_b                    15.077107
_cell_length_c                    34.956821
_cell_angle_alpha                 90.703812
_cell_angle_beta                  90.186386
_cell_angle_gamma                 60.045141
_cell_volume                      6873.54099276

loop_
_atom_site_label
_atom_site_type_symbol
_atom_type_description
_atom_site_fract_x
_atom_site_fract_y
_atom_site_fract_z
_atom_type_partial_charge
C1    C     C_R   0.303329 0.607950 0.555977 0.543735
C2    C     C_R   0.650692 0.655528 0.670481 0.035093
C3    C     C_R   0.256023 0.668146 0.267097 -0.119314
C4    C     C_R   0.198874 0.636436 0.288871 0.028203
C5    C     C_R   0.138995 0.601719 0.270359 -0.116958
C6    C     C_R   0.132697 0.603128 0.230609 -0.115046
C7    C     C_R   0.186357 0.639101 0.208927 0.031400
C8    C     C_R   0.219432 0.553139 0.351810 -0.123540
C9    C     C_R   0.241308 0.548026 0.390698 -0.128260
C10   C     C_R   0.222544 0.717321 0.388693 -0.124379
C11   C     C_R   0.200625 0.722358 0.349829 -0.121253
C12   C     C_R   0.203651 0.638385 0.330826 0.031998
C13   C     C_R   0.561653 0.723547 0.650565 -0.123842
C14   C     C_R   0.248167 0.627961 0.408996 0.023198
C15   C     C_R   0.735564 0.025686 0.943355 0.560966
C16   C     C_R   0.745553 0.722599 0.945221 0.544950
C17   C     C_R   0.038977 0.733562 0.948527 0.543528
C18   C     C_R   0.722955 0.039440 0.052697 0.547727
C19   C     C_R   0.733577 0.734465 0.054730 0.540856
C20   C     C_R   0.028352 0.744407 0.057703 0.562845
C21   C     C_R   0.551618 0.706705 0.611872 -0.132554
C22   C     C_R   0.659845 0.668600 0.790061 0.362627
C23   C     C_R   0.655125 0.662049 0.712451 0.338517
C24   C     C_R   0.757644 0.599080 0.850134 -0.182122
C25   C     C_R   0.778948 0.611187 0.887889 -0.157224
C26   C     C_R   0.618581 0.771206 0.892200 -0.118547
C27   C     C_R   0.596853 0.760710 0.853767 0.271765
C28   C     C_R   0.669237 0.675330 0.832052 0.046872
C29   C     C_R   0.610634 0.588272 0.555331 0.544713
C30   C     C_R   0.712009 0.699589 0.908673 -0.019519
C31   C     C_R   0.721486 0.070567 0.904970 0.042012
C32   C     C_R   0.645754 0.070265 0.881423 -0.180065
C33   C     C_R   0.642972 0.089116 0.842690 -0.157404
C34   C     C_R   0.714020 0.111571 0.826442 -0.010414
C35   C     C_R   0.784488 0.121010 0.850113 -0.108399
C36   C     C_R   0.790578 0.098282 0.889424 0.261611
C37   C     C_R   0.724264 0.202087 0.768610 -0.113149
C38   C     C_R   0.717750 0.215410 0.729099 -0.114328
C39   C     C_R   0.701620 0.149277 0.705136 0.023182
C40   C     C_R   0.590585 0.300432 0.553488 0.546594
C41   C     C_R   0.695631 0.067626 0.721030 -0.120684
C42   C     C_R   0.702859 0.053869 0.760436 -0.118264
C43   C     C_R   0.715018 0.122259 0.784620 0.027867
C44   C     C_R   0.597320 0.174429 0.646612 -0.121403
C45   C     C_R   0.570335 0.210506 0.609425 -0.127502
C46   C     C_R   0.719594 0.231573 0.605740 -0.123727
C47   C     C_R   0.745990 0.196316 0.642968 -0.121637
C48   C     C_R   0.683301 0.170594 0.664051 0.030479
C49   C     C_R   0.629341 0.242753 0.589159 0.023237
C50   C     C_R   0.097422 0.694346 0.912456 -0.025136
C51   C     C_R   0.300211 0.610083 0.446075 0.543187
C52   C     C_R   0.138368 0.749227 0.894713 -0.155380
C53   C     C_R   0.169905 0.729527 0.856632 -0.169055
C54   C     C_R   0.163239 0.653131 0.835836 0.075858
C55   C     C_R   0.130386 0.591843 0.854221 0.293785
C56   C     C_R   0.098770 0.612008 0.892611 -0.119764
C57   C     C_R   0.253981 0.558827 0.775724 0.320908
C58   C     C_R   0.261349 0.557647 0.735390 -0.117106
C59   C     C_R   0.190765 0.641540 0.713767 -0.008974
C60   C     C_R   0.113658 0.728392 0.732549 -0.132927
C61   C     C_R   0.107003 0.731457 0.772278 -0.184341
C62   C     C_R   0.608128 0.590105 0.445454 0.539717
C63   C     C_R   0.176711 0.647586 0.793966 0.066466
C64   C     C_R   0.197475 0.723690 0.652989 -0.113425
C65   C     C_R   0.222872 0.716395 0.614267 -0.125610
C66   C     C_R   0.249094 0.544252 0.611746 -0.126512
C67   C     C_R   0.224213 0.551435 0.650483 -0.120819
C68   C     C_R   0.201713 0.639831 0.671727 0.038506
C69   C     C_R   0.252686 0.625151 0.593620 0.020599
C70   C     C_R   0.693269 0.718388 0.090809 0.018805
C71   C     C_R   0.609355 0.800383 0.109424 -0.124539
C72   C     C_R   0.585627 0.790704 0.147192 -0.120642
C73   C     C_R   0.587827 0.302497 0.443788 0.566452
C74   C     C_R   0.645695 0.699094 0.167013 0.030749
C75   C     C_R   0.724729 0.614965 0.147338 -0.121827
C76   C     C_R   0.747718 0.624326 0.109588 -0.130850
C77   C     C_R   0.650191 0.601800 0.225340 -0.119377
C78   C     C_R   0.650988 0.592701 0.264983 -0.118088
C79   C     C_R   0.633146 0.675539 0.288818 0.026059
C80   C     C_R   0.611906 0.768514 0.272524 -0.117303
C81   C     C_R   0.612707 0.777231 0.232834 -0.114948
C82   C     C_R   0.633128 0.693503 0.208798 0.028237
C83   C     C_R   0.550691 0.733183 0.352864 -0.121809
C84   C     C_R   0.630582 0.621696 0.592536 0.022371
C85   C     C_R   0.545454 0.713427 0.391431 -0.125266
C86   C     C_R   0.713668 0.561943 0.386806 -0.132239
C87   C     C_R   0.718070 0.580744 0.348103 -0.123392
C88   C     C_R   0.635081 0.664510 0.330627 0.030583
C89   C     C_R   0.625061 0.625080 0.408344 0.022693
C90   C     C_R   0.700589 0.103451 0.087567 0.014879
C91   C     C_R   0.782245 0.106771 0.105907 -0.175809
C92   C     C_R   0.771652 0.143438 0.143208 -0.146890
C93   C     C_R   0.679499 0.177019 0.163003 -0.016703
C94   C     C_R   0.594474 0.184046 0.143617 -0.095368
C95   C     C_R   0.723061 0.559306 0.611654 -0.131522
C96   C     C_R   0.603252 0.150581 0.105609 0.267026
C97   C     C_R   0.589231 0.274299 0.222186 -0.120943
C98   C     C_R   0.581815 0.282017 0.261911 -0.115610
C99   C     C_R   0.660533 0.208251 0.284711 0.030476
C100  C     C_R   0.748346 0.128724 0.267277 -0.117652
C101  C     C_R   0.755766 0.120974 0.227566 -0.111335
C102  C     C_R   0.675658 0.192895 0.204721 0.031893
C103  C     C_R   0.730492 0.202820 0.350066 -0.106723
C104  C     C_R   0.714753 0.224443 0.389534 0.265887
C105  C     C_R   0.540747 0.255366 0.382160 -0.173125
C106  C     C_R   0.732923 0.575935 0.650294 -0.124554
C107  C     C_R   0.556359 0.236639 0.343137 -0.143367
C108  C     C_R   0.649730 0.214482 0.326598 -0.013153
C109  C     C_R   0.617618 0.254238 0.405496 0.038204
C110  C     C_R   0.087119 0.707629 0.093458 0.030265
C111  C     C_R   0.117438 0.609192 0.107722 0.250173
C112  C     C_R   0.158365 0.584015 0.144724 -0.114665
C113  C     C_R   0.165712 0.656593 0.167809 -0.012218
C114  C     C_R   0.141532 0.751447 0.152609 -0.141119
C115  C     C_R   0.103239 0.776470 0.115751 -0.176331
C116  C     C_R   0.249731 0.669568 0.227393 -0.118121
Cr1   Cr    Cr6+3 0.421670 0.426920 0.499620 1.008151
Cr2   Cr    Cr6+3 0.427030 0.651190 0.500980 1.010662
Cr3   Cr    Cr6+3 0.651280 0.421870 0.499380 1.024345
Cr4   Cr    Cr6+3 0.910810 0.908010 0.001130 1.012862
Cr5   Cr    Cr6+3 0.682800 0.909890 0.998370 1.017227
Cr6   Cr    Cr6+3 0.908370 0.682300 0.002180 1.026035
H1    H     H_    0.785674 0.493749 0.597432 0.128310
H2    H     H_    0.813349 0.192590 0.655809 0.105614
H3    H     H_    0.721128 0.279844 0.717382 0.119536
H4    H     H_    0.732737 0.256244 0.786678 0.117971
H5    H     H_    0.586246 0.083862 0.825208 0.106703
H6    H     H_    0.684160 0.015304 0.702978 0.111727
H7    H     H_    0.697716 0.990331 0.772088 0.109412
H8    H     H_    0.547634 0.155333 0.662522 0.102875
H9    H     H_    0.500496 0.218189 0.597374 0.125483
H10   H     H_    0.836338 0.143016 0.837775 0.098139
H11   H     H_    0.479546 0.756430 0.597839 0.128323
H12   H     H_    0.767033 0.255269 0.590776 0.128909
H13   H     H_    0.140476 0.811535 0.909554 0.134498
H14   H     H_    0.069239 0.567403 0.905904 0.131447
H15   H     H_    0.226170 0.486456 0.664208 0.098327
H16   H     H_    0.323657 0.493166 0.720687 0.092676
H17   H     H_    0.195173 0.777065 0.842804 0.126550
H18   H     H_    0.058388 0.793850 0.716461 0.121268
H19   H     H_    0.046328 0.799155 0.786256 0.110025
H20   H     H_    0.180522 0.792663 0.668776 0.109067
H21   H     H_    0.850883 0.553677 0.900040 0.140728
H22   H     H_    0.224878 0.780057 0.601133 0.126753
H23   H     H_    0.271399 0.472974 0.596650 0.126926
H24   H     H_    0.565539 0.873696 0.095609 0.145453
H25   H     H_    0.812017 0.559316 0.095884 0.113038
H26   H     H_    0.784739 0.527966 0.331460 0.101642
H27   H     H_    0.665230 0.520978 0.277107 0.109031
H28   H     H_    0.664118 0.536612 0.207654 0.104128
H29   H     H_    0.522725 0.856135 0.161329 0.106478
H30   H     H_    0.597706 0.833289 0.290540 0.107874
H31   H     H_    0.803362 0.523456 0.664709 0.128209
H32   H     H_    0.601060 0.848350 0.221083 0.107404
H33   H     H_    0.486100 0.798466 0.339852 0.102644
H34   H     H_    0.476313 0.763974 0.407296 0.125551
H35   H     H_    0.773155 0.543488 0.161722 0.099356
H36   H     H_    0.777161 0.494816 0.399244 0.110438
H37   H     H_    0.856953 0.074534 0.092485 0.138273
H38   H     H_    0.494073 0.242759 0.325619 0.116262
H39   H     H_    0.514273 0.345360 0.274870 0.111210
H40   H     H_    0.527095 0.331118 0.205121 0.101083
H41   H     H_    0.497423 0.786296 0.665288 0.131059
H42   H     H_    0.837431 0.139958 0.157363 0.113657
H43   H     H_    0.809589 0.070787 0.284326 0.105229
H44   H     H_    0.822433 0.056383 0.214729 0.108203
H45   H     H_    0.804074 0.181819 0.337485 0.101582
H46   H     H_    0.522257 0.210809 0.158439 0.117704
H47   H     H_    0.465492 0.277631 0.393507 0.136673
H48   H     H_    0.080630 0.852439 0.105613 0.136043
H49   H     H_    0.185991 0.789950 0.334219 0.102753
H50   H     H_    0.813633 0.531722 0.834596 0.134446
H51   H     H_    0.305046 0.692476 0.280839 0.108144
H52   H     H_    0.292498 0.696572 0.211124 0.107211
H53   H     H_    0.181387 0.509049 0.155960 0.102011
H54   H     H_    0.094508 0.576816 0.286663 0.103361
H55   H     H_    0.082088 0.580743 0.216926 0.100681
H56   H     H_    0.221782 0.487641 0.337693 0.099378
H57   H     H_    0.260259 0.478302 0.405662 0.123253
H58   H     H_    0.146239 0.808867 0.170029 0.115679
H59   H     H_    0.226254 0.780505 0.402126 0.127132
H60   H     H_    0.563939 0.837154 0.908734 0.121892
H61   H     H_    0.591729 0.049291 0.892437 0.134026
N1    N     N_R   0.732640 0.586700 0.770169 -0.266956
N2    N     N_R   0.730183 0.583306 0.732209 -0.247550
N3    N     N_R   0.581754 0.743818 0.732222 -0.245300
N4    N     N_R   0.584546 0.747271 0.770244 -0.175169
O1    O     O_R   0.502070 0.323090 0.541280 -0.520704
O2    O     O_R   0.520720 0.641670 0.461580 -0.501943
O3    O     O_R   0.674120 0.502090 0.457500 -0.534228
O4    O     O_R   0.640110 0.338380 0.459630 -0.462404
O5    O     O_3   0.499990 0.499990 0.499990 -0.240575
O6    O     O_R   0.017640 0.822070 0.960410 -0.527331
O7    O     O_R   0.822000 0.989470 0.960340 -0.458565
O8    O     O_R   0.666920 0.007430 0.955290 -0.540859
O9    O     O_R   0.694410 0.812480 0.959650 -0.506803
O10   O     O_R   0.831550 0.656950 0.958960 -0.518314
O11   O     O_R   0.998590 0.685540 0.963930 -0.501206
O12   O     O_R   0.338340 0.520690 0.539540 -0.502614
O13   O     O_R   0.008220 0.831200 0.045060 -0.536695
O14   O     O_R   0.813270 0.997930 0.038810 -0.514069
O15   O     O_R   0.657500 0.016560 0.039940 -0.473589
O16   O     O_R   0.685680 0.820940 0.038120 -0.497072
O17   O     O_R   0.822130 0.666070 0.043610 -0.532507
O18   O     O_R   0.989860 0.694000 0.042400 -0.456091
O19   O     O_3   0.833990 0.833400 0.000560 -0.247902
O20   O     O_R   0.324760 0.674070 0.543580 -0.519058
O21   O     O_R   0.522400 0.640310 0.540110 -0.502154
O22   O     O_R   0.675940 0.500630 0.542210 -0.521819
O23   O     O_R   0.641790 0.337020 0.538150 -0.501266
O24   O     O_R   0.500260 0.324550 0.456580 -0.533994
O25   O     O_R   0.336660 0.522040 0.461020 -0.505265
O26   O     O_R   0.322940 0.675540 0.458880 -0.519919
O27   O     O_3   0.858123 0.109267 0.913444 -0.548562
C117  C     C_3   0.960207 0.046564 0.900700 -0.000126
H62   H     H_    0.976318 0.080863 0.875580 0.115965
H63   H     H_    0.976224 0.967845 0.893158 0.135224
C118  C     C_3   0.032888 0.038542 0.932544 -0.352897
H64   H     H_    0.019868 0.003870 0.958231 0.180708
H65   H     H_    0.113536 0.990015 0.922868 0.080710
H66   H     H_    0.019863 0.115844 0.940253 0.150278
O28   O     O_3   0.325294 0.480072 0.798482 -0.531068
C119  C     C_3   0.356367 0.382378 0.782419 0.008922
H67   H     H_    0.417214 0.362594 0.760591 0.128003
H68   H     H_    0.290756 0.378062 0.769481 0.127869
C120  C     C_3   0.401438 0.303010 0.813725 -0.348573
H69   H     H_    0.342724 0.319733 0.836100 0.185791
H70   H     H_    0.427048 0.225918 0.801240 0.076830
H71   H     H_    0.468257 0.303782 0.826937 0.173904
O29   O     O_3   0.127967 0.513094 0.834483 -0.551044
C121  C     C_3   0.027299 0.548084 0.821261 -0.023390
H72   H     H_    0.997030 0.621192 0.805338 0.131757
H73   H     H_    0.975254 0.559426 0.845655 0.127184
C122  C     C_3   0.028042 0.468211 0.794086 -0.373039
H74   H     H_    0.054581 0.395008 0.809308 0.151360
H75   H     H_    0.949626 0.495232 0.782956 0.132989
H76   H     H_    0.080253 0.455048 0.769601 0.151760
O30   O     O_3   0.518421 0.154820 0.088300 -0.562314
C123  C     C_3   0.477202 0.234755 0.061285 0.019479
H77   H     H_    0.430864 0.218151 0.040688 0.157840
H78   H     H_    0.537526 0.238439 0.044049 0.121988
C124  C     C_3   0.406795 0.338557 0.080738 -0.282478
H79   H     H_    0.346373 0.334150 0.097394 0.177816
H80   H     H_    0.452061 0.358187 0.100740 0.151825
C125  C     C_3   0.356204 0.423458 0.051339 -0.446360
H81   H     H_    0.415313 0.427140 0.033580 0.140597
H82   H     H_    0.310397 0.498260 0.066269 0.181743
H83   H     H_    0.304587 0.409690 0.032520 0.169986
O31   O     O_3   0.794594 0.211942 0.413004 -0.562989
C126  C     C_3   0.832119 0.277562 0.402222 0.019946
H84   H     H_    0.825238 0.325894 0.427502 0.176088
H85   H     H_    0.788653 0.331030 0.378549 0.110655
C127  C     C_3   0.945566 0.213954 0.391404 -0.272994
H86   H     H_    0.989413 0.166161 0.416083 0.174804
H87   H     H_    0.955275 0.162124 0.366953 0.157681
C128  C     C_3   0.989060 0.282414 0.380347 -0.494159
H88   H     H_    0.947580 0.329482 0.355216 0.141194
H89   H     H_    0.071432 0.234233 0.372798 0.147007
H90   H     H_    0.981919 0.333782 0.404646 0.146128
O32   O     O_3   0.112826 0.536330 0.084532 -0.574984
C129  C     C_3   0.046143 0.505141 0.100150 0.018337
H91   H     H_    0.986400 0.520274 0.078471 0.179001
H92   H     H_    0.004937 0.547386 0.126752 0.112971
C130  C     C_3   0.105603 0.390016 0.107558 -0.274623
H93   H     H_    0.142464 0.348333 0.080531 0.173409
H94   H     H_    0.166822 0.372340 0.128909 0.152674
C131  C     C_3   0.034987 0.352568 0.122443 -0.489744
H95   H     H_    0.998234 0.392407 0.149733 0.141791
H96   H     H_    0.080272 0.269005 0.127686 0.149697
H97   H     H_    0.974556 0.366980 0.101091 0.143913
O33   O     O_3   0.502265 0.828375 0.838148 -0.550312
C132  C     C_3   0.483887 0.930195 0.838536 0.013232
H98   H     H_    0.474233 0.956045 0.808404 0.164107
H99   H     H_    0.547525 0.939464 0.850636 0.100876
C133  C     C_3   0.384526 0.999050 0.860494 -0.262518
H100  H     H_    0.322052 0.987552 0.848945 0.181426
H101  H     H_    0.395068 0.977870 0.891172 0.153881
C134  C     C_3   0.352696 0.111856 0.857119 -0.491899
H102  H     H_    0.413694 0.125801 0.868414 0.145021
H103  H     H_    0.281474 0.159246 0.873896 0.153777
H104  H     H_    0.337500 0.135544 0.826749 0.145427

loop_
_geom_bond_atom_site_label_1
_geom_bond_atom_site_label_2
_ccdc_geom_bond_type
C27   O33   S    
C87   C88   A    
C128  H90   S    
C11   H49   S    
C101  C102  A    
C131  H96   S    
C41   C42   A    
Cr6   O19   S    
C32   H61   S    
C17   O6    A    
C133  H100  S    
Cr6   O18   S    
Cr3   O3    S    
C55   C56   A    
C38   H3    S    
C114  C115  A    
C57   C58   A    
C119  C120  S    
C104  C109  A    
C39   C41   A    
C1    O12   A    
C77   C78   A    
C52   C53   A    
C103  H45   S    
C99   C108  S    
C105  C107  A    
C46   C49   A    
C26   C27   A    
C93   C94   A    
C29   O21   A    
C105  H47   S    
C64   C68   A    
C92   C93   A    
C95   C106  A    
C123  H77   S    
Cr3   O4    S    
Cr5   O15   S    
C113  C114  A    
C3    C116  A    
C117  H63   S    
C5    C6    A    
C131  H97   S    
C66   C69   A    
C83   H33   S    
C54   C63   S    
C20   O18   A    
C44   H8    S    
C40   C49   S    
C62   C89   S    
C40   O23   A    
C33   H5    S    
C71   H24   S    
N1    N2    A    
C106  H31   S    
C31   C32   A    
C34   C35   A    
C46   C47   A    
Cr2   O2    S    
Cr6   O17   S    
C22   N4    A    
C61   C63   A    
C2    C13   A    
C110  C111  A    
C20   O13   A    
C66   H23   S    
C22   N1    A    
C36   O27   S    
C54   C55   A    
C15   O7    A    
Cr2   O5    S    
C51   O25   A    
C3    H51   S    
C119  H67   S    
C76   H25   S    
C8    C9    A    
C134  H104  S    
C128  H89   S    
C50   C52   A    
C107  C108  A    
C97   H40   S    
C57   C63   A    
C127  H86   S    
C47   H2    S    
C123  C124  S    
C50   C56   A    
Cr2   O26   S    
Cr5   O9    S    
C91   H37   S    
C97   C102  A    
Cr1   O12   S    
C97   C98   A    
C94   C96   A    
C92   H42   S    
C15   O8    A    
C75   H35   S    
C126  C127  S    
C66   C67   A    
C103  C108  A    
C59   C60   A    
C22   C28   S    
C125  H81   S    
C51   O26   A    
Cr4   O14   S    
C55   O29   S    
C25   H21   S    
C122  H75   S    
Cr5   O19   S    
C74   C82   S    
C115  H48   S    
C1    O20   A    
C21   H11   S    
C112  C113  A    
C56   H14   S    
C13   H41   S    
C62   O2    A    
C57   O28   S    
O28   C119  S    
C38   C39   A    
Cr3   O22   S    
C124  C125  S    
C87   H26   S    
C67   C68   A    
C18   C90   S    
C47   C48   A    
Cr1   O24   S    
C133  C134  S    
C24   C25   A    
Cr5   O16   S    
C29   C84   S    
C72   C74   A    
C74   C75   A    
C117  C118  S    
C94   H46   S    
C91   C92   A    
C129  H92   S    
C65   H22   S    
C85   C89   A    
C78   C79   A    
C4    C5    A    
Cr4   O7    S    
C126  H84   S    
C53   C54   A    
C15   C31   S    
C123  H78   S    
C81   C82   A    
C81   H32   S    
C86   C89   A    
C60   C61   A    
C122  H76   S    
C7    C116  A    
C93   C102  S    
C17   C50   S    
Cr2   O21   S    
C75   C76   A    
Cr5   O8    S    
C37   C38   A    
C16   O9    A    
Cr1   O5    S    
C59   C68   S    
C46   H12   S    
C18   O14   A    
C118  H65   S    
C14   C51   S    
C121  H72   S    
C21   C84   A    
C45   C49   A    
C8    C12   A    
C72   H29   S    
C128  H88   S    
C62   O3    A    
C129  C130  S    
C19   O16   A    
C33   C34   A    
O31   C126  S    
C9    C14   A    
C13   C21   A    
C17   O11   A    
C18   O15   A    
Cr3   O5    S    
C90   C96   A    
C86   H36   S    
C73   O4    A    
C79   C88   S    
C85   H34   S    
C20   C110  S    
C26   H60   S    
C132  H99   S    
C83   C85   A    
C60   H18   S    
C120  H69   S    
C114  H58   S    
C10   C11   A    
C121  H73   S    
C6    H55   S    
C10   C14   A    
C124  H80   S    
C5    H54   S    
C134  H103  S    
C37   C43   A    
C58   C59   A    
C4    C12   S    
C122  H74   S    
C132  H98   S    
C16   C30   S    
C90   C91   A    
C3    C4    A    
C130  H94   S    
C111  O32   S    
C103  C104  A    
C98   H39   S    
C44   C45   A    
C86   C87   A    
C118  H66   S    
C127  H87   S    
C37   H4    S    
C61   H19   S    
C25   C30   A    
C80   H30   S    
C105  C109  A    
O30   C123  S    
C10   H59   S    
Cr3   O23   S    
C104  O31   S    
C31   C36   A    
C111  C112  A    
C124  H79   S    
C53   H17   S    
C96   O30   S    
C117  H62   S    
C73   O24   A    
Cr1   O25   S    
C34   C43   S    
C24   C28   A    
C80   C81   A    
Cr1   O1    S    
C9    H57   S    
C77   H28   S    
C7    C113  S    
C23   N3    A    
C110  C115  A    
C11   C12   A    
C119  H68   S    
C29   O22   A    
C6    C7    A    
C40   O1    A    
C120  H71   S    
C120  H70   S    
Cr4   O6    S    
C99   C100  A    
C116  H52   S    
C131  H95   S    
Cr4   O19   S    
C32   C33   A    
C133  H101  S    
C127  C128  S    
C125  H82   S    
Cr2   O20   S    
C130  H93   S    
O29   C121  S    
C44   C48   A    
C107  H38   S    
O32   C129  S    
C70   C76   A    
Cr6   O11   S    
C58   H16   S    
C118  H64   S    
C129  H91   S    
C64   H20   S    
C77   C82   A    
C132  C133  S    
C65   C69   A    
O27   C117  S    
C64   C65   A    
C19   O17   A    
Cr4   O13   S    
C2    C106  A    
C83   C88   A    
C42   H7    S    
C23   N2    A    
C73   C109  S    
Cr6   O10   S    
C101  H44   S    
C24   H50   S    
C1    C69   S    
C45   H9    S    
C70   C71   A    
C121  C122  S    
C79   C80   A    
C8    H56   S    
C71   C72   A    
C112  H53   S    
C130  C131  S    
C41   H6    S    
C98   C99   A    
C42   C43   A    
C125  H83   S    
C2    C23   S    
C52   H13   S    
C134  H102  S    
C100  H43   S    
C19   C70   S    
C100  C101  A    
C35   C36   A    
N3    N4    A    
C67   H15   S    
C126  H85   S    
C35   H10   S    
C84   C95   A    
C16   O10   A    
O33   C132  S    
C78   H27   S    
C95   H1    S    
C39   C48   S    
C27   C28   A    
C26   C30   A    
