data_mof_unit_49694.cif
_audit_creation_date              2012-12-11T14:17:53-0500
_audit_creation_method            fapswitch 2.2
_symmetry_space_group_name_H-M    P1
_symmetry_Int_Tables_number       1
_space_group_crystal_system       triclinic
_cell_length_a                    11.439586
_cell_length_b                    11.521174
_cell_length_c                    18.889647
_cell_angle_alpha                 90.792537
_cell_angle_beta                  90.633113
_cell_angle_gamma                 120.475188
_cell_volume                      2144.98871475

loop_
_atom_site_label
_atom_site_type_symbol
_atom_type_description
_atom_site_fract_x
_atom_site_fract_y
_atom_site_fract_z
_atom_type_partial_charge
C1    C     C_R   0.542275 0.430364 0.139808 0.529700
C2    C     C_R   0.061970 0.462195 0.528620 -0.117768
C3    C     C_R   0.369757 0.874552 0.515859 -0.120676
C4    C     C_R   0.503218 0.625887 0.519911 -0.127036
C5    C     C_R   0.725070 0.977289 0.566873 -0.029483
C6    C     C_R   0.846884 0.586983 0.605861 -0.102904
C7    C     C_R   0.258291 0.264584 0.562238 -0.055241
C8    C     C_R   0.840523 0.637661 0.463357 -0.109909
C9    C     C_R   0.774188 0.146067 0.457848 -0.121850
C10   C     C_R   0.405046 0.238285 0.456346 -0.122949
C11   C     C_R   0.856062 0.067613 0.550848 0.513835
C12   C     C_R   0.540979 0.063944 0.147848 0.532043
C13   C     C_R   0.812298 0.680657 0.585287 0.455833
C14   C     C_R   0.223244 0.137070 0.536536 0.509478
C15   C     C_R   0.816488 0.711121 0.514124 0.436292
C16   C     C_R   0.881871 0.146632 0.493208 0.405966
C17   C     C_R   0.290794 0.125286 0.480362 0.422314
C18   C     C_R   0.522506 0.451762 0.355303 0.513691
C19   C     C_R   0.549223 0.069242 0.354592 0.496639
C20   C     C_R   0.888558 0.462400 0.360779 0.499531
C21   C     C_R   0.418606 0.541487 0.639191 0.504674
C22   C     C_R   0.062877 0.543127 0.647575 0.501701
C23   C     C_R   0.927538 0.473869 0.145392 0.560383
C24   C     C_R   0.456394 0.878260 0.638697 0.499731
C25   C     C_R   0.453367 0.923199 0.935222 -0.001468
C26   C     C_R   0.014160 0.504781 0.924810 0.009093
C27   C     C_R   0.513793 0.509018 0.920489 0.007414
C28   C     C_R   0.982131 0.485692 0.073132 0.001618
C29   C     C_R   0.482556 0.990151 0.080691 0.010069
C30   C     C_R   0.541561 0.470466 0.065565 0.001504
C31   C     C_R   0.355786 0.952465 0.967198 -0.062250
C32   C     C_R   0.004098 0.392817 0.959239 -0.057620
C33   C     C_R   0.617663 0.618961 0.961740 -0.071901
C34   C     C_R   0.458556 0.523829 0.852580 0.538147
C35   C     C_R   0.989134 0.382627 0.034536 -0.058342
C36   C     C_R   0.379860 0.998037 0.040723 -0.068780
C37   C     C_R   0.641142 0.595977 0.034640 -0.063070
C38   C     C_R   0.545130 0.928817 0.048749 -0.034501
C39   C     C_R   0.007673 0.599310 0.037499 -0.029047
C40   C     C_R   0.428252 0.385123 0.024295 -0.030616
C41   C     C_R   0.990409 0.592230 0.962902 -0.034042
C42   C     C_R   0.565544 0.949750 0.976426 -0.030344
C43   C     C_R   0.446420 0.384859 0.951508 -0.030826
C44   C     C_R   0.236029 0.940939 0.933406 0.359328
C45   C     C_R   0.070758 0.546741 0.853690 0.560199
C46   C     C_R   0.996567 0.284678 0.919958 0.380591
C47   C     C_R   0.709796 0.746366 0.932220 0.361181
C48   C     C_R   0.990080 0.273668 0.067139 0.365579
C49   C     C_R   0.289215 0.033614 0.072542 0.364116
C50   C     C_R   0.762614 0.702515 0.069505 0.360787
C51   C     C_R   0.160433 0.985959 0.966931 -0.196282
C52   C     C_R   0.006703 0.187000 0.953423 -0.195791
C53   C     C_R   0.806789 0.847095 0.973324 -0.187504
C54   C     C_R   0.989623 0.174503 0.025968 -0.210030
C55   C     C_R   0.195049 0.042510 0.033110 -0.184207
C56   C     C_R   0.455754 0.885610 0.859907 0.529116
C57   C     C_R   0.841129 0.822365 0.038029 -0.192146
C58   C     C_R   0.478963 0.913789 0.563150 -0.019930
C59   C     C_R   0.996610 0.498984 0.578665 0.017076
C60   C     C_R   0.429465 0.516679 0.563721 -0.008494
C61   C     C_R   0.935634 0.489573 0.434562 -0.005179
C62   C     C_R   0.524585 0.015241 0.426157 0.012469
C63   C     C_R   0.501455 0.478698 0.428411 0.004964
C64   C     C_R   0.613187 0.980317 0.535525 -0.066696
C65   C     C_R   0.904961 0.538882 0.556515 -0.053303
C66   C     C_R   0.370431 0.383428 0.534228 -0.047917
C67   C     C_R   0.394921 0.914326 0.445401 -0.082829
C68   C     C_R   0.888083 0.550757 0.483494 -0.065725
C69   C     C_R   0.636907 0.051389 0.473297 -0.049591
C70   C     C_R   0.429809 0.367782 0.473693 -0.045041
C71   C     C_3   0.611905 0.866493 0.089482 -0.244076
C72   C     C_3   0.546616 0.798855 0.159324 -0.401392
C73   C     C_3   0.106612 0.732084 0.071905 -0.213952
C74   C     C_3   0.176666 0.737363 0.144021 -0.333931
C75   C     C_3   0.298269 0.376924 0.046616 -0.240552
C76   C     C_3   0.319273 0.507585 0.081038 -0.407910
C77   C     C_3   0.895245 0.630126 0.929588 -0.216443
C78   C     C_R   0.031008 0.456812 0.457184 -0.107767
C79   C     C_3   0.822497 0.562702 0.857741 -0.340949
C80   C     C_3   0.693906 0.076533 0.957377 -0.241180
C81   C     C_3   0.669072 0.185863 0.927516 -0.399346
C82   C     C_3   0.382820 0.254239 0.909970 -0.243143
C83   C     C_3   0.452445 0.252039 0.841229 -0.392504
C84   C     C_R   0.530777 0.606469 0.450586 -0.120862
Cr1   Cr    Cr6+3 0.768550 0.541320 0.250660 1.095935
Cr2   Cr    Cr6+3 0.458680 0.227230 0.250660 1.134827
Cr3   Cr    Cr6+3 0.772770 0.231450 0.250660 1.100245
Cr4   Cr    Cr6+3 0.541320 0.768550 0.749340 1.155925
Cr5   Cr    Cr6+3 0.227230 0.458680 0.749340 1.085303
Cr6   Cr    Cr6+3 0.231450 0.772770 0.749340 1.130698
F1    F     F_    0.184519 0.895192 0.868096 -0.590692
F2    F     F_    0.799194 0.813042 0.493161 -0.624483
F3    F     F_    0.008726 0.211348 0.467342 -0.633403
F4    F     F_    0.230890 0.008936 0.442371 -0.602760
F5    F     F_    0.947284 0.253625 0.852182 -0.606666
F6    F     F_    0.742562 0.769306 0.863044 -0.600495
F7    F     F_    0.018561 0.271306 0.136759 -0.607806
F8    F     F_    0.254119 0.017717 0.141702 -0.615378
F9    F     F_    0.816258 0.707929 0.133755 -0.593242
F10   F     F_    0.956128 0.076670 0.592689 -0.539151
F11   F     F_    0.787019 0.749483 0.635393 -0.577181
F12   F     F_    0.125707 0.023129 0.566229 -0.499876
H1    H     H_    0.073909 0.976316 0.939707 0.151694
H2    H     H_    0.141561 0.442829 0.544490 0.153895
H3    H     H_    0.266516 0.809177 0.532539 0.169515
H4    H     H_    0.538507 0.725487 0.539547 0.140627
H5    H     H_    0.715775 0.900099 0.601431 0.255545
H6    H     H_    0.844924 0.566469 0.661772 0.151882
H7    H     H_    0.188884 0.266359 0.599603 0.229648
H8    H     H_    0.834583 0.663632 0.409781 0.209051
H9    H     H_    0.800452 0.218517 0.418184 0.177605
H10   H     H_    0.468743 0.226484 0.420161 0.155912
H11   H     H_    0.585226 0.868849 0.205615 0.197118
H12   H     H_    0.018342 0.118827 0.919673 0.153686
H13   H     H_    0.435140 0.751150 0.155966 0.116421
H14   H     H_    0.572561 0.720381 0.170775 0.182326
H15   H     H_    0.595509 0.783724 0.054436 0.143651
H16   H     H_    0.721572 0.939784 0.097872 0.196232
H17   H     H_    0.185288 0.647668 0.153718 0.111669
H18   H     H_    0.281018 0.821837 0.147030 0.163097
H19   H     H_    0.127060 0.757043 0.188901 0.235229
H20   H     H_    0.188200 0.769065 0.034659 0.136697
H21   H     H_    0.059136 0.794341 0.075270 0.216485
H22   H     H_    0.372828 0.526864 0.132707 0.175572
H23   H     H_    0.868593 0.938276 0.948908 0.148325
H24   H     H_    0.374694 0.593221 0.045064 0.134780
H25   H     H_    0.222418 0.499952 0.092843 0.174309
H26   H     H_    0.235714 0.360427 0.998790 0.151929
H27   H     H_    0.244560 0.293573 0.083606 0.227410
H28   H     H_    0.809514 0.461763 0.848326 0.117850
H29   H     H_    0.719711 0.546366 0.855122 0.167545
H30   H     H_    0.873267 0.628979 0.812575 0.231753
H31   H     H_    0.814538 0.589486 0.967107 0.138683
H32   H     H_    0.946089 0.740413 0.926291 0.218426
H33   H     H_    0.624699 0.156652 0.873407 0.183377
H34   H     H_    0.969297 0.087003 0.052306 0.134186
H35   H     H_    0.603420 0.203951 0.963121 0.130527
H36   H     H_    0.762385 0.282758 0.923142 0.166040
H37   H     H_    0.754566 0.121045 0.006110 0.151915
H38   H     H_    0.749702 0.050601 0.919034 0.231106
H39   H     H_    0.563775 0.316474 0.846711 0.116706
H40   H     H_    0.427098 0.147337 0.828991 0.187979
H41   H     H_    0.416920 0.283386 0.794601 0.203212
H42   H     H_    0.397912 0.188672 0.945194 0.143243
H43   H     H_    0.273371 0.215742 0.899977 0.190710
H44   H     H_    0.134969 0.072599 0.060482 0.157960
H45   H     H_    0.930204 0.895979 0.066199 0.161271
H46   H     H_    0.312504 0.871288 0.406613 0.200624
H47   H     H_    0.082594 0.428239 0.419134 0.206329
H48   H     H_    0.580399 0.691308 0.415769 0.176594
O1    O     O_R   0.910960 0.572410 0.171010 -0.446615
O2    O     O_R   0.528530 0.639750 0.824400 -0.423311
O3    O     O_R   0.111220 0.471470 0.824400 -0.434068
O4    O     O_R   0.360250 0.888780 0.824400 -0.428233
O5    O     O_R   0.909330 0.572400 0.331540 -0.509319
O6    O     O_R   0.427600 0.336930 0.331540 -0.480408
O7    O     O_R   0.663070 0.090670 0.331540 -0.526262
O8    O     O_R   0.572400 0.909330 0.668460 -0.518844
O9    O     O_R   0.336930 0.427600 0.668460 -0.541051
O10   O     O_R   0.090670 0.663070 0.668460 -0.498582
O11   O     O_R   0.638240 0.528520 0.324410 -0.527516
O12   O     O_R   0.427590 0.338550 0.171010 -0.476900
O13   O     O_R   0.471480 0.109720 0.324410 -0.486783
O14   O     O_R   0.890280 0.361760 0.324410 -0.491746
O15   O     O_R   0.528520 0.638240 0.675590 -0.437777
O16   O     O_R   0.109720 0.471480 0.675590 -0.505240
O17   O     O_R   0.361760 0.890280 0.675590 -0.459077
O18   O     O_3   0.666667 0.333333 0.250630 -0.355353
O19   O     O_3   0.333333 0.666667 0.749370 -0.378791
O20   O     O_R   0.661450 0.089040 0.171010 -0.512664
O21   O     O_R   0.572410 0.910960 0.828990 -0.462365
O22   O     O_R   0.338550 0.427590 0.828990 -0.520579
O23   O     O_R   0.089040 0.661450 0.828990 -0.454408
O24   O     O_R   0.639750 0.528530 0.175600 -0.429550
O25   O     O_R   0.471470 0.111220 0.175600 -0.432290
O26   O     O_R   0.888780 0.360250 0.175600 -0.420185

loop_
_geom_bond_atom_site_label_1
_geom_bond_atom_site_label_2
_ccdc_geom_bond_type
C25   C31   A    
C26   C32   A    
C20   O5    A    
C12   C29   S    
Cr1   O11   S    
C73   C74   S    
C9    H9    S    
C25   C56   S    
C18   O6    A    
C39   C41   A    
C27   C33   A    
C81   H35   S    
C48   F7    S    
C29   C36   A    
C50   F9    S    
C62   C67   A    
C9    C16   A    
C9    C69   A    
C38   C42   A    
C45   O23   A    
C41   C77   S    
C42   C80   S    
Cr6   O17   S    
C18   O11   A    
C24   O8    A    
C18   C63   S    
C14   F12   S    
C26   C41   A    
C19   C62   S    
C51   H1    S    
C20   O14   A    
C46   C52   A    
C21   O15   A    
C74   H17   S    
C75   H26   S    
Cr1   O5    S    
C20   C61   S    
Cr2   O6    S    
C26   C45   S    
C49   F8    S    
C7    C14   A    
C46   F5    S    
C28   C35   A    
C79   H28   S    
C73   H21   S    
C29   C38   A    
C47   F6    S    
Cr5   O9    S    
Cr2   O12   S    
Cr4   O8    S    
Cr6   O4    S    
C47   C53   A    
Cr3   O14   S    
C15   F2    S    
C60   C66   A    
Cr4   O21   S    
C21   O9    A    
C14   C17   A    
C77   H31   S    
C35   C48   A    
C6    C65   A    
C52   C54   A    
C81   H33   S    
C77   C79   S    
C27   C34   S    
C58   C64   A    
C81   H36   S    
C1    O24   A    
C31   C44   A    
C71   H15   S    
C19   O7    A    
C32   C35   A    
C24   O17   A    
Cr2   O18   S    
C21   C60   S    
C82   H42   S    
C22   C59   S    
C83   H39   S    
C34   O2    A    
C76   H24   S    
C55   H44   S    
C12   O20   A    
C23   O26   A    
C28   C39   A    
Cr3   O26   S    
C49   C55   A    
Cr3   O20   S    
C4    H4    S    
C72   H11   S    
C3    H3    S    
Cr3   O7    S    
C62   C69   A    
C11   F10   S    
C76   H22   S    
C48   C54   A    
C75   C76   S    
Cr1   O1    S    
C2    C78   A    
C8    H8    S    
C11   C16   A    
Cr5   O3    S    
Cr3   O18   S    
C4    C84   A    
C63   C70   A    
C2    H2    S    
C61   C78   A    
C65   C68   A    
C79   H29   S    
C4    C60   A    
Cr1   O24   S    
C16   F3    S    
C30   C40   A    
C19   O13   A    
C23   C28   S    
C10   H10   S    
C44   F1    S    
C53   H23   S    
C12   O25   A    
C10   C70   A    
C44   C51   A    
C56   O4    A    
C1    O12   A    
C8    C68   A    
C8    C15   A    
C57   H45   S    
C56   O21   A    
C33   C47   A    
C45   O3    A    
C77   H32   S    
C13   F11   S    
C82   H43   S    
C34   O22   A    
C5    H5    S    
C76   H25   S    
C27   C43   A    
C23   O1    A    
C38   C71   S    
C53   C57   A    
Cr4   O19   S    
C71   H16   S    
Cr6   O23   S    
C2    C59   A    
Cr1   O18   S    
C32   C46   A    
C73   H20   S    
C3    C67   A    
Cr5   O22   S    
C80   C81   S    
C25   C42   A    
Cr4   O2    S    
C83   H40   S    
C5    C11   A    
Cr2   O13   S    
C52   H12   S    
C80   H37   S    
C64   C69   A    
C72   H14   S    
C40   C75   S    
C63   C84   A    
C5    C64   A    
C40   C43   A    
C13   C15   A    
Cr5   O19   S    
C71   C72   S    
Cr4   O15   S    
C80   H38   S    
C54   H34   S    
Cr2   O25   S    
C7    C66   A    
C83   H41   S    
C37   C50   A    
C50   C57   A    
C61   C68   A    
C66   C70   A    
C22   O10   A    
C79   H30   S    
Cr6   O19   S    
C1    C30   S    
C51   C55   A    
C39   C73   S    
Cr6   O10   S    
C33   C37   A    
Cr5   O16   S    
C74   H18   S    
C22   O16   A    
C3    C58   A    
C7    H7    S    
C74   H19   S    
C30   C37   A    
C24   C58   S    
C82   C83   S    
C67   H46   S    
C43   C82   S    
C6    H6    S    
C31   C36   A    
C17   F4    S    
C10   C17   A    
C59   C65   A    
C36   C49   A    
C75   H27   S    
C78   H47   S    
C72   H13   S    
C6    C13   A    
C84   H48   S    
