data_mof_unit_8599.cif
_audit_creation_date              2012-12-10T20:25:41-0500
_audit_creation_method            fapswitch 2.2
_symmetry_space_group_name_H-M    P1
_symmetry_Int_Tables_number       1
_space_group_crystal_system       triclinic
_cell_length_a                    8.744594
_cell_length_b                    10.661363
_cell_length_c                    9.856268
_cell_angle_alpha                 88.81221
_cell_angle_beta                  98.631777
_cell_angle_gamma                 88.76217
_cell_volume                      908.005701889

loop_
_atom_site_label
_atom_site_type_symbol
_atom_type_description
_atom_site_fract_x
_atom_site_fract_y
_atom_site_fract_z
_atom_type_partial_charge
C1    C     C_R   0.505168 0.260504 0.501793 0.880807
C2    C     C_R   0.376246 0.943499 0.414445 0.348050
C3    C     C_R   0.498421 0.872350 0.491933 -0.225286
C4    C     C_R   0.631124 0.931040 0.552392 0.101598
C5    C     C_3   0.723386 0.914466 0.691977 -0.436383
C6    C     C_3   0.725888 0.056658 0.697011 -0.467282
C7    C     C_R   0.451191 0.397728 0.067185 0.236679
C8    C     C_R   0.531899 0.605510 0.073858 0.028181
C9    C     C_R   0.532522 0.605373 0.930140 -0.128057
C10   C     C_R   0.451818 0.397659 0.924637 0.246403
C11   C     C_3   0.524509 0.269668 0.932326 -0.517619
C12   C     C_R   0.201693 0.498813 0.463530 0.885088
C13   C     C_3   0.521921 0.268952 0.085740 -0.466038
C14   C     C_R   0.497317 0.739928 0.497964 0.975094
C15   C     C_R   0.798130 0.499448 0.534456 0.938673
C16   C     C_2   0.037674 0.508194 0.440242 0.241906
C17   C     C_2   0.960599 0.483717 0.548804 -0.379057
C18   C     C_R   0.634096 0.059049 0.556461 0.120538
C19   C     C_R   0.503333 0.129151 0.500919 -0.135863
C20   C     C_R   0.380625 0.073181 0.419464 -0.309797
H1    H     H_    0.563253 0.689451 0.878748 0.147343
H2    H     H_    0.446461 0.200044 0.877598 0.210782
H3    H     H_    0.643612 0.270777 0.905751 0.225111
H4    H     H_    0.440935 0.199888 0.119343 0.208109
H5    H     H_    0.639221 0.266910 0.147720 0.251128
H6    H     H_    0.286185 0.130681 0.365234 0.194124
H7    H     H_    0.656707 0.871673 0.767747 0.203319
H8    H     H_    0.839116 0.870408 0.688682 0.222630
H9    H     H_    0.659798 0.094559 0.775045 0.208647
H10   H     H_    0.843220 0.095030 0.697873 0.215634
H11   H     H_    0.561532 0.689833 0.129852 0.172972
N1    N     N_R   0.498950 0.499140 0.142680 -0.094488
N2    N     N_R   0.498950 0.499180 0.857030 -0.113375
O1    O     O_R   0.500020 0.316790 0.614690 -0.629025
O2    O     O_R   0.500000 0.316760 0.385350 -0.637186
O3    O     O_R   0.271760 0.500010 0.587850 -0.635139
O4    O     O_R   0.271740 0.499970 0.358500 -0.532440
O5    O     O_R   0.500000 0.683240 0.614650 -0.641469
O6    O     O_R   0.499980 0.683210 0.385310 -0.575678
O7    O     O_R   0.728260 0.500030 0.641500 -0.626475
O8    O     O_R   0.728240 0.499990 0.412150 -0.539815
Zn1   Zn    Zn3+2 0.500010 0.500020 0.653130 0.972013
Zn2   Zn    Zn3+2 0.499990 0.499980 0.346870 1.077409
S1    S     S_3+6 0.952432 0.560727 0.267890 0.088011
O9    O     O_2   0.858163 0.456992 0.199367 -0.335011
O10   O     O_2   0.850235 0.674743 0.276334 -0.268541
O11   O     O_3   0.083333 0.598510 0.166109 -0.446645
H12   H     H_    0.021683 0.622544 0.076279 0.377430
C21   C     C_1   0.030389 0.425995 0.679742 0.212293
N3    N     N_1   0.084592 0.379919 0.783752 -0.180247
S2    S     S_3+6 0.213063 0.875085 0.320121 0.058972
O12   O     O_2   0.149130 0.781811 0.411438 -0.270142
O13   O     O_2   0.089502 0.972362 0.269439 -0.287890
O14   O     O_3   0.267651 0.802191 0.185022 -0.499135
H13   H     H_    0.315646 0.868047 0.134212 0.329138

loop_
_geom_bond_atom_site_label_1
_geom_bond_atom_site_label_2
_ccdc_geom_bond_type
O4    Zn2   S    
C7    C10   A    
C14   O5    A    
C5    H8    S    
C11   C13   S    
C16   S1    S    
C11   H2    S    
O3    Zn1   S    
C19   C20   A    
O1    Zn1   S    
S1    O11   S    
S2    O14   S    
C4    C18   A    
O7    Zn1   S    
C2    C3    A    
C9    N2    A    
O8    Zn2   S    
C9    H1    S    
C16   C17   D    
C3    C14   S    
C20   H6    S    
N2    Zn1   S    
C11   H3    S    
C6    H10   S    
N1    Zn2   S    
S1    O10   D    
C1    O1    A    
O5    Zn1   S    
C10   N2    A    
C5    C6    S    
C6    C18   S    
C15   O7    A    
C1    C19   S    
C12   O3    A    
C2    S2    S    
C15   O8    A    
C2    C20   A    
S2    O12   D    
C8    N1    A    
O11   H12   S    
C7    C13   S    
C6    H9    S    
O2    Zn2   S    
S1    O9    D    
C1    O2    A    
C15   C17   S    
C18   C19   A    
C10   C11   S    
C17   C21   S    
C12   O4    A    
C21   N3    T    
O14   H13   S    
C8    C9    A    
O6    Zn2   S    
C7    N1    A    
S2    O13   D    
C14   O6    A    
C5    H7    S    
C8    H11   S    
C3    C4    A    
C12   C16   S    
C13   H4    S    
C4    C5    S    
C13   H5    S    
