data_mof_unit_16874.cif
_audit_creation_date              2012-12-10T19:25:54-0500
_audit_creation_method            fapswitch 2.2
_symmetry_space_group_name_H-M    P1
_symmetry_Int_Tables_number       1
_space_group_crystal_system       triclinic
_cell_length_a                    9.768042
_cell_length_b                    10.506975
_cell_length_c                    16.66832
_cell_angle_alpha                 89.99379
_cell_angle_beta                  84.540885
_cell_angle_gamma                 90.348952
_cell_volume                      1702.92136754

loop_
_atom_site_label
_atom_site_type_symbol
_atom_type_description
_atom_site_fract_x
_atom_site_fract_y
_atom_site_fract_z
_atom_type_partial_charge
C1    C     C_R   0.500481 0.742246 0.500197 0.927939
C2    C     C_3   0.475346 0.958942 0.427299 0.045618
C3    C     C_3   0.949242 0.612304 0.516553 -0.185136
C4    C     C_3   0.050782 0.387671 0.483435 -0.198208
C5    C     C_3   0.056649 0.577617 0.447456 0.067015
C6    C     C_3   0.943353 0.422353 0.552535 0.072859
C7    C     C_3   0.037686 0.533598 0.569887 -0.064092
C8    C     C_3   0.962317 0.466373 0.430104 -0.065189
C9    C     C_R   0.480187 0.502503 0.653227 0.882145
C10   C     C_R   0.519455 0.490287 0.347165 0.921037
C11   C     C_R   0.466877 0.485582 0.739950 -0.062285
C12   C     C_R   0.499590 0.257690 0.499923 0.909915
C13   C     C_R   0.533983 0.449292 0.263089 -0.090374
C14   C     C_R   0.560448 0.542264 0.789163 0.175809
C15   C     C_R   0.444261 0.356329 0.233626 0.130400
C16   C     C_R   0.564890 0.495150 0.867155 -0.124873
C17   C     C_R   0.473096 0.314172 0.154077 -0.133354
C18   C     C_R   0.474453 0.398108 0.896910 0.149513
C19   C     C_R   0.582842 0.365931 0.104210 0.136935
C20   C     C_R   0.373489 0.352578 0.850494 -0.165493
C21   C     C_R   0.673800 0.451379 0.135318 -0.172137
C22   C     C_R   0.370287 0.395335 0.772122 -0.149522
C23   C     C_3   0.402299 0.956157 0.555774 -0.263899
C24   C     C_R   0.649824 0.492427 0.214314 -0.190109
C25   C     C_2   0.474253 0.354265 0.979859 -0.212190
C26   C     C_2   0.590140 0.350555 0.016775 -0.217537
C27   C     C_3   0.655075 0.652398 0.761561 -0.413282
C28   C     C_3   0.621064 0.772272 0.811242 -0.912596
C29   C     C_3   0.321142 0.302760 0.287010 -0.380690
C30   C     C_3   0.234229 0.201123 0.249477 -0.928108
C31   C     C_2   0.553448 0.083196 0.655138 0.337182
C32   C     C_2   0.450444 0.914669 0.344520 0.352302
C33   C     C_2   0.126107 0.668952 0.387802 0.454938
C34   C     C_3   0.598313 0.043691 0.444068 -0.260774
C35   C     C_2   0.873784 0.331139 0.612228 0.457203
C36   C     C_3   0.375397 0.040154 0.482421 -0.239666
C37   C     C_3   0.625191 0.959579 0.517286 -0.236033
C38   C     C_3   0.498905 0.122830 0.500278 0.012572
C39   C     C_3   0.501641 0.877012 0.499592 0.010867
C40   C     C_3   0.525452 0.040698 0.572506 0.050613
H1    H     H_    0.901906 0.706676 0.529942 0.126729
H2    H     H_    0.759199 0.491753 0.097189 0.141559
H3    H     H_    0.408404 0.243935 0.128906 0.148494
H4    H     H_    0.637212 0.536464 0.905259 0.134589
H5    H     H_    0.274069 0.076036 0.467635 0.143254
H6    H     H_    0.726604 0.923679 0.531896 0.140538
H7    H     H_    0.323315 0.916672 0.601537 0.141609
H8    H     H_    0.677269 0.083270 0.398319 0.144167
H9    H     H_    0.512502 0.800056 0.806703 0.261463
H10   H     H_    0.637472 0.757131 0.875516 0.269315
H11   H     H_    0.689196 0.851534 0.787775 0.255212
H12   H     H_    0.098194 0.293363 0.469897 0.130233
H13   H     H_    0.763472 0.624906 0.767084 0.233016
H14   H     H_    0.647230 0.678763 0.697859 0.210312
H15   H     H_    0.185313 0.241316 0.197641 0.270377
H16   H     H_    0.297592 0.117680 0.229609 0.260215
H17   H     H_    0.151303 0.168193 0.295121 0.253309
H18   H     H_    0.358860 0.260836 0.341918 0.196052
H19   H     H_    0.249815 0.381797 0.305054 0.261374
H20   H     H_    0.568769 0.012693 0.700852 0.069525
H21   H     H_    0.437886 0.984193 0.297932 0.069451
H22   H     H_    0.181056 0.750593 0.408680 0.089259
H23   H     H_    0.074165 0.561048 0.628591 0.141044
H24   H     H_    0.819747 0.248967 0.591334 0.089107
H25   H     H_    0.925887 0.438819 0.371400 0.145659
H26   H     H_    0.720424 0.560580 0.236993 0.175711
H27   H     H_    0.297155 0.352323 0.735117 0.173098
H28   H     H_    0.689174 0.364659 0.982212 0.159145
H29   H     H_    0.374103 0.341622 0.013237 0.153061
H30   H     H_    0.300100 0.280963 0.874075 0.140507
N1    N     N_3   0.136700 0.499970 0.500060 -0.106251
N2    N     N_3   0.863300 0.500030 0.499940 -0.104850
O1    O     O_R   0.383390 0.686040 0.500000 -0.627877
O2    O     O_2   0.446283 0.801471 0.328651 -0.564806
O3    O     O_2   0.120403 0.652644 0.315733 -0.570387
O4    O     O_2   0.878297 0.348190 0.684329 -0.578121
O5    O     O_R   0.616610 0.313960 0.500000 -0.628173
O6    O     O_R   0.616650 0.686050 0.499970 -0.631099
O7    O     O_R   0.383350 0.313950 0.500030 -0.638998
O8    O     O_R   0.369590 0.500020 0.615820 -0.628328
O9    O     O_R   0.630410 0.499980 0.384180 -0.622757
O10   O     O_R   0.602840 0.500020 0.615790 -0.591379
O11   O     O_R   0.397160 0.499980 0.384210 -0.603165
O12   O     O_2   0.559106 0.196032 0.671581 -0.567242
Zn1   Zn    Zn3+2 0.344250 0.499990 0.500020 0.948062
Zn2   Zn    Zn3+2 0.655750 0.500010 0.499980 0.958676

loop_
_geom_bond_atom_site_label_1
_geom_bond_atom_site_label_2
_ccdc_geom_bond_type
C30   H17   S    
C34   C37   S    
C4    C8    S    
C27   H14   S    
C6    C35   S    
C6    N2    S    
C29   C30   S    
C4    H12   S    
C19   C21   A    
C32   H21   S    
C37   C40   S    
C3    C7    S    
C7    N1    S    
C28   H11   S    
C23   C40   S    
C12   O7    A    
C10   O11   A    
C31   C40   S    
C2    C32   S    
C19   C26   S    
C17   C19   A    
N1    Zn1   S    
C28   H10   S    
C2    C39   S    
C33   O3    D    
C29   H19   S    
C33   H22   S    
C5    C33   S    
C35   H24   S    
C14   C27   S    
C16   H4    S    
O9    Zn2   S    
C24   H26   S    
C9    O10   A    
O6    Zn2   S    
C8    H25   S    
C1    O6    A    
C20   H30   S    
C18   C25   S    
C15   C29   S    
C35   O4    D    
C8    N2    S    
C23   H7    S    
C4    C6    S    
C25   C26   D    
O10   Zn2   S    
C30   H16   S    
C31   O12   D    
C13   C24   A    
C9    O8    A    
C31   H20   S    
C17   H3    S    
O8    Zn1   S    
C28   H9    S    
C7    H23   S    
C12   O5    A    
C36   H5    S    
C9    C11   S    
O1    Zn1   S    
C16   C18   A    
O11   Zn1   S    
C20   C22   A    
O5    Zn2   S    
C13   C15   A    
C14   C16   A    
C25   H29   S    
O7    Zn1   S    
C2    C36   S    
C15   C17   A    
C3    H1    S    
C32   O2    D    
C10   O9    A    
C34   C38   S    
C3    C5    S    
C10   C13   S    
C5    C8    S    
N2    Zn2   S    
C27   H13   S    
C6    C7    S    
C30   H15   S    
C11   C22   A    
C1    O1    A    
C36   C38   S    
C3    N2    S    
C26   H28   S    
C5    N1    S    
C38   C40   S    
C2    C34   S    
C23   C39   S    
C11   C14   A    
C18   C20   A    
C12   C38   S    
C22   H27   S    
C1    C39   S    
C21   H2    S    
C34   H8    S    
C29   H18   S    
C37   C39   S    
C23   C36   S    
C21   C24   A    
C27   C28   S    
C37   H6    S    
C4    N1    S    
