data_mof_unit_26362.cif
_audit_creation_date              2012-12-11T18:13:26-0500
_audit_creation_method            fapswitch 2.2
_symmetry_space_group_name_H-M    P1
_symmetry_Int_Tables_number       1
_space_group_crystal_system       triclinic
_cell_length_a                    8.192849
_cell_length_b                    12.958862
_cell_length_c                    18.667992
_cell_angle_alpha                 99.611614
_cell_angle_beta                  91.398884
_cell_angle_gamma                 98.755967
_cell_volume                      1928.85691565

loop_
_atom_site_label
_atom_site_type_symbol
_atom_type_description
_atom_site_fract_x
_atom_site_fract_y
_atom_site_fract_z
_atom_type_partial_charge
Ba1   Ba    Ba6+2 0.852780 0.548340 0.465070 1.682218
Ba2   Ba    Ba6+2 0.337060 0.451750 0.534940 1.675826
C1    C     C_3   0.691717 0.905243 0.252580 -0.363020
C2    C     C_R   0.888832 0.394336 0.094689 0.037681
C3    C     C_R   0.724142 0.352060 0.071925 -0.061707
C4    C     C_3   0.186123 0.827699 0.263587 0.342385
C5    C     C_R   0.661645 0.360755 0.003150 -0.066515
C6    C     C_R   0.763228 0.410495 0.955285 0.033566
C7    C     C_R   0.928308 0.453731 0.977446 0.031535
C8    C     C_R   0.702884 0.415347 0.885209 -0.113330
C9    C     C_R   0.806883 0.459193 0.834967 -0.043858
C10   C     C_R   0.971243 0.506574 0.857791 0.011553
C11   C     C_R   0.031014 0.503630 0.929437 0.004490
C12   C     C_3   0.669114 0.810238 0.291212 0.363006
C13   C     C_R   0.754344 0.452386 0.761576 -0.014089
C14   C     C_R   0.864713 0.489830 0.711993 -0.281354
C15   C     C_R   0.023252 0.544550 0.734123 0.032743
C16   C     C_3   0.278853 0.936782 0.255278 -0.399184
C17   C     C_R   0.077961 0.553109 0.808513 -0.054082
C18   C     C_R   0.155716 0.489465 0.070132 0.009599
C19   C     C_R   0.215681 0.487774 0.141821 0.033723
C20   C     C_R   0.110123 0.440494 0.190997 -0.006431
C21   C     C_R   0.950974 0.387899 0.164461 -0.020346
C22   C     C_R   0.238229 0.602042 0.834724 -0.019351
C23   C     C_3   0.461626 0.272171 0.315289 0.297555
C24   C     C_R   0.300696 0.592463 0.903532 0.024523
C25   C     C_R   0.196524 0.544850 0.951635 0.016236
C26   C     C_R   0.259063 0.537549 0.021683 0.038075
C27   C     C_R   0.468372 0.626314 0.923883 -0.053598
C28   C     C_3   0.256419 0.781217 0.621419 0.329684
C29   C     C_R   0.530363 0.620301 0.993155 -0.087083
C30   C     C_R   0.425706 0.577859 0.042924 0.025654
C31   C     C_R   0.380171 0.535480 0.164489 -0.043478
C32   C     C_R   0.485399 0.575564 0.113419 -0.114908
C33   C     C_R   0.433328 0.543350 0.237924 -0.019830
C34   C     C_3   0.438211 0.235408 0.233472 -0.381199
C35   C     C_R   0.325322 0.503690 0.287177 -0.282756
C36   C     C_R   0.166299 0.450516 0.265251 0.058610
C37   C     C_R   0.767155 0.184037 0.531685 -0.269922
C38   C     C_R   0.437926 0.811640 0.468476 -0.266822
C39   C     C_R   0.404048 0.985951 0.449231 -0.094146
C40   C     C_3   0.337706 0.895493 0.646364 -0.341510
C41   C     C_R   0.343634 0.877792 0.440483 -0.014677
C42   C     C_R   0.584396 0.851964 0.511061 0.027270
C43   C     C_R   0.648953 0.964060 0.521566 -0.093629
C44   C     C_R   0.557438 0.030305 0.486937 -0.039178
C45   C     C_3   0.015040 0.221088 0.738460 0.367081
C46   C     C_R   0.619107 0.140399 0.492396 0.038074
C47   C     C_R   0.860597 0.121901 0.564019 -0.077301
C48   C     C_R   0.799940 0.014619 0.563003 -0.088751
C49   C     C_3   0.968226 0.216156 0.384315 0.287143
C50   C     C_3   0.009546 0.104740 0.374899 -0.346173
C51   C     C_3   0.728688 0.704496 0.684084 0.322068
C52   C     C_3   0.805758 0.745992 0.761698 0.356189
C53   C     C_2   0.098643 0.770783 0.192638 0.895581
C54   C     C_2   0.903034 0.965546 0.608529 0.895566
C55   C     C_3   0.092819 0.258298 0.815494 0.389726
C56   C     C_3   0.551254 0.190907 0.708598 0.325330
C57   C     C_3   0.572138 0.107944 0.754683 -0.280888
C58   C     C_R   0.991012 0.445951 0.047475 0.008188
H1    H     H_    0.748744 0.828815 0.342144 0.091820
H2    H     H_    0.818703 0.662565 0.652316 -0.087647
H3    H     H_    0.614543 0.647732 0.686844 0.040942
H4    H     H_    0.656428 0.975295 0.287926 0.074100
H5    H     H_    0.934934 0.785307 0.759197 0.022170
H6    H     H_    0.809733 0.677980 0.790060 -0.088355
H7    H     H_    0.538385 0.794030 0.305332 -0.084906
H8    H     H_    0.614343 0.886764 0.201123 0.126643
H9    H     H_    0.343602 0.294228 0.335993 0.014513
H10   H     H_    0.560229 0.342684 0.325781 0.059592
H11   H     H_    0.335013 0.167893 0.220869 0.136852
H12   H     H_    0.456693 0.896486 0.675785 0.158457
H13   H     H_    0.408704 0.301108 0.206715 0.051885
H14   H     H_    0.553375 0.210046 0.211578 0.128642
H15   H     H_    0.822384 0.922972 0.238149 0.151968
H16   H     H_    0.356991 0.930411 0.207632 0.116419
H17   H     H_    0.978415 0.292020 0.720036 -0.152930
H18   H     H_    0.903313 0.162376 0.740298 0.042637
H19   H     H_    0.212711 0.310582 0.814359 0.061561
H20   H     H_    0.009084 0.304824 0.847489 -0.076451
H21   H     H_    0.675456 0.221546 0.691003 -0.108129
H22   H     H_    0.470824 0.153683 0.659473 0.086545
H23   H     H_    0.359128 0.937297 0.599633 0.081934
H24   H     H_    0.651445 0.144244 0.804326 0.158865
H25   H     H_    0.630545 0.045738 0.722364 0.142200
H26   H     H_    0.450816 0.072017 0.771230 0.193134
H27   H     H_    0.642883 0.313247 0.107642 0.070730
H28   H     H_    0.533863 0.327849 0.987203 0.129688
H29   H     H_    0.823562 0.480365 0.655448 0.070461
H30   H     H_    0.575231 0.382105 0.870161 0.118961
H31   H     H_    0.871151 0.344797 0.198328 0.089395
H32   H     H_    0.319636 0.643074 0.800774 0.152673
H33   H     H_    0.552112 0.654451 0.885175 0.150855
H34   H     H_    0.258186 0.938730 0.683747 0.186076
H35   H     H_    0.660358 0.648362 0.007633 0.109245
H36   H     H_    0.614084 0.606483 0.127770 0.114244
H37   H     H_    0.274210 0.776760 0.278354 -0.111263
H38   H     H_    0.367975 0.511357 0.343425 0.063208
H39   H     H_    0.327583 0.035016 0.427523 0.089827
H40   H     H_    0.814898 0.267137 0.533793 0.059333
H41   H     H_    0.389871 0.727839 0.461511 0.053429
H42   H     H_    0.189573 0.990819 0.247261 0.137404
H43   H     H_    0.359582 0.972016 0.304173 0.092554
H44   H     H_    0.350234 0.734775 0.597585 -0.002543
H45   H     H_    0.835888 0.213316 0.393771 -0.007195
H46   H     H_    0.156517 0.776697 0.579410 0.090388
H47   H     H_    0.659954 0.871275 0.933176 0.374463
H48   H     H_    0.159076 0.990060 0.835636 0.379780
H49   H     H_    0.953111 0.639535 0.140309 0.304072
H50   H     H_    0.959326 0.938511 0.707406 0.350159
H51   H     H_    0.042342 0.262231 0.432802 0.078173
H52   H     H_    0.932085 0.053725 0.329712 0.112263
H53   H     H_    0.987405 0.071358 0.425338 0.096339
H54   H     H_    0.140919 0.106172 0.361821 0.122870
O1    O     O_2   0.873090 0.425890 0.325140 -0.460960
O2    O     O_2   0.205784 0.131311 0.557433 -0.456319
O3    O     O_3   0.126940 0.174491 0.692362 -0.548597
O4    O     O_3   0.122420 0.434370 0.414380 -0.504262
O5    O     O_3   0.578370 0.633800 0.536380 -0.494642
O6    O     O_2   0.341510 0.231850 0.465510 -0.476341
O7    O     O_3   0.506564 0.189618 0.347695 -0.647868
O8    O     O_2   0.414279 0.458803 0.754112 -0.502229
O9    O     O_3   0.475256 0.268743 0.750220 -0.569525
O10   O     O_3   0.659500 0.627100 0.368810 -0.486664
O11   O     O_2   0.767082 0.534416 0.245708 -0.446763
O12   O     O_3   0.691246 0.788418 0.651551 -0.606537
O13   O     O_3   0.999566 0.255905 0.319749 -0.638971
O14   O     O_3   0.715783 0.724801 0.244297 -0.565932
O15   O     O_2   0.848200 0.768190 0.534530 -0.451746
O16   O     O_3   0.081160 0.685950 0.404810 -0.455926
O17   O     O_2   0.005582 0.873334 0.449380 -0.448480
O18   O     O_2   0.757321 0.947608 0.809815 -0.220246
O19   O     O_2   0.513638 0.809810 0.798309 -0.337915
O20   O     O_3   0.731683 0.825717 0.905380 -0.517286
O21   O     O_2   0.262903 0.188968 0.917250 -0.302956
O22   O     O_2   0.965034 0.124484 0.902137 -0.240535
O23   O     O_3   0.065572 0.841675 0.315152 -0.606927
O24   O     O_3   0.154906 0.045361 0.805156 -0.518454
O25   O     O_2   0.098738 0.813478 0.138870 -0.615012
O26   O     O_R   0.014602 0.668036 0.189059 -0.720218
O27   O     O_2   0.032800 0.941272 0.586278 -0.605916
O28   O     O_R   0.872465 0.968424 0.681416 -0.726078
O29   O     O_2   0.316610 0.574140 0.674900 -0.463305
O30   O     O_3   0.067290 0.565720 0.585630 -0.500564
O31   O     O_3   0.530210 0.372990 0.631200 -0.467483
O32   O     O_3   0.190948 0.743313 0.682018 -0.627346
O33   O     O_3   0.611340 0.366290 0.463630 -0.481674
O34   O     O_3   0.108550 0.314140 0.595200 -0.473885
P1    P     P_3+3 0.041040 0.394770 0.336330 0.976089
P2    P     P_3+3 0.672880 0.754030 0.556100 0.986452
P3    P     P_3+3 0.130941 0.821266 0.401301 0.985608
P4    P     P_3+3 0.148670 0.605320 0.663680 0.986063
P5    P     P_3+3 0.073193 0.182280 0.602031 1.019601
P6    P     P_3+3 0.641942 0.606618 0.274268 0.988558
P7    P     P_3+3 0.523905 0.230560 0.442184 0.928435
P8    P     P_3+3 0.544690 0.390907 0.725273 0.965417
S1    S     S_3+6 0.695821 0.835545 0.817915 -0.058403
S2    S     S_3+6 0.119042 0.152543 0.862792 -0.030064

loop_
_geom_bond_atom_site_label_1
_geom_bond_atom_site_label_2
_ccdc_geom_bond_type
H48   O24   S    
C55   S2    S    
O10   P6    S    
Ba2   O30   S    
C55   H19   S    
O17   P3    D    
C1    H8    S    
C33   P6    S    
C4    C53   S    
Ba2   O4    S    
C12   O14   S    
C5    C6    A    
C52   H5    S    
C51   C52   S    
C42   C43   A    
Ba2   O31   S    
C56   O9    S    
H49   O26   S    
C47   P5    S    
C33   C35   A    
C32   H36   S    
H47   O20   S    
Ba1   O15   S    
C56   H22   S    
Ba1   O5    S    
C19   C31   A    
C50   H52   S    
Ba2   O34   S    
C13   C14   A    
C20   C36   A    
C53   O25   D    
Ba1   Ba2   S    
C16   H42   S    
H50   O28   S    
C7    C11   A    
C51   H3    S    
C31   C33   A    
C38   H41   S    
O31   P8    S    
C9    C13   A    
C38   C41   A    
C29   C30   A    
C14   C15   A    
C49   H51   S    
C39   C44   A    
C39   H39   S    
Ba1   P1    S    
C18   C58   A    
O33   P7    S    
C36   P1    S    
C34   H11   S    
O14   P6    S    
C16   H43   S    
C54   O28   S    
O5    P2    S    
C14   H29   S    
O21   S2    D    
C19   C20   A    
C28   H46   S    
C27   C29   A    
Ba2   O29   S    
C39   C41   A    
C55   H20   S    
C2    C58   A    
C22   H32   S    
C35   H38   S    
C28   O32   S    
O9    P8    S    
Ba2   P4    S    
C4    C16   S    
C44   C46   A    
C49   C50   S    
C4    H37   S    
C26   C30   A    
C57   H24   S    
Ba1   O16   S    
C51   O12   S    
C56   H21   S    
C3    C5    A    
C2    C21   A    
Ba2   O6    S    
C6    C7    A    
C18   C26   A    
C56   C57   S    
C50   H53   S    
C12   H1    S    
O6    P7    D    
C42   P2    S    
C53   O26   S    
C30   C32   A    
O4    P1    S    
C57   H25   S    
C35   C36   A    
C45   C55   S    
C51   H2    S    
O24   S2    S    
C5    H28   S    
C45   O3    S    
C12   H7    S    
O1    P1    D    
C40   H12   S    
C31   C32   A    
C24   C25   A    
Ba1   P2    S    
C18   C19   A    
C13   P8    S    
C1    C12   S    
C34   H14   S    
O32   P4    S    
C54   O27   D    
O29   P4    D    
C37   C47   A    
C46   P7    S    
O3    P5    S    
C21   H31   S    
Ba1   O33   S    
C15   P4    S    
C23   H9    S    
O34   P5    S    
C45   H17   S    
O16   P3    S    
C41   P3    S    
O11   P6    D    
C16   H16   S    
O7    P7    S    
C40   H34   S    
O8    P8    D    
C28   C40   S    
C40   H23   S    
C22   C24   A    
C2    C3    A    
Ba2   O33   S    
Ba2   O5    S    
C52   H6    S    
C50   H54   S    
O18   S1    D    
C7    C58   A    
C49   O13   S    
C4    O23   S    
C17   C22   A    
C1    H15   S    
Ba1   O10   S    
O22   S2    D    
O15   P2    D    
O30   P4    S    
Ba1   O30   S    
O13   P1    S    
C52   S1    S    
C27   H33   S    
O12   P2    S    
C37   H40   S    
C43   C48   A    
C29   H35   S    
C10   C17   A    
O23   P3    S    
C15   C17   A    
O19   S1    D    
Ba1   O4    S    
C1    H4    S    
C48   C54   S    
C49   H45   S    
C57   H26   S    
C8    C9    A    
C23   C34   S    
C3    H27   S    
C43   C44   A    
C38   C42   A    
O20   S1    S    
C10   C11   A    
C8    H30   S    
C24   C27   A    
C6    C8    A    
C47   C48   A    
C28   H44   S    
C25   C26   A    
C20   C21   A    
C11   C25   A    
O2    P5    D    
C23   H10   S    
Ba1   O1    S    
C45   H18   S    
C23   O7    S    
C34   H13   S    
C9    C10   A    
C37   C46   A    
