data_mof_unit_37399.cif
_audit_creation_date              2013-03-05T16:12:46-0500
_audit_creation_method            fapswitch 2.2
_symmetry_space_group_name_H-M    P1
_symmetry_Int_Tables_number       1
_space_group_crystal_system       triclinic
_cell_length_a                    10.689035
_cell_length_b                    9.958594
_cell_length_c                    26.902577
_cell_angle_alpha                 89.570707
_cell_angle_beta                  92.470594
_cell_angle_gamma                 88.158129
_cell_volume                      2859.46594155

loop_
_atom_site_label
_atom_site_type_symbol
_atom_site_description
_atom_site_fract_x
_atom_site_fract_y
_atom_site_fract_z
_atom_type_partial_charge
O1    O     O_R   0.316770 0.614620 0.500000 -0.575242
O2    O     O_R   0.683230 0.385380 0.500000 -0.583341
O3    O     O_R   0.683230 0.614620 0.500000 -0.601472
O4    O     O_R   0.316770 0.385380 0.500000 -0.591039
C1    C     C_R   0.259257 0.502404 0.503045 0.881352
C2    C     C_R   0.737846 0.497631 0.493189 0.903226
O5    O     O_R   0.500030 0.614650 0.428760 -0.591295
O6    O     O_R   0.499970 0.385350 0.571240 -0.619950
O7    O     O_R   0.499970 0.614650 0.571240 -0.590210
O8    O     O_R   0.500030 0.385350 0.428760 -0.613293
C3    C     C_R   0.499452 0.499517 0.405474 0.877269
C4    C     C_R   0.499959 0.498405 0.594664 0.875101
Zn1   Zn    Zn3+2 0.500000 0.653120 0.500000 1.052685
Zn2   Zn    Zn3+2 0.500000 0.346880 0.500000 1.027782
C5    C     C_R   0.407991 0.315802 0.180212 0.563083
C6    C     C_R   0.589691 0.311504 0.821017 0.559526
O9    O     O_2   0.303891 0.312566 0.206820 -0.531800
O10   O     O_2   0.694283 0.308960 0.794593 -0.538045
N1    N     N_R   0.519671 0.352669 0.202215 -0.332228
N2    N     N_R   0.475891 0.347700 0.798581 -0.330022
C7    C     C_R   0.627457 0.345930 0.176333 0.553488
C8    C     C_R   0.368046 0.339472 0.824119 0.559982
C9    C     C_R   0.610253 0.347400 0.289420 0.010697
C10   C     C_R   0.391359 0.342578 0.710627 -0.003375
C11   C     C_R   0.611155 0.400982 0.337280 -0.176997
C12   C     C_R   0.391491 0.395503 0.662355 -0.216928
C13   C     C_R   0.423314 0.535912 0.316188 -0.069688
C14   C     C_R   0.565827 0.534907 0.685212 -0.033492
C15   C     C_R   0.434527 0.500219 0.266461 -0.114694
C16   C     C_R   0.552157 0.499378 0.734926 -0.128193
C17   C     C_R   0.523080 0.401080 0.252779 0.205548
C18   C     C_R   0.470804 0.397987 0.747979 0.195271
C19   C     C_R   0.511812 0.264902 0.104097 -0.056743
C20   C     C_R   0.488494 0.261373 0.897416 -0.057483
C21   C     C_R   0.400728 0.282636 0.129770 -0.034326
C22   C     C_R   0.598644 0.278838 0.871681 -0.031836
C23   C     C_R   0.284873 0.272146 0.104299 -0.110827
C24   C     C_R   0.715043 0.269230 0.897301 -0.109579
C25   C     C_R   0.628069 0.285515 0.129008 -0.058934
C26   C     C_R   0.371045 0.280550 0.872145 -0.063017
C27   C     C_R   0.515318 0.489969 0.351800 -0.059691
C28   C     C_R   0.481556 0.486731 0.648429 -0.097462
H1    H     H_    0.366585 0.540679 0.238756 0.173466
H2    H     H_    0.614594 0.540622 0.763323 0.173541
H3    H     H_    0.198154 0.289595 0.122997 0.205240
H4    H     H_    0.800769 0.286441 0.878497 0.205753
C29   C     C_R   0.384108 0.213119 0.974108 -0.011114
C30   C     C_R   0.619084 0.214051 0.027964 -0.010793
C31   C     C_R   0.614003 0.226335 0.975222 0.076250
C32   C     C_R   0.388390 0.227161 0.026734 0.076002
C33   C     C_R   0.495741 0.231127 0.948886 0.073571
C34   C     C_R   0.506354 0.232918 0.052984 0.073465
C35   C     C_R   0.271689 0.191723 0.945247 -0.116729
C36   C     C_R   0.732851 0.193842 0.057022 -0.117666
C37   C     C_R   0.262641 0.236520 0.895049 -0.092135
C38   C     C_R   0.739225 0.240934 0.106606 -0.091191
O11   O     O_2   0.259316 0.390757 0.803567 -0.548345
O12   O     O_2   0.732583 0.399840 0.195896 -0.549987
C39   C     C_R   0.278816 0.250779 0.053355 -0.143005
C40   C     C_R   0.722219 0.249247 0.948425 -0.143427
H5    H     H_    0.331062 0.352782 0.633770 0.222414
H6    H     H_    0.678140 0.360496 0.365337 0.213566
H7    H     H_    0.187087 0.261017 0.035197 0.176223
H8    H     H_    0.813243 0.260166 0.966512 0.176183
C41   C     C_R   0.063224 0.383196 0.510266 -0.091781
C42   C     C_R   0.928057 0.612769 0.472919 -0.102456
C43   C     C_R   0.939856 0.372520 0.492954 -0.112076
C44   C     C_R   0.053215 0.624945 0.488424 -0.116023
C45   C     C_R   0.869730 0.491738 0.482374 -0.173119
C46   C     C_R   0.122997 0.506752 0.504187 -0.185983
C47   C     C_R   0.555885 0.069303 0.538612 -0.058896
C48   C     C_R   0.448443 0.931517 0.460544 -0.066630
C49   C     C_R   0.446397 0.074809 0.460856 -0.044396
C50   C     C_R   0.557656 0.925957 0.538104 -0.013155
N3    N     N_R   0.500000 0.857200 0.500000 -0.154752
N4    N     N_R   0.500000 0.142800 0.500000 -0.160146
C51   C     C_1   0.306434 0.598597 0.329874 0.202574
N5    N     N_1   0.210973 0.646762 0.339957 -0.086287
C52   C     C_1   0.681003 0.596125 0.673462 0.294582
N6    N     N_1   0.775972 0.642343 0.665481 -0.150753
C53   C     C_2   0.616586 0.138421 0.581082 0.989220
O13   O     O_2   0.709698 0.203511 0.575188 -0.570666
O14   O     O_R   0.568401 0.126374 0.628337 -0.769456
H9    H     H_    0.617736 0.177833 0.654534 0.358116
C54   C     C_2   0.401236 0.863973 0.415713 0.966169
O15   O     O_2   0.310638 0.793539 0.417626 -0.596838
O16   O     O_R   0.460654 0.881767 0.370952 -0.748454
H10   H     H_    0.416699 0.836657 0.341835 0.350900
C55   C     C_2   0.384103 0.150007 0.418694 0.995888
O17   O     O_2   0.434845 0.155670 0.378889 -0.589893
O18   O     O_R   0.266264 0.211455 0.423890 -0.750820
H11   H     H_    0.233697 0.260125 0.392477 0.348527
C56   C     C_2   0.638421 0.853372 0.575234 0.983559
O19   O     O_2   0.603911 0.840055 0.617607 -0.590476
O20   O     O_R   0.759838 0.814771 0.562937 -0.741463
H12   H     H_    0.814748 0.782576 0.592388 0.358825
C57   C     C_2   0.317406 0.221370 0.719264 1.015479
O21   O     O_2   0.218142 0.206659 0.695900 -0.538969
O22   O     O_R   0.362923 0.121690 0.752845 -0.794905
H13   H     H_    0.304137 0.044258 0.755308 0.358986
C58   C     C_2   0.692233 0.227214 0.280680 1.010398
O23   O     O_2   0.793948 0.213667 0.303095 -0.567057
O24   O     O_R   0.651618 0.127048 0.248185 -0.789461
H14   H     H_    0.715669 0.050402 0.245546 0.360002
C59   C     C_1   0.146611 0.222818 0.865731 0.359719
N7    N     N_1   0.054170 0.211715 0.842303 -0.110697
C60   C     C_1   0.856125 0.228735 0.136055 0.359472
N8    N     N_1   0.949250 0.218837 0.159599 -0.112195
C61   C     C_2   0.173839 0.104496 0.965037 0.919668
O25   O     O_2   0.062971 0.125282 0.953514 -0.634263
O26   O     O_R   0.209801 0.998234 0.997403 -0.762011
H15   H     H_    0.135875 0.946203 0.008571 0.361520
C62   C     C_2   0.835932 0.105621 0.038294 0.920615
O27   O     O_2   0.945543 0.126399 0.049676 -0.634424
O28   O     O_R   0.806348 0.998399 0.007094 -0.761372
H16   H     H_    0.883387 0.945766 0.996566 0.361553
C63   C     C_2   0.124376 0.270585 0.539608 1.038016
O29   O     O_2   0.139549 0.281500 0.584623 -0.593235
O30   O     O_R   0.164248 0.153239 0.516082 -0.746456
H17   H     H_    0.206127 0.085315 0.540199 0.363607
C64   C     C_2   0.856438 0.722868 0.445511 1.038893
O31   O     O_2   0.804816 0.699511 0.405181 -0.601633
O32   O     O_R   0.841149 0.849302 0.466888 -0.707285
H18   H     H_    0.781750 0.910338 0.446126 0.340664
C65   C     C_2   0.887121 0.239300 0.480695 1.042260
O33   O     O_2   0.905778 0.142200 0.508401 -0.538084
O34   O     O_R   0.814129 0.227034 0.436661 -0.782410
H19   H     H_    0.778214 0.134896 0.432498 0.347537
C66   C     C_2   0.104154 0.762120 0.492420 1.067914
O35   O     O_2   0.155127 0.797430 0.531536 -0.587004
O36   O     O_R   0.088565 0.852768 0.452518 -0.730903
H20   H     H_    0.124672 0.943440 0.460235 0.387131

loop_
_geom_bond_atom_site_label_1
_geom_bond_atom_site_label_2
_geom_bond_distance
_ccdc_geom_bond_type
C2    C45   1.451100 S    
C42   C44   1.393395 A    
O16   H10   1.011570 S    
C58   O23   1.223423 D    
C13   C15   1.395941 A    
O20   H12   1.009489 S    
O3    C2    1.303998 A    
N1    C17   1.445981 S    
C8    O11   1.348902 S    
C48   C54   1.463978 S    
O32   H18   1.011978 S    
C54   O15   1.216497 D    
C19   C34   1.412983 A    
C30   C36   1.424902 A    
C20   C33   1.413180 A    
C19   C25   1.407892 A    
C31   C40   1.412864 A    
C37   C59   1.451584 S    
O14   H9    1.013970 S    
C20   C26   1.408471 A    
C32   C39   1.413215 A    
C21   C23   1.396523 A    
C12   H5    1.081360 S    
C10   C12   1.397937 A    
C66   O35   1.223247 D    
C43   C65   1.491717 S    
C47   N4    1.370613 A    
C42   C45   1.401258 A    
O28   H16   1.013724 S    
C36   C62   1.493983 S    
C66   O36   1.398350 S    
C14   C28   1.406714 A    
C14   C52   1.437412 S    
O7    Zn1   1.951652 S    
C4    C28   1.472366 S    
C53   O14   1.397834 S    
C5    N1    1.371395 A    
C25   C38   1.415572 A    
C41   C43   1.387070 A    
C32   C34   1.421410 A    
C60   N8    1.157660 T    
C55   O18   1.395514 S    
O3    Zn1   1.983596 S    
C6    N2    1.370818 A    
C29   C35   1.425027 A    
C54   O16   1.398146 S    
C56   O20   1.395871 S    
C15   H1    1.084105 S    
C50   C56   1.462981 S    
C16   H2    1.084472 S    
O2    C2    1.293101 A    
C48   N3    1.374668 A    
C5    C21   1.398549 A    
C57   O22   1.398524 S    
C57   O21   1.223198 D    
C29   C32   1.422614 A    
C35   C37   1.417412 A    
C36   C38   1.416904 A    
C24   H4    1.083382 S    
C50   N3    1.372089 A    
C10   C57   1.486219 S    
Zn1   N3    2.032350 S    
O8    Zn2   1.951657 S    
C11   C27   1.403092 A    
O18   H11   1.013866 S    
C63   O30   1.396488 S    
O4    C1    1.304799 A    
C29   C33   1.413565 A    
C31   C33   1.421489 A    
C51   N5    1.157235 T    
C53   O13   1.220427 D    
C43   C45   1.404196 A    
C9    C17   1.416536 A    
C41   C46   1.416151 A    
O5    C3    1.310703 A    
C10   C18   1.414292 A    
C38   C60   1.451628 S    
C1    C46   1.457396 S    
C13   C27   1.406278 A    
O22   H13   1.013812 S    
C7    C25   1.412416 A    
C30   C34   1.413372 A    
O6    C4    1.294334 A    
C26   C37   1.415896 A    
C8    C26   1.413684 A    
C42   C64   1.489003 S    
C56   O19   1.220768 D    
C64   O31   1.223175 D    
C23   C39   1.387582 A    
C24   C40   1.386715 A    
C44   C46   1.424928 A    
C30   C31   1.421786 A    
N2    C8    1.371532 A    
C65   O33   1.222455 D    
C49   N4    1.370891 A    
O1    C1    1.296384 A    
O1    Zn1   2.007784 S    
C23   H3    1.083333 S    
O34   H19   1.011098 S    
C12   C28   1.405255 A    
C62   O27   1.222669 D    
N2    C18   1.445197 S    
C35   C61   1.493799 S    
C5    O9    1.349912 S    
O6    Zn2   1.957277 S    
O26   H15   1.013717 S    
N1    C7    1.371720 A    
C6    O10   1.350139 S    
C48   C49   1.426539 A    
C13   C51   1.441887 S    
C47   C50   1.427223 A    
O30   H17   1.013812 S    
C59   N7    1.157667 T    
C39   H7    1.077932 S    
C40   H8    1.077962 S    
C61   O26   1.398912 S    
C49   C55   1.476766 S    
C7    O12   1.349038 S    
C15   C17   1.407684 A    
C63   O29   1.220999 D    
C6    C22   1.397441 A    
C22   C24   1.396296 A    
C16   C18   1.405866 A    
C9    C58   1.486688 S    
C14   C16   1.395846 A    
C19   C21   1.406099 A    
C3    C27   1.464575 S    
C20   C22   1.406225 A    
C11   H6    1.084089 S    
C9    C11   1.397196 A    
O4    Zn2   1.983596 S    
C44   C66   1.489679 S    
O2    Zn2   2.007784 S    
O7    C4    1.313889 A    
C64   O32   1.395903 S    
O8    C3    1.293699 A    
C52   N6    1.155749 T    
O5    Zn1   1.957282 S    
C58   O24   1.398547 S    
O24   H14   1.013806 S    
C65   O34   1.398416 S    
C41   C63   1.484290 S    
C62   O28   1.398911 S    
C55   O17   1.222792 D    
C61   O25   1.222679 D    
O36   H20   1.012773 S    
Zn2   N4    2.032350 S    
C47   C53   1.475389 S    
