data_mof_unit_45071.cif
_audit_creation_date              2012-12-11T17:02:17-0500
_audit_creation_method            fapswitch 2.2
_symmetry_space_group_name_H-M    P1
_symmetry_Int_Tables_number       1
_space_group_crystal_system       triclinic
_cell_length_a                    21.629387
_cell_length_b                    7.061761
_cell_length_c                    14.848701
_cell_angle_alpha                 89.909749
_cell_angle_beta                  106.467825
_cell_angle_gamma                 89.987915
_cell_volume                      2174.97454612

loop_
_atom_site_label
_atom_site_type_symbol
_atom_type_description
_atom_site_fract_x
_atom_site_fract_y
_atom_site_fract_z
_atom_type_partial_charge
O1    O     O_R   0.585850 0.505770 0.002130 -0.556524
O2    O     O_R   0.414150 0.005770 0.997870 -0.558179
O3    O     O_R   0.467530 0.173560 0.861970 -0.544546
O4    O     O_R   0.532470 0.673560 0.138030 -0.535229
C1    C     C_R   0.455579 0.344837 0.825142 0.715405
C2    C     C_R   0.544465 0.844430 0.174840 0.751552
O5    O     O_R   0.588690 0.175900 0.993250 -0.506464
O6    O     O_R   0.411310 0.675900 0.006750 -0.501991
O7    O     O_R   0.536170 0.007950 0.130090 -0.538742
O8    O     O_R   0.463830 0.507950 0.869910 -0.528589
C3    C     C_R   0.615143 0.344451 0.998173 0.779953
C4    C     C_R   0.384870 0.844485 0.001886 0.798427
O9    O     O_3   0.482630 0.339970 0.044740 -0.366756
O10   O     O_3   0.517370 0.839970 0.955260 -0.367956
V1    V     V_3+5 0.503220 0.064200 0.991700 1.585011
V2    V     V_3+5 0.496780 0.564200 0.008300 1.610391
C5    C     C_R   0.294356 0.992495 0.052617 -0.007797
C6    C     C_R   0.705715 0.493290 0.947795 -0.003583
C7    C     C_R   0.316653 0.851303 0.003383 -0.334412
C8    C     C_R   0.683374 0.351281 0.996708 -0.340252
C9    C     C_R   0.271952 0.711923 0.957467 0.542055
C10   C     C_R   0.728074 0.211470 0.042545 0.544101
C11   C     C_R   0.206445 0.724036 0.955619 0.523120
C12   C     C_R   0.793588 0.223571 0.044438 0.522637
C13   C     C_R   0.183743 0.876646 0.998992 -0.284923
C14   C     C_R   0.816308 0.376670 0.001254 -0.287019
C15   C     C_R   0.229615 0.005310 0.050104 -0.037009
C16   C     C_R   0.770497 0.506178 0.950489 -0.033651
C17   C     C_3   0.230346 0.216393 0.046372 -0.366910
C18   C     C_3   0.769923 0.717076 0.955269 -0.369897
C19   C     C_3   0.301122 0.202293 0.049846 0.531099
C20   C     C_3   0.699090 0.703034 0.951396 0.537565
H1    H     H_    0.222079 0.281735 0.109940 0.237351
H2    H     H_    0.778524 0.783974 0.892207 0.231067
H3    H     H_    0.199518 0.272122 0.978511 0.203331
H4    H     H_    0.800663 0.770850 0.023516 0.203464
H5    H     H_    0.312719 0.254027 0.985889 0.115346
H6    H     H_    0.687365 0.753217 0.015447 0.112589
C21   C     C_R   0.927038 0.890307 0.722761 -0.133620
C22   C     C_R   0.073228 0.388160 0.277148 -0.134771
C23   C     C_R   0.571349 0.854542 0.276992 -0.135576
C24   C     C_R   0.429499 0.356912 0.722814 -0.163367
C25   C     C_R   0.937510 0.957526 0.568325 -0.083414
C26   C     C_R   0.062047 0.436497 0.432622 -0.083453
C27   C     C_R   0.965229 0.939056 0.664663 -0.231162
C28   C     C_R   0.034488 0.424753 0.335974 -0.231825
C29   C     C_R   0.860412 0.866817 0.684589 0.553266
C30   C     C_R   0.140105 0.370446 0.314937 0.552780
C31   C     C_R   0.830127 0.914447 0.589489 -0.066450
C32   C     C_R   0.169856 0.411600 0.410846 -0.067102
C33   C     C_R   0.870363 0.943433 0.529983 -0.077137
C34   C     C_R   0.129342 0.427605 0.470781 -0.078047
C35   C     C_R   0.761578 0.926524 0.550609 -0.048842
C36   C     C_R   0.238239 0.429054 0.449995 -0.046807
C37   C     C_R   0.734960 0.915762 0.451066 -0.032534
C38   C     C_R   0.265023 0.409884 0.549248 -0.031971
C39   C     C_R   0.777159 0.935063 0.394145 -0.196604
C40   C     C_R   0.222660 0.415772 0.606421 -0.197963
C41   C     C_R   0.843176 0.956376 0.433025 0.633388
C42   C     C_R   0.156422 0.432420 0.567938 0.633926
C43   C     C_R   0.718610 0.962040 0.605897 0.169084
C44   C     C_R   0.280683 0.478172 0.395570 0.169208
C45   C     C_R   0.652450 0.935683 0.567356 0.714389
C46   C     C_R   0.347199 0.459940 0.434021 0.699699
C47   C     C_R   0.625951 0.898593 0.471372 -0.231182
C48   C     C_R   0.374152 0.415544 0.529167 -0.256755
C49   C     C_R   0.666868 0.894770 0.411597 -0.035630
C50   C     C_R   0.333350 0.395187 0.588450 -0.035263
C51   C     C_R   0.558544 0.876672 0.433386 0.747286
C52   C     C_R   0.441771 0.403079 0.567152 0.781577
C53   C     C_R   0.531008 0.856862 0.336032 0.093614
C54   C     C_R   0.469747 0.376512 0.663553 0.092554
C55   C     C_R   0.638060 0.869577 0.314278 -0.199939
C56   C     C_R   0.362536 0.361675 0.685144 -0.179207
H7    H     H_    0.665992 0.859842 0.264825 0.150456
H8    H     H_    0.334631 0.339167 0.733898 0.146602
H9    H     H_    0.968619 0.986469 0.524174 0.195900
H10   H     H_    0.030645 0.455450 0.477258 0.195924
H11   H     H_    0.016664 0.959966 0.693859 0.170425
H12   H     H_    0.982795 0.440451 0.307131 0.170796
H13   H     H_    0.760476 0.943327 0.318726 0.186268
H14   H     H_    0.239315 0.417349 0.681950 0.184607
O11   O     O_R   0.036080 0.231270 0.130120 -0.524188
O12   O     O_R   0.963920 0.731270 0.869880 -0.522243
O13   O     O_R   0.911300 0.558970 0.006750 -0.543073
O14   O     O_R   0.088700 0.058970 0.993250 -0.543109
C57   C     C_R   0.885012 0.389819 0.002646 0.797187
C58   C     C_R   0.115017 0.889820 0.997480 0.795582
O15   O     O_R   0.032450 0.561140 0.138040 -0.555482
O16   O     O_R   0.967550 0.061140 0.861960 -0.555651
O17   O     O_R   0.085870 0.728910 0.002130 -0.518757
O18   O     O_R   0.914130 0.228910 0.997870 -0.519188
C59   C     C_R   0.045047 0.392604 0.175230 0.762538
C60   C     C_R   0.955003 0.892977 0.824744 0.760895
O19   O     O_3   0.017320 0.394650 0.955270 -0.368547
O20   O     O_3   0.982680 0.894650 0.044730 -0.369523
V3    V     V_3+5 0.996780 0.670490 0.008300 1.584919
V4    V     V_3+5 0.003220 0.170490 0.991700 1.584412
F1    F     F_    0.290313 0.572939 0.907473 -0.685360
F2    F     F_    0.709708 0.072083 0.092474 -0.686839
F3    F     F_    0.613675 0.960485 0.624169 -0.587717
F4    F     F_    0.385678 0.499922 0.378252 -0.580594
F5    F     F_    0.826585 0.789269 0.739593 -0.720563
F6    F     F_    0.174757 0.302931 0.258801 -0.723518
N1    N     N_3   0.737897 0.061740 0.693897 -0.575372
H15   H     H_    0.737076 0.969698 0.748645 0.319364
H16   H     H_    0.782791 0.126940 0.705632 0.239496
N2    N     N_3   0.259913 0.583363 0.309114 -0.576277
H17   H     H_    0.261614 0.496928 0.252844 0.318630
H18   H     H_    0.214359 0.643731 0.298729 0.238786
F7    F     F_    0.519267 0.878456 0.490465 -0.591397
F8    F     F_    0.481542 0.421732 0.511328 -0.570507
F9    F     F_    0.164390 0.594634 0.904993 -0.646306
F10   F     F_    0.835642 0.093687 0.094975 -0.646664
F11   F     F_    0.341499 0.270924 0.133109 -0.625579
F12   F     F_    0.658907 0.773638 0.868309 -0.616947
F13   F     F_    0.880864 0.982803 0.374765 -0.659504
F14   F     F_    0.118497 0.446115 0.626619 -0.659733
N3    N     N_3   0.462330 0.840628 0.296004 -0.562434
H19   H     H_    0.446312 0.963612 0.257047 0.246807
H20   H     H_    0.438613 0.835615 0.348203 0.335306
N4    N     N_3   0.539006 0.374683 0.698693 -0.520641
H21   H     H_    0.554834 0.366036 0.771810 0.217749
H22   H     H_    0.555374 0.252341 0.673242 0.316883

loop_
_geom_bond_atom_site_label_1
_geom_bond_atom_site_label_2
_ccdc_geom_bond_type
C48   C50   A    
C1    C24   S    
C45   C47   A    
C12   F10   S    
C15   C17   S    
C35   C37   A    
O1    C3    A    
C22   C59   S    
C45   F3    S    
O2    C4    A    
C2    O7    A    
O19   V4    S    
O18   V4    S    
C29   C31   A    
C22   C28   A    
N1    H16   S    
C32   C36   A    
C56   H8    S    
O12   V3    S    
C7    C9    A    
C12   C14   A    
C40   H14   S    
C9    F1    S    
O14   C58   A    
C39   C41   A    
C44   N2    S    
C40   C42   A    
O11   C59   A    
C17   H1    S    
N2    H17   S    
C43   C45   A    
C51   C53   A    
C44   C46   A    
C34   C42   A    
C35   C43   A    
C38   C40   A    
C14   C57   S    
C47   C49   A    
C2    C23   S    
O20   V4    S    
C32   C34   A    
C42   F14   S    
C49   C55   A    
C20   H6    S    
C43   N1    S    
C6    C8    A    
C23   C53   A    
C26   C34   A    
O5    V1    S    
C41   F13   S    
C57   O18   A    
C55   H7    S    
C19   F11   S    
C26   C28   A    
O16   C60   A    
N3    H20   S    
C36   C38   A    
C3    C8    S    
C24   C56   A    
C29   F5    S    
C18   H2    S    
O13   C57   A    
C5    C15   A    
C26   H10   S    
C6    C16   A    
O4    C2    A    
C36   C44   A    
C31   C33   A    
C38   C50   A    
O11   V4    S    
C13   C58   S    
C20   F12   S    
C19   H5    S    
O15   V3    S    
C46   C48   A    
O4    V2    S    
C46   F4    S    
C18   H4    S    
C21   C60   S    
C11   F9    S    
O5    C3    A    
C58   O17   A    
O6    C4    A    
O20   V3    S    
C24   C54   A    
C27   H11   S    
O1    V2    S    
O12   C60   A    
O17   V3    S    
O2    V1    S    
C25   C27   A    
C52   F8    S    
C8    C10   A    
C9    C11   A    
C13   C15   A    
C5    C19   S    
C10   C12   A    
C6    C20   S    
N4    H22   S    
O3    V1    S    
C21   C29   A    
C10   F2    S    
C22   C30   A    
C54   N4    S    
O3    C1    A    
C37   C49   A    
N3    H19   S    
O19   V3    S    
C16   C18   S    
C53   N3    S    
C25   H9    S    
N1    H15   S    
C17   H3    S    
C14   C16   A    
C21   C27   A    
C37   C39   A    
O7    V1    S    
C1    O8    A    
C17   C19   S    
O8    V2    S    
C18   C20   S    
C51   F7    S    
C25   C33   A    
C48   C52   A    
C47   C51   A    
C4    C7    S    
C30   C32   A    
C5    C7    A    
N2    H18   S    
C39   H13   S    
C11   C13   A    
O15   C59   A    
O14   V4    S    
C31   C35   A    
O13   V3    S    
C23   C55   A    
C33   C41   A    
O6    V2    S    
O9    V2    S    
O10   V1    S    
C52   C54   A    
C28   H12   S    
N4    H21   S    
C50   C56   A    
O16   V4    S    
C30   F6    S    
