data_mof_unit_52277.cif
_audit_creation_date              2013-03-05T15:50:44-0500
_audit_creation_method            fapswitch 2.2
_symmetry_space_group_name_H-M    P1
_symmetry_Int_Tables_number       1
_space_group_crystal_system       triclinic
_cell_length_a                    22.873505
_cell_length_b                    7.226911
_cell_length_c                    20.749708
_cell_angle_alpha                 90.000615
_cell_angle_beta                  93.331369
_cell_angle_gamma                 89.998965
_cell_volume                      3424.22979121

loop_
_atom_site_label
_atom_site_type_symbol
_atom_site_description
_atom_site_fract_x
_atom_site_fract_y
_atom_site_fract_z
_atom_type_partial_charge
O1    O     O_R   0.438030 0.494310 0.439340 -0.595394
O2    O     O_R   0.561970 0.994310 0.560660 -0.595398
O3    O     O_R   0.556900 0.822900 0.435960 -0.583278
O4    O     O_R   0.443100 0.322900 0.564040 -0.583270
C1    C     C_R   0.575708 0.655452 0.420963 0.958508
C2    C     C_R   0.424291 0.155455 0.579036 0.958536
O5    O     O_R   0.438170 0.823950 0.431660 -0.592073
O6    O     O_R   0.561830 0.323950 0.568340 -0.592048
O7    O     O_R   0.442390 0.995390 0.556340 -0.582976
O8    O     O_R   0.557610 0.495390 0.443660 -0.582972
C3    C     C_R   0.418535 0.655286 0.415471 0.932237
C4    C     C_R   0.581464 0.155285 0.584530 0.932234
O9    O     O_3   0.501520 0.661170 0.540910 -0.282419
O10   O     O_3   0.498480 0.161170 0.459090 -0.282435
V1    V     V_3+5 0.499720 0.935580 0.492410 1.170586
V2    V     V_3+5 0.500280 0.435580 0.507590 1.170613
C5    C     C_R   0.828796 0.936546 0.858236 -0.190877
C6    C     C_R   0.171206 0.436552 0.141763 -0.190113
C7    C     C_R   0.868839 0.083790 0.866168 -0.163425
C8    C     C_R   0.131156 0.583783 0.133840 -0.163919
C9    C     C_R   0.860572 0.242996 0.827643 -0.221171
C10   C     C_R   0.139403 0.742948 0.172388 -0.221075
C11   C     C_R   0.813426 0.255235 0.781417 0.210708
C12   C     C_R   0.186547 0.755182 0.218618 0.210654
C13   C     C_R   0.773062 0.107794 0.774206 -0.036168
C14   C     C_R   0.226927 0.607776 0.225809 -0.036665
C15   C     C_R   0.780445 0.947874 0.813103 -0.041508
C16   C     C_R   0.219543 0.447844 0.186917 -0.040951
C17   C     C_R   0.805889 0.412929 0.742311 -0.137758
C18   C     C_R   0.194060 0.912822 0.257755 -0.137169
C19   C     C_R   0.758414 0.425947 0.696906 -0.221943
C20   C     C_R   0.241544 0.925866 0.303147 -0.221912
C21   C     C_R   0.717773 0.281023 0.689451 0.175169
C22   C     C_R   0.282210 0.780999 0.310571 0.174941
C23   C     C_R   0.725259 0.120720 0.728012 0.035397
C24   C     C_R   0.274732 0.620715 0.271999 0.035301
C25   C     C_R   0.685199 0.973091 0.720121 0.080942
C26   C     C_R   0.314790 0.473085 0.279893 0.081585
C27   C     C_R   0.692420 0.815645 0.759318 -0.382458
C28   C     C_R   0.307544 0.315573 0.240736 -0.383365
C29   C     C_R   0.738866 0.803680 0.806583 0.600332
C30   C     C_R   0.261089 0.303571 0.193462 0.600228
C31   C     C_R   0.670116 0.293073 0.643724 -0.252951
C32   C     C_R   0.329872 0.793064 0.356290 -0.253062
C33   C     C_R   0.630490 0.144997 0.634714 -0.145606
C34   C     C_R   0.369506 0.644999 0.365292 -0.145637
C35   C     C_R   0.638553 0.985231 0.673144 -0.180017
C36   C     C_R   0.361438 0.485226 0.326868 -0.180205
H1    H     H_    0.834744 0.814716 0.888343 0.175584
H2    H     H_    0.165276 0.314764 0.111634 0.175752
H3    H     H_    0.891238 0.357082 0.833176 0.136889
H4    H     H_    0.108725 0.857008 0.166869 0.136918
H5    H     H_    0.836482 0.527256 0.747240 0.122101
H6    H     H_    0.163446 0.027098 0.252852 0.122116
H7    H     H_    0.753474 0.549715 0.667613 0.129792
H8    H     H_    0.246470 0.049602 0.332457 0.129813
H9    H     H_    0.664654 0.416207 0.614133 0.135801
H10   H     H_    0.335331 0.916189 0.385887 0.135831
H11   H     H_    0.608085 0.870799 0.667007 0.147816
H12   H     H_    0.391904 0.370783 0.333008 0.147818
H13   H     H_    0.661966 0.701122 0.753462 0.174904
H14   H     H_    0.337947 0.200948 0.246681 0.174443
C37   C     C_3   0.246442 0.283449 0.804659 0.512597
C38   C     C_3   0.753500 0.783330 0.195277 0.512752
C39   C     C_3   0.247304 0.925498 0.797005 -0.511718
C40   C     C_3   0.752740 0.425395 0.203048 -0.511796
C41   C     C_3   0.296835 0.933434 0.748204 0.245123
C42   C     C_3   0.703202 0.433348 0.251840 0.245136
H15   H     H_    0.341865 0.280446 0.790444 0.236546
H16   H     H_    0.658082 0.780207 0.209520 0.236535
H17   H     H_    0.219193 0.802905 0.785156 0.167421
H18   H     H_    0.780886 0.302911 0.214947 0.167322
H19   H     H_    0.265346 0.898460 0.846695 0.192460
H20   H     H_    0.734714 0.398152 0.153365 0.192507
H21   H     H_    0.287577 0.823319 0.711408 0.054437
H22   H     H_    0.712478 0.323325 0.288666 0.054407
C43   C     C_1   0.379273 0.146060 0.625448 -0.247528
C44   C     C_1   0.620725 0.646053 0.374549 -0.247549
C45   C     C_3   0.208641 0.103287 0.793160 0.170499
C46   C     C_3   0.791351 0.603294 0.206831 0.170534
C47   C     C_3   0.299878 0.285451 0.761212 -0.463185
C48   C     C_3   0.700074 0.785333 0.238739 -0.463105
C49   C     C_3   0.294918 0.123573 0.711538 0.162005
C50   C     C_3   0.705076 0.623569 0.288456 0.161949
C51   C     C_3   0.233493 0.137497 0.675015 -0.493558
C52   C     C_3   0.766500 0.637707 0.324969 -0.493539
C53   C     C_3   0.183198 0.113729 0.722072 -0.483768
C54   C     C_3   0.816798 0.613987 0.277913 -0.483776
C55   C     C_1   0.341451 0.136549 0.664148 0.060262
C56   C     C_1   0.658545 0.636543 0.335847 0.060270
C57   C     C_1   0.160470 0.092119 0.838404 0.015529
C58   C     C_1   0.839523 0.592131 0.161587 0.015510
C59   C     C_1   0.121588 0.083488 0.875806 -0.272259
C60   C     C_1   0.878407 0.583497 0.124188 -0.272329
H23   H     H_    0.152017 0.231476 0.715813 0.165775
H24   H     H_    0.847939 0.731849 0.284131 0.165762
H25   H     H_    0.157937 0.985866 0.709396 0.188753
H26   H     H_    0.842104 0.486236 0.290625 0.188759
H27   H     H_    0.228939 0.274132 0.650477 0.181661
H28   H     H_    0.771019 0.774393 0.349478 0.181659
H29   H     H_    0.217863 0.398279 0.785625 0.061961
H30   H     H_    0.782052 0.898288 0.214258 0.061955
H31   H     H_    0.300509 0.419517 0.734780 0.162803
H32   H     H_    0.699426 0.919450 0.265139 0.162950
H33   H     H_    0.229051 0.029606 0.636768 0.174837
H34   H     H_    0.770974 0.529889 0.363239 0.174840
O11   O     O_R   0.942420 0.735670 0.056390 -0.580267
O12   O     O_R   0.057580 0.235670 0.943610 -0.580235
O13   O     O_R   0.061840 0.404850 0.068350 -0.597016
O14   O     O_R   0.938160 0.904850 0.931650 -0.597024
C61   C     C_R   0.081625 0.573583 0.084310 0.928028
C62   C     C_R   0.918374 0.073584 0.915690 0.927898
O15   O     O_R   0.943100 0.406010 0.064050 -0.584323
O16   O     O_R   0.056900 0.906010 0.935950 -0.584316
O17   O     O_R   0.938020 0.234710 0.939330 -0.587368
O18   O     O_R   0.061980 0.734710 0.060670 -0.587331
C63   C     C_R   0.924253 0.574469 0.078798 0.954721
C64   C     C_R   0.075745 0.074467 0.921200 0.954768
O19   O     O_3   0.998500 0.567790 0.959120 -0.286270
O20   O     O_3   0.001500 0.067790 0.040880 -0.286262
V3    V     V_3+5 0.000280 0.293330 0.007580 1.162532
V4    V     V_3+5 0.999720 0.793330 0.992420 1.162517
O21   O     O_3   0.260056 0.338274 0.869783 -0.606514
C65   C     C_3   0.291540 0.205687 0.907592 -0.148665
H35   H     H_    0.326147 0.134662 0.881710 0.159289
H36   H     H_    0.260922 0.105172 0.927948 0.124902
H37   H     H_    0.313952 0.278034 0.949193 0.162530
O22   O     O_3   0.739853 0.837924 0.130135 -0.606469
C66   C     C_3   0.708390 0.705154 0.092389 -0.149223
H38   H     H_    0.673824 0.634074 0.118321 0.159498
H39   H     H_    0.739027 0.604691 0.072037 0.124856
H40   H     H_    0.685922 0.777340 0.050784 0.162500
N1    N     N_R   0.353841 0.888030 0.781061 0.233859
O23   O     O_R   0.398879 0.997580 0.779415 -0.409237
O24   O     O_R   0.360872 0.726800 0.808343 -0.389655
N2    N     N_R   0.646208 0.387777 0.218988 0.233835
O25   O     O_R   0.601142 0.497226 0.220617 -0.409324
O26   O     O_R   0.639215 0.226497 0.191733 -0.389794
O27   O     O_3   0.745381 0.645574 0.843827 -0.620456
C67   C     C_3   0.707706 0.658170 0.895036 -0.237304
H41   H     H_    0.660955 0.657791 0.876924 0.157299
H42   H     H_    0.717449 0.783177 0.925191 0.132887
H43   H     H_    0.714818 0.535291 0.926565 0.173973
O28   O     O_3   0.254387 0.145201 0.156372 -0.620998
C68   C     C_3   0.292873 0.155016 0.105853 -0.236074
H44   H     H_    0.339399 0.152067 0.124729 0.157058
H45   H     H_    0.284261 0.280209 0.075453 0.132512
H46   H     H_    0.285486 0.032202 0.074351 0.173926

loop_
_geom_bond_atom_site_label_1
_geom_bond_atom_site_label_2
_geom_bond_distance
_ccdc_geom_bond_type
C40   C42   1.563827 S    
C54   H24   1.113057 S    
C41   C49   1.570062 S    
O17   V3    1.994668 S    
O1    C3    1.331118 A    
C67   H43   1.109380 S    
O12   V3    1.963537 S    
C37   H29   1.114430 S    
O2    C4    1.331116 A    
O22   C66   1.409443 S    
C41   N1    1.472875 S    
C2    O7    1.324354 A    
C45   C53   1.555768 S    
C68   H44   1.112641 S    
C42   C50   1.570063 S    
C28   H14   1.084001 S    
O21   C65   1.409445 S    
C27   C29   1.406025 A    
C37   C45   1.573472 S    
C7    C62   1.486549 S    
C44   C56   1.216027 T    
O5    C3    1.335210 A    
C18   H6    1.083726 S    
C43   C55   1.216027 T    
O18   V4    1.994660 S    
C37   C47   1.560426 S    
C39   C45   1.559197 S    
C11   C17   1.403815 A    
C65   H36   1.109492 S    
C7    C9    1.407477 A    
C67   H42   1.114056 S    
O13   C61   1.335682 A    
C60   C63   1.451117 S    
C52   C54   1.561049 S    
C40   H20   1.105499 S    
C39   H19   1.105494 S    
C66   H39   1.109482 S    
C68   H45   1.113937 S    
C40   H18   1.113772 S    
C32   H10   1.084241 S    
C38   O22   1.425173 S    
C53   H23   1.113049 S    
C19   C21   1.402986 A    
C61   O18   1.331491 A    
C25   C35   1.405486 A    
C52   H28   1.113096 S    
C45   C57   1.490682 S    
C66   H40   1.109044 S    
C33   C35   1.409230 A    
O6    V2    2.003898 S    
C46   C54   1.555764 S    
C38   C46   1.573466 S    
C52   H34   1.112991 S    
C50   C56   1.493394 S    
C27   H13   1.084044 S    
C47   C49   1.558934 S    
C32   C34   1.407849 A    
C36   H12   1.084225 S    
O14   C62   1.335683 A    
C51   C53   1.561059 S    
C49   C55   1.493394 S    
C34   C36   1.409212 A    
C5    C15   1.409425 A    
O12   C64   1.329861 A    
C42   N2    1.472887 S    
C6    C16   1.409444 A    
C67   H41   1.112692 S    
N2    O26   1.301314 A    
C5    H1    1.083561 S    
C4    C33   1.487154 S    
C2    C43   1.451776 S    
O5    V1    2.003910 S    
C51   H33   1.112988 S    
C39   C41   1.563825 S    
C39   H17   1.113763 S    
C20   C22   1.402970 A    
O4    V2    1.980870 S    
C38   H30   1.114443 S    
C51   H27   1.113098 S    
C18   C20   1.398845 A    
C57   C59   1.215489 T    
C8    C61   1.486568 S    
C15   C29   1.412031 A    
C28   C30   1.406297 A    
O6    C4    1.335211 A    
C58   C60   1.215487 T    
C22   C32   1.405666 A    
O1    V2    1.994677 S    
O2    V1    1.994682 S    
C31   C33   1.407851 A    
C38   C48   1.560430 S    
O16   C64   1.333028 A    
C13   C23   1.414639 A    
C65   H37   1.109004 S    
O15   C63   1.333026 A    
C14   C24   1.414633 A    
C49   C51   1.560374 S    
C8    C10   1.407463 A    
C48   C50   1.558932 S    
C9    C11   1.403771 A    
C30   O28   1.382760 S    
N1    O23   1.301299 A    
C10   C12   1.403783 A    
O4    C2    1.327355 A    
C41   H21   1.114576 S    
C59   C64   1.451121 S    
C5    C7    1.407429 A    
C9    H3    1.084261 S    
C68   H46   1.109387 S    
O3    V1    1.980841 S    
O20   V3    1.769959 S    
C6    H2    1.083538 S    
C10   H4    1.084260 S    
C66   H38   1.108136 S    
C47   H31   1.113853 S    
O19   V4    1.769946 S    
C23   C25   1.409732 A    
C26   C36   1.405487 A    
C12   C14   1.412149 A    
O28   C68   1.409279 S    
O3    C1    1.327349 A    
C37   O21   1.425170 S    
O27   C67   1.409372 S    
C42   H22   1.114579 S    
C40   C46   1.559195 S    
C14   C16   1.414163 A    
C24   C26   1.409684 A    
O7    V1    1.966788 S    
C1    O8    1.324360 A    
C46   C58   1.490675 S    
O8    V2    1.966803 S    
O14   V4    2.003976 S    
C26   C28   1.402765 A    
O13   V3    2.003985 S    
C17   H5    1.083746 S    
C16   C30   1.411955 A    
C21   C23   1.412703 A    
C22   C24   1.412693 A    
C20   H8    1.083632 S    
C6    C8    1.407423 A    
C11   C13   1.412155 A    
H16   C48   1.106291 S    
C12   C18   1.403807 A    
C29   O27   1.382627 S    
H15   C47   1.106288 S    
C31   H9    1.084244 S    
C35   H11   1.084219 S    
O16   V4    1.981132 S    
C25   C27   1.402802 A    
O15   V3    1.981105 S    
C17   C19   1.398850 A    
O9    V2    1.770439 S    
N1    O24   1.301325 A    
C48   H32   1.113853 S    
O10   V1    1.770452 S    
C50   C52   1.560367 S    
C3    C34   1.487146 S    
O11   V4    1.963555 S    
C19   H7    1.083652 S    
C1    C44   1.451776 S    
C21   C31   1.405660 A    
O11   C63   1.329862 A    
C62   O17   1.331487 A    
C54   H26   1.113224 S    
N2    O25   1.301294 A    
C65   H35   1.108092 S    
C53   H25   1.113223 S    
C13   C15   1.414147 A    
