data_mof_unit_23830.cif
_audit_creation_date              2012-10-26T20:43:34-0400
_audit_creation_method            fapswitch 2.2
_symmetry_space_group_name_H-M    P1
_symmetry_Int_Tables_number       1
_space_group_crystal_system       triclinic
_cell_length_a                    10.818751
_cell_length_b                    9.511058
_cell_length_c                    23.571914
_cell_angle_alpha                 90.16114
_cell_angle_beta                  90.429404
_cell_angle_gamma                 89.768649
_cell_volume                      2425.40006717

loop_
_atom_site_label
_atom_site_type_symbol
_atom_type_description
_atom_site_fract_x
_atom_site_fract_y
_atom_site_fract_z
_atom_type_partial_charge
C1    C     C_R   0.262451 0.500296 0.499575 0.518026
C2    C     C_R   0.573331 0.410303 0.705644 -0.009338
C3    C     C_R   0.448867 0.396892 0.235386 -0.045362
C4    C     C_R   0.559562 0.415723 0.764697 -0.043795
C5    C     C_R   0.489243 0.519281 0.208598 0.222347
C6    C     C_R   0.482934 0.515823 0.790253 0.225090
C7    C     C_R   0.064763 0.413005 0.537008 0.190327
C8    C     C_R   0.935374 0.585316 0.458923 0.233608
C9    C     C_R   0.935720 0.406570 0.533847 0.240594
C10   C     C_R   0.063787 0.585002 0.459174 0.243908
C11   C     C_R   0.871589 0.497445 0.496968 -0.042930
C12   C     C_R   0.737675 0.499514 0.498966 0.577942
C13   C     C_R   0.128710 0.500547 0.498859 -0.076860
C14   C     C_R   0.415032 0.074525 0.468747 0.023400
C15   C     C_R   0.584473 0.925394 0.531593 0.030769
C16   C     C_R   0.584632 0.074247 0.531497 0.026935
C17   C     C_R   0.415332 0.925704 0.468531 0.025555
C18   C     C_R   0.496599 0.499676 0.390804 0.526169
C19   C     C_R   0.503252 0.500166 0.609006 0.542091
C20   C     C_R   0.587225 0.561123 0.879065 0.390379
C21   C     C_R   0.376927 0.510665 0.119572 0.391761
C22   C     C_R   0.375450 0.494129 0.879314 0.403114
C23   C     C_R   0.530033 0.632807 0.241349 -0.055148
C24   C     C_R   0.594961 0.545034 0.119208 0.404378
C25   C     C_R   0.375383 0.488159 0.939094 0.022742
C26   C     C_R   0.597297 0.539798 0.059423 0.023516
C27   C     C_R   0.485342 0.520394 0.969199 -0.094109
C28   C     C_R   0.484938 0.520517 0.029355 -0.094743
C29   C     C_R   0.595416 0.552045 0.939100 -0.002933
C30   C     C_R   0.372310 0.502108 0.059421 -0.003984
C31   C     C_R   0.267815 0.451561 0.969231 0.237687
C32   C     C_R   0.709362 0.553245 0.029300 0.240393
C33   C     C_R   0.261568 0.471159 0.028282 0.037902
C34   C     C_R   0.414459 0.608718 0.756564 -0.057488
C35   C     C_R   0.708967 0.568414 0.969900 0.039106
C36   C     C_3   0.135396 0.450234 0.055468 -0.195828
C37   C     C_3   0.121398 0.301575 0.078975 -0.389069
C38   C     C_3   0.833707 0.590792 0.941396 -0.212144
C39   C     C_3   0.881328 0.455176 0.914035 -0.377559
C40   C     C_3   0.387180 0.256325 0.319592 -0.271476
C41   C     C_3   0.260523 0.289934 0.344660 -0.406019
C42   C     C_3   0.670886 0.311100 0.682442 -0.283540
C43   C     C_3   0.800612 0.355609 0.701313 -0.394566
C44   C     C_R   0.532567 0.623180 0.300243 -0.154105
C45   C     C_R   0.422404 0.601039 0.697682 -0.157779
C46   C     C_R   0.491765 0.501005 0.327967 0.017158
C47   C     C_R   0.500557 0.502141 0.671444 0.016240
C48   C     C_R   0.446111 0.386631 0.294727 -0.003941
Cu1   Cu    Cu3+1 0.500000 0.640660 0.500000 0.957308
Cu2   Cu    Cu3+1 0.500000 0.359340 0.500000 0.965135
H1    H     H_    0.560257 0.728673 0.221130 0.149693
H2    H     H_    0.347602 0.869742 0.443253 0.140078
H3    H     H_    0.199793 0.311898 0.919233 0.351130
H4    H     H_    0.823291 0.458306 0.078711 0.344553
H5    H     H_    0.123706 0.223906 0.043716 0.159658
H6    H     H_    0.196499 0.275492 0.109501 0.186658
H7    H     H_    0.031284 0.292548 0.100874 0.150947
H8    H     H_    0.114805 0.532086 0.087535 0.211361
H9    H     H_    0.059941 0.466839 0.024022 0.196012
H10   H     H_    0.811436 0.406888 0.885477 0.169340
H11   H     H_    0.964980 0.478417 0.888824 0.211291
H12   H     H_    0.355628 0.687313 0.776001 0.145532
H13   H     H_    0.905676 0.377641 0.947489 0.169720
H14   H     H_    0.830310 0.679349 0.911060 0.191635
H15   H     H_    0.905516 0.626423 0.972005 0.188177
H16   H     H_    0.268453 0.364131 0.380826 0.161507
H17   H     H_    0.199343 0.337151 0.311726 0.181299
H18   H     H_    0.217036 0.191660 0.359921 0.142266
H19   H     H_    0.372796 0.175158 0.286162 0.134581
H20   H     H_    0.448852 0.205363 0.351154 0.172579
H21   H     H_    0.822384 0.461138 0.684035 0.188656
H22   H     H_    0.809002 0.358615 0.748260 0.158038
H23   H     H_    0.566865 0.712367 0.324226 0.143125
H24   H     H_    0.869605 0.278849 0.685305 0.167927
H25   H     H_    0.652405 0.202934 0.697859 0.138902
H26   H     H_    0.670985 0.306258 0.635716 0.207514
H27   H     H_    0.201946 0.384134 0.589981 0.341527
H28   H     H_    0.793685 0.628200 0.410100 0.324329
H29   H     H_    0.924839 0.247096 0.585817 0.367325
H30   H     H_    0.203889 0.624620 0.410064 0.316360
H31   H     H_    0.367001 0.672834 0.672400 0.133906
H32   H     H_    0.416314 0.310417 0.209305 0.124930
H33   H     H_    0.612174 0.344677 0.791537 0.118363
H34   H     H_    0.346571 0.130646 0.444016 0.117359
H35   H     H_    0.652001 0.869159 0.556979 0.123976
H36   H     H_    0.652449 0.130107 0.556704 0.135825
N1    N     N_R   0.480795 0.526277 0.851093 -0.395859
N2    N     N_R   0.486885 0.527435 0.147571 -0.397438
N3    N     N_R   0.500000 0.852070 0.500000 -0.228470
N4    N     N_R   0.500000 0.147930 0.500000 -0.227624
O1    O     O_R   0.319640 0.618740 0.500000 -0.494804
O2    O     O_2   0.273428 0.502994 0.150710 -0.517798
O3    O     O_2   0.270876 0.470944 0.849224 -0.480276
O4    O     O_2   0.699480 0.569081 0.149223 -0.460842
O5    O     O_3   0.167724 0.391632 0.942079 -0.712410
O6    O     O_3   0.821853 0.547625 0.057069 -0.690343
O7    O     O_3   0.124694 0.335790 0.578686 -0.693598
O8    O     O_3   0.876166 0.667757 0.418730 -0.617891
O9    O     O_3   0.869048 0.317756 0.568376 -0.712054
O10   O     O_3   0.121884 0.665539 0.418586 -0.629182
O11   O     O_R   0.680360 0.381260 0.500000 -0.456322
O12   O     O_R   0.680360 0.618740 0.500000 -0.504171
O13   O     O_R   0.319640 0.381260 0.500000 -0.491467
O14   O     O_R   0.499960 0.618810 0.417880 -0.515638
O15   O     O_R   0.500040 0.381190 0.582120 -0.504841
O16   O     O_R   0.500040 0.618810 0.582120 -0.500222
O17   O     O_R   0.499960 0.381190 0.417880 -0.510315
O18   O     O_2   0.683202 0.605884 0.848002 -0.525380

loop_
_geom_bond_atom_site_label_1
_geom_bond_atom_site_label_2
_ccdc_geom_bond_type
C25   C31   A    
C16   N4    A    
C43   H22   S    
C27   C29   A    
C14   H34   S    
C36   H9    S    
Cu1   O14   S    
C41   H17   S    
C26   C32   A    
C42   H25   S    
C40   H20   S    
H29   O9    S    
C36   C37   S    
C24   C26   A    
C36   H8    S    
C38   C39   S    
C19   C47   S    
H3    O5    S    
C15   C16   A    
C20   N1    A    
C3    C48   A    
C34   H12   S    
C33   C36   S    
C40   C48   S    
C8    O8    S    
C18   O17   A    
C14   N4    A    
C5    N2    S    
Cu2   N4    S    
C22   C25   A    
H28   O8    S    
Cu2   O15   S    
C31   C33   A    
H27   O7    S    
C1    O13   A    
H4    O6    S    
C15   H35   S    
C43   H24   S    
C21   N2    A    
Cu2   O13   S    
C9    O9    S    
H30   O10   S    
C16   H36   S    
C37   H6    S    
C14   C17   A    
Cu1   O1    S    
C18   C46   S    
C17   H2    S    
C44   C46   A    
C41   H18   S    
C38   H14   S    
C20   C29   A    
C45   C47   A    
C39   H11   S    
C46   C48   A    
C40   H19   S    
C32   C35   A    
C35   C38   S    
C17   N3    A    
C4    C6    A    
Cu1   O12   S    
C23   C44   A    
C6    C34   A    
C2    C4    A    
C12   O12   A    
C24   O4    S    
C15   N3    A    
C24   N2    A    
C23   H1    S    
C5    C23   A    
C38   H15   S    
C3    H32   S    
C34   C45   A    
C18   O14   A    
C22   N1    A    
C10   O10   S    
C9    C11   A    
C41   H16   S    
C19   O15   A    
C40   C41   S    
C32   O6    S    
Cu2   O17   S    
C22   O3    S    
C1    C13   S    
C42   C43   S    
C7    C9    A    
C43   H21   S    
C7    O7    S    
C30   C33   A    
C26   C28   A    
C45   H31   S    
Cu1   N3    S    
C3    C5    A    
C10   C13   A    
C11   C12   S    
Cu1   O16   S    
C2    C47   A    
C25   C27   A    
C39   H13   S    
C21   C30   A    
C29   C35   A    
C42   H26   S    
C28   C30   A    
C12   O11   A    
C4    H33   S    
C2    C42   S    
C8    C11   A    
C31   O5    S    
C39   H10   S    
C44   H23   S    
C6    N1    S    
C37   H5    S    
C19   O16   A    
C7    C13   A    
Cu2   O11   S    
C8    C10   A    
Cu1   Cu2   S    
C1    O1    A    
C27   C28   A    
C37   H7    S    
C20   O18   S    
C21   O2    S    
