data_mof_unit_13078.cif
_audit_creation_date              2013-03-05T16:41:05-0500
_audit_creation_method            fapswitch 2.2
_symmetry_space_group_name_H-M    P1
_symmetry_Int_Tables_number       1
_space_group_crystal_system       triclinic
_cell_length_a                    8.578884
_cell_length_b                    10.699675
_cell_length_c                    9.886075
_cell_angle_alpha                 89.282712
_cell_angle_beta                  98.427497
_cell_angle_gamma                 90.66979
_cell_volume                      897.541889425

loop_
_atom_site_label
_atom_site_type_symbol
_atom_site_description
_atom_site_fract_x
_atom_site_fract_y
_atom_site_fract_z
_atom_type_partial_charge
O1    O     O_R   0.500020 0.316790 0.614690 -0.606362
O2    O     O_R   0.500000 0.316760 0.385350 -0.630261
C1    C     C_R   0.505493 0.259768 0.501043 0.916737
O3    O     O_R   0.271760 0.500010 0.587850 -0.594938
O4    O     O_R   0.271740 0.499970 0.358500 -0.582161
C2    C     C_R   0.201313 0.501335 0.464214 0.997764
Zn1   Zn    Zn3+2 0.500010 0.500020 0.653130 1.011822
Zn2   Zn    Zn3+2 0.499990 0.499980 0.346870 0.997112
O5    O     O_R   0.500000 0.683240 0.614650 -0.617242
O6    O     O_R   0.499980 0.683210 0.385310 -0.613210
O7    O     O_R   0.728260 0.500030 0.641500 -0.604001
O8    O     O_R   0.728240 0.499990 0.412150 -0.633208
C3    C     C_R   0.507046 0.739937 0.500022 0.865718
C4    C     C_R   0.798624 0.503503 0.535505 0.975131
C5    C     C_2   0.036120 0.501324 0.444738 -0.349119
H1    H     H_    0.974716 0.487672 0.341558 0.209423
C6    C     C_2   0.963482 0.513297 0.553587 -0.308918
H2    H     H_    0.024795 0.530079 0.656036 0.220610
C7    C     C_R   0.560954 0.061873 0.625812 0.096921
C8    C     C_R   0.533415 0.128365 0.502860 -0.101518
C9    C     C_R   0.541335 0.066175 0.379613 -0.169995
H3    H     H_    0.534063 0.115749 0.282799 0.181548
C10   C     C_R   0.542695 0.936939 0.378870 -0.158719
H4    H     H_    0.535130 0.889824 0.281752 0.219280
C11   C     C_R   0.537000 0.871048 0.501503 -0.161356
C12   C     C_R   0.564029 0.934052 0.625158 0.112997
C13   C     C_3   0.482837 0.922621 0.748982 0.155752
C14   C     C_3   0.478926 0.064202 0.748847 -0.534457
H5    H     H_    0.365028 0.876282 0.729299 0.119490
H6    H     H_    0.357256 0.101070 0.725084 0.217810
H7    H     H_    0.555205 0.106462 0.837516 0.233372
C15   C     C_R   0.370898 0.458358 0.055993 0.121847
N1    N     N_R   0.498950 0.499140 0.142680 -0.142039
C16   C     C_R   0.622132 0.550245 0.086630 -0.048708
H8    H     H_    0.722068 0.589221 0.152662 0.165570
C17   C     C_R   0.622402 0.549757 0.942998 -0.011212
H9    H     H_    0.722855 0.587619 0.901314 0.194280
N2    N     N_R   0.498950 0.499180 0.857030 -0.144044
C18   C     C_R   0.370974 0.457546 0.913097 0.117404
C19   C     C_3   0.307678 0.326648 0.905814 0.148470
C20   C     C_3   0.302045 0.330494 0.058887 0.174831
H10   H     H_    0.396976 0.261433 0.880396 0.083858
H11   H     H_    0.382838 0.262913 0.118663 0.095196
Cl1   Cl    Cl    0.122445 0.310872 0.798178 -0.540850
Cl2   Cl    Cl    0.110281 0.333527 0.109725 -0.524307
N3    N     N_R   0.583764 0.872202 0.869045 0.238045
O9    O     O_R   0.727861 0.838437 0.862655 -0.386027
O10   O     O_R   0.529438 0.862938 0.984926 -0.408335

loop_
_geom_bond_atom_site_label_1
_geom_bond_atom_site_label_2
_geom_bond_distance
_ccdc_geom_bond_type
O4    Zn2   1.978252 S    
C10   H4    1.083167 S    
C14   H7    1.111731 S    
C5    C6    1.328378 D    
C13   H5    1.112744 S    
C7    C8    1.391963 A    
Zn2   O8    1.969860 S    
C15   N1    1.361558 A    
C19   H10   1.100105 S    
O2    C1    1.284386 A    
C11   C12   1.391588 A    
C1    C8    1.428438 S    
C9    H3    1.082527 S    
Zn1   O7    1.978252 S    
C7    C14   1.492429 S    
C20   H11   1.110613 S    
C4    C6    1.402159 S    
C3    C11   1.423099 S    
C12   C13   1.497603 S    
N2    C18   1.368133 A    
O3    Zn1   1.969861 S    
C13   N3    1.463970 S    
C14   H6    1.111637 S    
C19   C20   1.522207 S    
Zn1   N2    2.017030 S    
O8    C4    1.279831 A    
C6    H2    1.086696 S    
C16   C17   1.420367 A    
Zn2   N1    2.017482 S    
C10   C11   1.401570 A    
C9    C10   1.383087 A    
O4    C2    1.281854 A    
O7    C4    1.283637 A    
N3    O10   1.300782 A    
C15   C20   1.485432 S    
C17   N2    1.367882 A    
C18   C19   1.494965 S    
C19   Cl1   1.785668 S    
N1    C16   1.368701 A    
C8    C9    1.406261 A    
O3    C2    1.281658 A    
C16   H8    1.081434 S    
C15   C18   1.412913 A    
C13   C14   1.515614 S    
Zn1   O5    1.992282 S    
C7    C12   1.368323 A    
C20   Cl2   1.789996 S    
N3    O9    1.302529 A    
C17   H9    1.080898 S    
O5    C3    1.287581 A    
C2    C5    1.401950 S    
O1    Zn1   2.001663 S    
Zn2   O6    2.001662 S    
O2    Zn2   1.992281 S    
C5    H1    1.088004 S    
O1    C1    1.292303 A    
O6    C3    1.286223 A    
