data_mof_unit_65638.cif
_audit_creation_date              2012-12-10T20:11:19-0500
_audit_creation_method            fapswitch 2.2
_symmetry_space_group_name_H-M    P1
_symmetry_Int_Tables_number       1
_space_group_crystal_system       triclinic
_cell_length_a                    15.943997
_cell_length_b                    15.943988
_cell_length_c                    51.424539
_cell_angle_alpha                 90.000027
_cell_angle_beta                  90.000024
_cell_angle_gamma                 89.991546
_cell_volume                      13072.6780365

loop_
_atom_site_label
_atom_site_type_symbol
_atom_type_description
_atom_site_fract_x
_atom_site_fract_y
_atom_site_fract_z
_atom_type_partial_charge
C1    C     C_R   0.075966 0.500854 0.637000 -0.111879
C2    C     C_R   0.424034 0.999141 0.863000 -0.111879
C3    C     C_1   0.276578 0.223422 0.250000 -0.001879
C4    C     C_1   0.223423 0.723423 0.750000 -0.002578
C5    C     C_1   0.776577 0.276577 0.250000 -0.002578
C6    C     C_1   0.276578 0.223422 0.750000 -0.001879
C7    C     C_1   0.723422 0.776578 0.250000 -0.001879
C8    C     C_1   0.776578 0.723422 0.250000 -0.001879
C9    C     C_1   0.223422 0.276578 0.750000 -0.001879
C10   C     C_1   0.723423 0.223423 0.250000 -0.002578
C11   C     C_1   0.276577 0.776577 0.750000 -0.002578
C12   C     C_1   0.223422 0.276578 0.250000 -0.001879
C13   C     C_R   0.999163 0.424033 0.136999 -0.111878
C14   C     C_1   0.776578 0.723422 0.750000 -0.001879
C15   C     C_1   0.276577 0.776577 0.250000 -0.002578
C16   C     C_1   0.723423 0.223423 0.750000 -0.002578
C17   C     C_R   0.475893 0.070924 0.945136 0.470674
C18   C     C_R   0.524107 0.929076 0.054864 0.470675
C19   C     C_R   0.929065 0.524074 0.945136 0.470676
C20   C     C_R   0.070935 0.475926 0.054864 0.470675
C21   C     C_R   0.524107 0.929076 0.945136 0.470675
C22   C     C_R   0.475893 0.070924 0.054864 0.470675
C23   C     C_R   0.070935 0.475926 0.945136 0.470675
C24   C     C_R   0.999167 0.424033 0.863000 -0.111879
C25   C     C_R   0.929066 0.524074 0.054864 0.470675
C26   C     C_R   0.975896 0.570924 0.445136 0.470676
C27   C     C_R   0.024104 0.429076 0.554864 0.470676
C28   C     C_R   0.429057 0.024049 0.445136 0.470677
C29   C     C_R   0.570943 0.975950 0.554864 0.470677
C30   C     C_R   0.024104 0.429076 0.445136 0.470675
C31   C     C_R   0.975896 0.570924 0.554864 0.470676
C32   C     C_R   0.570943 0.975951 0.445136 0.470676
C33   C     C_R   0.429057 0.024049 0.554864 0.470677
C34   C     C_R   0.524744 0.927671 0.972500 0.033217
C35   C     C_R   0.424034 0.999143 0.136999 -0.111879
C36   C     C_R   0.475256 0.072329 0.027500 0.033217
C37   C     C_R   0.072340 0.475289 0.972500 0.033219
C38   C     C_R   0.927660 0.524711 0.027500 0.033219
C39   C     C_R   0.475256 0.072329 0.972500 0.033217
C40   C     C_R   0.524744 0.927671 0.027500 0.033217
C41   C     C_R   0.927660 0.524711 0.972500 0.033219
C42   C     C_R   0.072340 0.475289 0.027500 0.033219
C43   C     C_R   0.024741 0.427671 0.472500 0.033215
C44   C     C_R   0.975259 0.572329 0.527500 0.033215
C45   C     C_R   0.572348 0.975315 0.472500 0.033220
C46   C     C_R   0.575966 0.000859 0.863000 -0.111879
C47   C     C_R   0.427651 0.024685 0.527500 0.033221
C48   C     C_R   0.975259 0.572329 0.472500 0.033215
C49   C     C_R   0.024741 0.427671 0.527500 0.033215
C50   C     C_R   0.427651 0.024685 0.472500 0.033220
C51   C     C_R   0.572349 0.975315 0.527500 0.033221
C52   C     C_R   0.000837 0.575966 0.136999 -0.111878
C53   C     C_R   0.000833 0.575967 0.863000 -0.111878
C54   C     C_R   0.500000 1.000000 0.986234 -0.021728
C55   C     C_R   0.500000 1.000000 0.013766 -0.021728
C56   C     C_R   0.000000 0.500000 0.986234 -0.021725
C57   C     C_R   0.924034 0.499146 0.363000 -0.111879
C58   C     C_R   0.000000 0.500000 0.013766 -0.021725
C59   C     C_R   0.000000 0.500000 0.486234 -0.021727
C60   C     C_R   0.000000 0.500000 0.513766 -0.021727
C61   C     C_R   0.500000 0.000000 0.486234 -0.021724
C62   C     C_R   0.500000 1.000000 0.513766 -0.021723
C63   C     C_R   0.549299 0.855846 0.986412 -0.096327
C64   C     C_R   0.450701 0.144153 0.013588 -0.096327
C65   C     C_R   0.144176 0.450768 0.986412 -0.096330
C66   C     C_R   0.855824 0.549232 0.013588 -0.096330
C67   C     C_R   0.450701 0.144153 0.986412 -0.096327
C68   C     C_R   0.500821 0.075967 0.636999 -0.111878
C69   C     C_R   0.549299 0.855846 0.013587 -0.096327
C70   C     C_R   0.855824 0.549232 0.986412 -0.096330
C71   C     C_R   0.144176 0.450768 0.013588 -0.096330
C72   C     C_R   0.049293 0.355846 0.486412 -0.096328
C73   C     C_R   0.950707 0.644153 0.513587 -0.096328
C74   C     C_R   0.644192 0.950819 0.486412 -0.096331
C75   C     C_R   0.355807 0.049181 0.513587 -0.096332
C76   C     C_R   0.950707 0.644153 0.486412 -0.096328
C77   C     C_R   0.049293 0.355847 0.513587 -0.096328
C78   C     C_R   0.355807 0.049181 0.486413 -0.096331
C79   C     C_R   0.500814 0.075967 0.363000 -0.111879
C80   C     C_R   0.644193 0.950819 0.513587 -0.096331
C81   C     C_R   0.075997 0.500871 0.609791 0.394946
C82   C     C_R   0.924003 0.499129 0.390209 0.394946
C83   C     C_R   0.500838 0.075997 0.609791 0.394944
C84   C     C_R   0.500830 0.075997 0.390209 0.394945
C85   C     C_R   0.924003 0.499129 0.609791 0.394945
C86   C     C_R   0.075997 0.500871 0.390209 0.394945
C87   C     C_R   0.499162 0.924002 0.609791 0.394944
C88   C     C_R   0.499170 0.924003 0.390209 0.394945
C89   C     C_R   0.575997 0.000874 0.109791 0.394945
C90   C     C_R   0.924034 0.499146 0.637000 -0.111879
C91   C     C_R   0.424003 0.999124 0.890208 0.394945
C92   C     C_R   0.999146 0.424003 0.109791 0.394944
C93   C     C_R   0.999150 0.424003 0.890209 0.394945
C94   C     C_R   0.424003 0.999126 0.109791 0.394944
C95   C     C_R   0.575997 0.000876 0.890208 0.394945
C96   C     C_R   0.000854 0.575997 0.109791 0.394945
C97   C     C_R   0.000850 0.575997 0.890209 0.394945
C98   C     C_R   1.000000 0.500000 0.596013 0.242249
C99   C     C_R   0.000000 0.500000 0.403987 0.242249
C100  C     C_R   0.500000 1.000000 0.596013 0.242259
C101  C     C_R   0.075966 0.500854 0.363000 -0.111879
C102  C     C_R   0.500000 0.000000 0.403987 0.242258
C103  C     C_R   0.500000 0.000000 0.096013 0.242246
C104  C     C_R   0.500000 1.000000 0.903987 0.242249
C105  C     C_R   0.000000 0.500000 0.096013 0.242255
C106  C     C_R   0.000000 0.500000 0.903987 0.242252
C107  C     C_R   0.000000 0.500000 0.820251 0.522220
C108  C     C_R   0.000000 0.500000 0.179749 0.522220
C109  C     C_R   0.500000 1.000000 0.820251 0.522219
C110  C     C_R   0.500000 0.000000 0.179749 0.522219
C111  C     C_R   0.500000 0.000000 0.320251 0.522220
C112  C     C_R   0.499178 0.924033 0.636999 -0.111878
C113  C     C_R   0.500000 1.000000 0.679749 0.522220
C114  C     C_R   0.000000 0.500000 0.320251 0.522219
C115  C     C_R   1.000000 0.500000 0.679749 0.522219
C116  C     C_R   0.839678 0.660322 0.750000 0.522097
C117  C     C_R   0.160322 0.339678 0.250000 0.522097
C118  C     C_R   0.339676 0.839676 0.750000 0.521775
C119  C     C_R   0.660324 0.160324 0.250000 0.521775
C120  C     C_R   0.160322 0.339678 0.750000 0.522097
C121  C     C_R   0.839678 0.660322 0.250000 0.522097
C122  C     C_R   0.660324 0.160324 0.750000 0.521775
C123  C     C_R   0.499186 0.924033 0.363000 -0.111878
C124  C     C_R   0.339676 0.839676 0.250000 0.521775
C125  C     C_R   0.839676 0.339676 0.250000 0.521775
C126  C     C_R   0.160324 0.660324 0.750000 0.521775
C127  C     C_R   0.339678 0.160322 0.250000 0.522096
C128  C     C_R   0.660322 0.839678 0.750000 0.522097
C129  C     C_R   0.160324 0.660324 0.250000 0.521775
C130  C     C_R   0.839676 0.339676 0.750000 0.521775
C131  C     C_R   0.660322 0.839678 0.250000 0.522096
C132  C     C_R   0.339678 0.160322 0.750000 0.522097
C133  C     C_R   1.000000 0.500000 0.650912 -0.095448
C134  C     C_R   0.575966 0.000857 0.136999 -0.111878
C135  C     C_R   0.000000 0.500000 0.349087 -0.095448
C136  C     C_R   0.500000 1.000000 0.650912 -0.095446
C137  C     C_R   0.500000 0.000000 0.349088 -0.095447
C138  C     C_R   0.500000 0.000000 0.150912 -0.095448
C139  C     C_R   0.500000 1.000000 0.849087 -0.095448
C140  C     C_R   0.000000 0.500000 0.150912 -0.095447
C141  C     C_R   0.000000 0.500000 0.849088 -0.095447
C142  C     C_1   0.776577 0.276577 0.750000 -0.002578
C143  C     C_1   0.223423 0.723423 0.250000 -0.002578
C144  C     C_1   0.723422 0.776578 0.750000 -0.001879
F1    F     F_    0.150053 0.502348 0.596802 -0.561948
F2    F     F_    0.349947 0.997642 0.903198 -0.561949
F3    F     F_    0.997687 0.349946 0.096802 -0.561951
F4    F     F_    0.997695 0.349946 0.903198 -0.561950
F5    F     F_    0.349946 0.997646 0.096802 -0.561948
F6    F     F_    0.650053 0.002358 0.903198 -0.561949
F7    F     F_    0.002313 0.650054 0.096802 -0.561951
F8    F     F_    0.002305 0.650054 0.903198 -0.561950
F9    F     F_    0.849947 0.497651 0.403198 -0.561949
F10   F     F_    0.502281 0.150054 0.596802 -0.561953
F11   F     F_    0.502266 0.150054 0.403198 -0.561952
F12   F     F_    0.849947 0.497652 0.596802 -0.561948
F13   F     F_    0.150053 0.502348 0.403198 -0.561948
F14   F     F_    0.497719 0.849945 0.596802 -0.561953
F15   F     F_    0.497734 0.849946 0.403198 -0.561952
F16   F     F_    0.650053 0.002354 0.096802 -0.561948
H1    H     H_    0.568613 0.799369 0.976356 0.180236
H2    H     H_    0.931395 0.700630 0.523644 0.180238
H3    H     H_    0.700685 0.931551 0.476356 0.180232
H4    H     H_    0.299315 0.068449 0.523644 0.180232
H5    H     H_    0.931395 0.700630 0.476356 0.180238
H6    H     H_    0.068605 0.299370 0.523644 0.180238
H7    H     H_    0.299315 0.068449 0.476356 0.180232
H8    H     H_    0.700685 0.931551 0.523644 0.180232
H9    H     H_    0.135461 0.501643 0.647154 0.188016
H10   H     H_    0.864538 0.498356 0.352846 0.188016
H11   H     H_    0.501585 0.135463 0.647154 0.188016
H12   H     H_    0.431387 0.200630 0.023644 0.180236
H13   H     H_    0.501571 0.135462 0.352846 0.188016
H14   H     H_    0.864538 0.498356 0.647154 0.188015
H15   H     H_    0.135462 0.501644 0.352846 0.188015
H16   H     H_    0.498415 0.864537 0.647154 0.188016
H17   H     H_    0.498429 0.864538 0.352846 0.188016
H18   H     H_    0.635462 0.001649 0.147154 0.188016
H19   H     H_    0.364539 0.998348 0.852846 0.188016
H20   H     H_    0.998387 0.364537 0.147154 0.188016
H21   H     H_    0.998394 0.364538 0.852846 0.188016
H22   H     H_    0.364538 0.998351 0.147154 0.188016
H23   H     H_    0.200661 0.431480 0.976356 0.180233
H24   H     H_    0.635461 0.001652 0.852846 0.188016
H25   H     H_    0.001613 0.635462 0.147154 0.188016
H26   H     H_    0.001605 0.635462 0.852846 0.188016
H27   H     H_    0.799339 0.568520 0.023644 0.180233
H28   H     H_    0.431387 0.200630 0.976356 0.180236
H29   H     H_    0.568613 0.799369 0.023644 0.180236
H30   H     H_    0.799339 0.568520 0.976356 0.180233
H31   H     H_    0.200661 0.431480 0.023644 0.180233
H32   H     H_    0.068605 0.299370 0.476356 0.180238
N1    N     N_R   0.500000 1.000000 0.932025 -0.351674
N2    N     N_R   0.500000 0.000000 0.067975 -0.351675
N3    N     N_R   0.000000 0.500000 0.932025 -0.351670
N4    N     N_R   0.000000 0.500000 0.067975 -0.351667
N5    N     N_R   0.000000 0.500000 0.432025 -0.351673
N6    N     N_R   1.000000 0.500000 0.567975 -0.351673
N7    N     N_R   0.500000 0.000000 0.432025 -0.351665
N8    N     N_R   0.500000 1.000000 0.567975 -0.351664
O1    O     O_3   0.000000 0.500000 0.750000 -0.449353
O2    O     O_R   0.000000 0.430630 0.192350 -0.534231
O3    O     O_R   0.430630 0.000000 0.807650 -0.534231
O4    O     O_R   0.569370 0.000000 0.192350 -0.534231
O5    O     O_R   0.500000 0.930630 0.307650 -0.534231
O6    O     O_R   0.500000 0.069370 0.692350 -0.534231
O7    O     O_R   0.069370 0.500000 0.307650 -0.534231
O8    O     O_R   0.930630 0.500000 0.692350 -0.534231
O9    O     O_R   0.500000 0.069370 0.307650 -0.534231
O10   O     O_R   0.500000 0.930630 0.692350 -0.534231
O11   O     O_R   0.930630 0.500000 0.307650 -0.534231
O12   O     O_3   0.000000 0.500000 0.250000 -0.449353
O13   O     O_R   0.069370 0.500000 0.692350 -0.534231
O14   O     O_R   0.902350 0.666510 0.764820 -0.528037
O15   O     O_R   0.097650 0.333490 0.235180 -0.528037
O16   O     O_R   0.333490 0.902350 0.764820 -0.528323
O17   O     O_R   0.666510 0.097650 0.235180 -0.528323
O18   O     O_R   0.097650 0.333490 0.764820 -0.528037
O19   O     O_R   0.902350 0.666510 0.235180 -0.528037
O20   O     O_R   0.666510 0.097650 0.764820 -0.528323
O21   O     O_R   0.333490 0.902350 0.235180 -0.528323
O22   O     O_R   0.902350 0.333490 0.235180 -0.528322
O23   O     O_3   0.500000 0.000000 0.750000 -0.449353
O24   O     O_R   0.097650 0.666510 0.764820 -0.528322
O25   O     O_R   0.333490 0.097650 0.235180 -0.528035
O26   O     O_R   0.666510 0.902350 0.764820 -0.528035
O27   O     O_R   0.097650 0.666510 0.235180 -0.528322
O28   O     O_R   0.902350 0.333490 0.764820 -0.528322
O29   O     O_R   0.666510 0.902350 0.235180 -0.528035
O30   O     O_R   0.333490 0.097650 0.764820 -0.528035
O31   O     O_R   0.402350 0.166510 0.264820 -0.528038
O32   O     O_R   0.597650 0.833490 0.735180 -0.528038
O33   O     O_R   0.833490 0.402350 0.264820 -0.528322
O34   O     O_3   0.500000 0.000000 0.250000 -0.449353
O35   O     O_R   0.166510 0.597650 0.735180 -0.528322
O36   O     O_R   0.597650 0.833490 0.264820 -0.528038
O37   O     O_R   0.402350 0.166510 0.735180 -0.528038
O38   O     O_R   0.166510 0.597650 0.264820 -0.528323
O39   O     O_R   0.833490 0.402350 0.735180 -0.528322
O40   O     O_R   0.402350 0.833490 0.735180 -0.528321
O41   O     O_R   0.597650 0.166510 0.264820 -0.528321
O42   O     O_R   0.833490 0.597650 0.735180 -0.528036
O43   O     O_R   0.166510 0.402350 0.264820 -0.528036
O44   O     O_R   0.597650 0.166510 0.735180 -0.528321
O45   O     O_R   0.000000 0.430630 0.807650 -0.534231
O46   O     O_R   0.402350 0.833490 0.264820 -0.528321
O47   O     O_R   0.166510 0.402350 0.735180 -0.528036
O48   O     O_R   0.833490 0.597650 0.264820 -0.528036
O49   O     O_2   0.453089 0.140021 0.931740 -0.435382
O50   O     O_2   0.546911 0.859979 0.068260 -0.435381
O51   O     O_2   0.859958 0.546847 0.931740 -0.435391
O52   O     O_2   0.140041 0.453153 0.068260 -0.435394
O53   O     O_2   0.546910 0.859979 0.931740 -0.435382
O54   O     O_2   0.453089 0.140021 0.068260 -0.435382
O55   O     O_2   0.140042 0.453153 0.931740 -0.435391
O56   O     O_R   0.000000 0.569370 0.192350 -0.534231
O57   O     O_2   0.859959 0.546847 0.068260 -0.435394
O58   O     O_2   0.953095 0.640021 0.431740 -0.435383
O59   O     O_2   0.046905 0.359979 0.568260 -0.435382
O60   O     O_2   0.359942 0.046797 0.431740 -0.435399
O61   O     O_2   0.640057 0.953201 0.568260 -0.435403
O62   O     O_2   0.046905 0.359979 0.431740 -0.435382
O63   O     O_2   0.953094 0.640021 0.568260 -0.435382
O64   O     O_2   0.640058 0.953203 0.431740 -0.435399
O65   O     O_2   0.359943 0.046799 0.568260 -0.435403
O66   O     O_R   0.569370 0.000000 0.807650 -0.534231
O67   O     O_R   0.430630 0.000000 0.192350 -0.534231
O68   O     O_R   0.000000 0.569370 0.807650 -0.534231
Zn1   Zn    Zn3+2 0.900880 0.500000 0.727850 0.973865
Zn2   Zn    Zn3+2 0.599120 0.000000 0.772150 0.973865
Zn3   Zn    Zn3+2 0.000000 0.400880 0.227850 0.973864
Zn4   Zn    Zn3+2 1.000000 0.599120 0.772150 0.973864
Zn5   Zn    Zn3+2 0.599120 0.000000 0.227850 0.973865
Zn6   Zn    Zn3+2 0.400880 0.000000 0.772150 0.973865
Zn7   Zn    Zn3+2 0.000000 0.599120 0.227850 0.973864
Zn8   Zn    Zn3+2 0.000000 0.400880 0.772150 0.973864
Zn9   Zn    Zn3+2 0.099120 0.500000 0.272150 0.973865
Zn10  Zn    Zn3+2 0.500000 0.900880 0.727850 0.973864
Zn11  Zn    Zn3+2 0.500000 0.099120 0.272150 0.973864
Zn12  Zn    Zn3+2 0.099120 0.500000 0.727850 0.973865
Zn13  Zn    Zn3+2 0.900880 0.500000 0.272150 0.973865
Zn14  Zn    Zn3+2 0.500000 0.099120 0.727850 0.973864
Zn15  Zn    Zn3+2 0.500000 0.900880 0.272150 0.973864
Zn16  Zn    Zn3+2 0.400880 0.000000 0.227850 0.973865

loop_
_geom_bond_atom_site_label_1
_geom_bond_atom_site_label_2
_ccdc_geom_bond_type
C105  N4    S    
O33   Zn13  S    
C96   C105  A    
C19   N3    A    
C43   C72   A    
C129  O38   A    
C18   N2    A    
C84   C102  A    
C82   C99   A    
C79   H13   S    
C35   C138  A    
C17   N1    A    
C119  O41   A    
C91   C104  A    
C123  H17   S    
O38   Zn9   S    
O43   Zn9   S    
C47   C62   A    
C127  O25   A    
C7    C8    T    
C41   C56   A    
O23   Zn10  S    
C66   C70   A    
C125  O22   A    
C95   C104  A    
C35   H22   S    
O17   Zn5   S    
C51   C62   A    
C64   C67   A    
O29   Zn5   S    
C78   H7    S    
O10   Zn10  S    
C49   C60   A    
C122  O20   A    
C48   C59   A    
O45   Zn8   S    
C2    C139  A    
O67   Zn16  S    
C110  O4    A    
C112  C136  A    
C113  O10   A    
C57   H10   S    
C32   N7    A    
O1    Zn12  S    
C65   H23   S    
C79   C84   A    
C25   C38   A    
C68   H11   S    
C3    C127  S    
C8    C121  S    
C20   O52   S    
C39   C54   A    
C81   C98   A    
C1    C81   A    
C114  O7    A    
C115  O13   A    
C93   F4    S    
C31   O63   S    
C17   C39   A    
C88   F15   S    
C46   H24   S    
O47   Zn12  S    
C117  O15   A    
C26   N5    A    
O41   Zn11  S    
C51   C80   A    
O48   Zn13  S    
C108  O2    A    
C85   C98   A    
O16   Zn6   S    
C52   C140  A    
O22   Zn3   S    
C38   C58   A    
C82   F9    S    
C28   C50   A    
C97   F8    S    
C121  O48   A    
C46   C95   A    
C38   C66   A    
O34   Zn16  S    
C56   C58   A    
C28   O60   S    
C113  C136  S    
C37   C65   A    
C115  O8    A    
C29   O61   S    
C114  C135  S    
O56   Zn7   S    
C10   C119  S    
C120  O47   A    
C107  C141  S    
O20   Zn2   S    
C111  O5    A    
C27   O59   S    
C24   C93   A    
C53   H26   S    
C43   C59   A    
O7    Zn9   S    
O23   Zn14  S    
C25   O57   S    
O12   Zn9   S    
C131  O29   A    
C3    C12   T    
O13   Zn12  S    
C130  O28   A    
C59   C60   A    
C128  O32   A    
C74   C80   A    
C66   H27   S    
O5    Zn15  S    
C92   F3    S    
C121  O19   A    
O32   Zn10  S    
C42   C58   A    
C79   C137  A    
C2    C91   A    
O36   Zn15  S    
C94   F5    S    
C6    C9    T    
C88   C123  A    
C1    C133  A    
C50   C78   A    
C75   C78   A    
O19   Zn7   S    
C110  O67   A    
C6    C132  S    
O15   Zn3   S    
C14   C144  T    
C101  C135  A    
O3    Zn6   S    
C116  O42   A    
C130  O39   A    
C28   N7    A    
C40   C69   A    
O39   Zn1   S    
C76   H5    S    
O42   Zn1   S    
O68   Zn4   S    
C80   H8    S    
C68   C136  A    
C16   C122  S    
O23   Zn2   S    
C23   O55   S    
C31   C44   A    
C69   H29   S    
C83   F10   S    
C90   C133  A    
C98   N6    S    
C122  O44   A    
C21   C34   A    
C115  C133  S    
O12   Zn3   S    
C53   C97   A    
C77   H6    S    
O9    Zn11  S    
C96   F7    S    
O8    Zn1   S    
C45   C61   A    
O25   Zn16  S    
C33   O65   S    
C75   H4    S    
C30   O62   S    
O1    Zn4   S    
C114  O11   A    
C64   H12   S    
C16   C142  T    
C132  O37   A    
C111  O9    A    
O2    Zn3   S    
C134  C138  A    
C72   C77   A    
C86   C99   A    
C23   C37   A    
C93   C106  A    
O24   Zn4   S    
C128  C144  S    
O12   Zn13  S    
C20   C42   A    
C125  O33   A    
C26   O58   S    
C110  C138  S    
C24   C141  A    
C104  N1    S    
C40   C55   A    
C72   H32   S    
C129  O27   A    
C127  O31   A    
C57   C135  A    
O14   Zn4   S    
C99   N5    S    
C95   F6    S    
C27   N6    A    
C134  H18   S    
C4    C11   T    
O37   Zn14  S    
O34   Zn5   S    
C32   C45   A    
C25   N4    A    
C37   C56   A    
C85   F12   S    
O11   Zn13  S    
C97   C106  A    
C117  O43   A    
C116  O14   A    
C15   C124  S    
C103  N2    S    
O34   Zn11  S    
C13   C140  A    
C34   C54   A    
C126  O24   A    
C81   F1    S    
C83   C100  A    
C13   C92   A    
O66   Zn2   S    
C33   C47   A    
C73   C76   A    
C15   C143  T    
C30   C43   A    
C101  H15   S    
C2    H19   S    
O35   Zn12  S    
C5    C125  S    
C100  N8    S    
C48   C76   A    
O27   Zn7   S    
C67   H28   S    
C70   H30   S    
C89   F16   S    
C108  C140  S    
C87   C100  A    
C29   C51   A    
O12   Zn7   S    
C118  O40   A    
C44   C73   A    
C63   H1    S    
C18   O50   S    
C54   C55   A    
O40   Zn10  S    
O18   Zn8   S    
C89   C134  A    
C112  H16   S    
C24   H21   S    
C68   C83   A    
C39   C67   A    
C107  O45   A    
O21   Zn16  S    
O6    Zn14  S    
C29   N8    A    
C109  O66   A    
C132  O30   A    
O4    Zn5   S    
C88   C102  A    
C85   C90   A    
O46   Zn15  S    
C106  N3    S    
C129  C143  S    
C26   C48   A    
C131  O36   A    
C13   H20   S    
C22   C36   A    
C94   C103  A    
C123  C137  A    
O28   Zn8   S    
O44   Zn14  S    
C33   N8    A    
C87   F14   S    
C4    C126  S    
C109  C139  S    
C71   H31   S    
C113  O6    A    
C35   C94   A    
C73   H2    S    
C32   O64   S    
C9    C120  S    
C47   C75   A    
C63   C69   A    
O1    Zn1   S    
C36   C55   A    
C65   C71   A    
C102  N7    S    
O26   Zn2   S    
C86   C101  A    
C19   O51   S    
C74   H3    S    
C45   C74   A    
C17   O49   S    
C44   C60   A    
C111  C137  S    
C14   C116  S    
C1    H9    S    
C34   C63   A    
C84   F11   S    
C87   C112  A    
C49   C77   A    
C52   C96   A    
O30   Zn6   S    
C53   C141  A    
C46   C139  A    
C31   N6    A    
C124  O46   A    
C61   C62   A    
C130  C142  S    
C86   F13   S    
C22   O54   S    
O23   Zn6   S    
C90   H14   S    
O1    Zn8   S    
C21   O53   S    
C12   C117  S    
C19   C41   A    
C92   C105  A    
C5    C10   T    
C30   N5    A    
C18   C40   A    
C124  O21   A    
C128  O26   A    
O34   Zn15  S    
C52   H25   S    
C109  O3    A    
C23   N3    A    
C107  O68   A    
C119  O17   A    
C50   C61   A    
C21   N1    A    
C57   C82   A    
C22   N2    A    
C118  O16   A    
C89   C103  A    
C126  O35   A    
C120  O18   A    
C36   C64   A    
C11   C118  S    
O31   Zn11  S    
C20   N4    A    
C91   F2    S    
C108  O56   A    
C7    C131  S    
C27   C49   A    
C42   C71   A    
C41   C70   A    
