data_mof_unit_22762.cif
_audit_creation_date              2012-12-11T15:20:44-0500
_audit_creation_method            fapswitch 2.2
_symmetry_space_group_name_H-M    P1
_symmetry_Int_Tables_number       1
_space_group_crystal_system       triclinic
_cell_length_a                    21.653617
_cell_length_b                    7.229102
_cell_length_c                    19.947276
_cell_angle_alpha                 90.000014
_cell_angle_beta                  87.383363
_cell_angle_gamma                 90.0
_cell_volume                      3119.21527753

loop_
_atom_site_label
_atom_site_type_symbol
_atom_type_description
_atom_site_fract_x
_atom_site_fract_y
_atom_site_fract_z
_atom_type_partial_charge
O1    O     O_R   0.688010 0.379840 0.189360 -0.501538
O2    O     O_R   0.311990 0.620160 0.810640 -0.501538
O3    O     O_R   0.811990 0.879840 0.310640 -0.501538
O4    O     O_R   0.188010 0.120160 0.689360 -0.501540
O5    O     O_R   0.808630 0.708850 0.184280 -0.514999
O6    O     O_R   0.191370 0.291150 0.815720 -0.514999
O7    O     O_R   0.691370 0.208850 0.315720 -0.514999
O8    O     O_R   0.308630 0.791150 0.684280 -0.514999
C1    C     C_R   0.830453 0.540959 0.166640 0.727703
C2    C     C_R   0.169547 0.459041 0.833360 0.727703
C3    C     C_R   0.669547 0.040959 0.333360 0.727703
C4    C     C_R   0.330453 0.959041 0.666640 0.727703
O9    O     O_R   0.688260 0.709510 0.181570 -0.535479
O10   O     O_R   0.311740 0.290490 0.818430 -0.535479
O11   O     O_R   0.811740 0.209510 0.318430 -0.535479
O12   O     O_R   0.188260 0.790490 0.681570 -0.535480
O13   O     O_R   0.690760 0.880550 0.307920 -0.531174
O14   O     O_R   0.309240 0.119450 0.692080 -0.531174
O15   O     O_R   0.809240 0.380550 0.192080 -0.531174
O16   O     O_R   0.190760 0.619450 0.807920 -0.531175
C5    C     C_R   0.668881 0.540882 0.165326 0.760529
C6    C     C_R   0.331119 0.459118 0.834674 0.760530
C7    C     C_R   0.831119 0.040882 0.334674 0.760529
C8    C     C_R   0.168881 0.959118 0.665326 0.760531
O17   O     O_3   0.750960 0.546580 0.291460 -0.366119
O18   O     O_3   0.249040 0.453420 0.708540 -0.366120
O19   O     O_3   0.749040 0.046580 0.208540 -0.366119
O20   O     O_3   0.250960 0.953420 0.791460 -0.366119
V1    V     V_3+5 0.749820 0.821150 0.242310 1.514051
V2    V     V_3+5 0.250180 0.178850 0.757690 1.514051
V3    V     V_3+5 0.750180 0.321150 0.257690 1.514051
V4    V     V_3+5 0.249820 0.678850 0.742310 1.514050
C9    C     C_R   0.072999 0.101863 0.624080 0.502661
C10   C     C_R   0.927001 0.898135 0.375921 0.502659
C11   C     C_R   0.427001 0.601865 0.875921 0.502659
C12   C     C_R   0.572999 0.398135 0.124079 0.502659
C13   C     C_R   0.120089 0.969323 0.615013 -0.227963
C14   C     C_R   0.879911 0.030677 0.384987 -0.227961
C15   C     C_R   0.379911 0.469323 0.884987 -0.227960
C16   C     C_R   0.620089 0.530677 0.115013 -0.227960
C17   C     C_R   0.119919 0.848828 0.559076 -0.123016
C18   C     C_R   0.880081 0.151173 0.440924 -0.123013
C19   C     C_R   0.380081 0.348827 0.940924 -0.123013
C20   C     C_R   0.619919 0.651173 0.059076 -0.123013
C21   C     C_R   0.072102 0.862587 0.512857 0.046959
C22   C     C_R   0.927898 0.137414 0.487143 0.046959
C23   C     C_R   0.427898 0.362586 0.987143 0.046959
C24   C     C_R   0.572102 0.637414 0.012857 0.046959
C25   C     C_R   0.024030 0.994057 0.523199 -0.008280
C26   C     C_R   0.975970 0.005944 0.476801 -0.008280
C27   C     C_R   0.475970 0.494057 0.976801 -0.008280
C28   C     C_R   0.524030 0.505943 0.023199 -0.008280
C29   C     C_R   0.024063 0.113905 0.579616 -0.063129
C30   C     C_R   0.975937 0.886095 0.420383 -0.063130
C31   C     C_R   0.475937 0.613906 0.920384 -0.063131
C32   C     C_R   0.524063 0.386094 0.079616 -0.063131
C33   C     C_R   0.071757 0.747853 0.456004 -0.232007
C34   C     C_R   0.928243 0.252148 0.543996 -0.232009
C35   C     C_R   0.428243 0.247851 0.043996 -0.232009
C36   C     C_R   0.571757 0.752149 0.956004 -0.232008
C37   C     C_R   0.024962 0.757311 0.410342 -0.011562
C38   C     C_R   0.975038 0.242689 0.589658 -0.011562
C39   C     C_R   0.475038 0.257309 0.089657 -0.011561
C40   C     C_R   0.524962 0.742691 0.910343 -0.011562
H1    H     H_    0.108574 0.649175 0.445743 0.135602
H2    H     H_    0.891426 0.350825 0.554257 0.135602
H3    H     H_    0.391427 0.149173 0.054256 0.135602
H4    H     H_    0.608573 0.850827 0.945744 0.135602
C41   C     C_1   0.382698 0.969123 0.614550 -0.194273
C42   C     C_1   0.617302 0.030877 0.385450 -0.194273
C43   C     C_1   0.117302 0.469123 0.885450 -0.194271
C44   C     C_1   0.882698 0.530877 0.114550 -0.194272
C45   C     C_1   0.426298 0.979890 0.571778 -0.016139
C46   C     C_1   0.573703 0.020110 0.428222 -0.016138
C47   C     C_1   0.073703 0.479890 0.928222 -0.016137
C48   C     C_1   0.926297 0.520110 0.071777 -0.016138
C49   C     C_1   0.478127 0.993938 0.521279 -0.015908
C50   C     C_1   0.521873 0.006062 0.478721 -0.015907
C51   C     C_1   0.021873 0.493937 0.978721 -0.015907
C52   C     C_1   0.978127 0.506062 0.021279 -0.015908
F1    F     F_    0.075165 0.217093 0.677695 -0.697279
F2    F     F_    0.924834 0.782902 0.322306 -0.697280
F3    F     F_    0.424834 0.717099 0.822307 -0.697280
F4    F     F_    0.575166 0.282901 0.177693 -0.697281
C53   C     C_R   0.170914 0.712969 0.547943 0.119963
C54   C     C_R   0.159760 0.523001 0.557204 -0.088802
C55   C     C_R   0.207937 0.395721 0.547364 -0.085669
C56   C     C_R   0.267546 0.457158 0.529115 -0.102595
C57   C     C_R   0.279004 0.646040 0.520092 -0.116879
C58   C     C_R   0.230869 0.773800 0.529291 -0.141343
H5    H     H_    0.113821 0.474133 0.571725 0.133268
H6    H     H_    0.199159 0.249519 0.553920 0.096058
H7    H     H_    0.304828 0.358361 0.521927 0.100220
H8    H     H_    0.325195 0.693474 0.505991 0.112465
H9    H     H_    0.240287 0.919820 0.522273 0.080057
C59   C     C_R   0.829087 0.287032 0.452057 0.119961
C60   C     C_R   0.769132 0.226202 0.470708 -0.141343
C61   C     C_R   0.720997 0.353963 0.479908 -0.116879
C62   C     C_R   0.732455 0.542845 0.470885 -0.102595
C63   C     C_R   0.792064 0.604281 0.452636 -0.085670
C64   C     C_R   0.840241 0.477000 0.442796 -0.088800
H10   H     H_    0.759713 0.080182 0.477726 0.080056
H11   H     H_    0.674806 0.306529 0.494008 0.112465
H12   H     H_    0.695173 0.641642 0.478072 0.100220
H13   H     H_    0.800842 0.750483 0.446080 0.096058
H14   H     H_    0.886180 0.525868 0.428275 0.133273
C65   C     C_R   0.329087 0.212968 0.952056 0.119961
C66   C     C_R   0.340240 0.023000 0.942795 -0.088799
C67   C     C_R   0.292064 0.895719 0.952636 -0.085669
C68   C     C_R   0.232454 0.957156 0.970885 -0.102595
C69   C     C_R   0.220997 0.146038 0.979908 -0.116879
C70   C     C_R   0.269132 0.273798 0.970709 -0.141344
H15   H     H_    0.386180 0.974132 0.928274 0.133273
H16   H     H_    0.300842 0.749517 0.946079 0.096058
H17   H     H_    0.195173 0.858359 0.978072 0.100220
H18   H     H_    0.174806 0.193472 0.994009 0.112465
H19   H     H_    0.259713 0.419818 0.977726 0.080057
C71   C     C_R   0.670913 0.787032 0.047943 0.119961
C72   C     C_R   0.730868 0.726202 0.029291 -0.141344
C73   C     C_R   0.779003 0.853963 0.020092 -0.116878
C74   C     C_R   0.767545 0.042845 0.029115 -0.102595
C75   C     C_R   0.707936 0.104281 0.047364 -0.085669
C76   C     C_R   0.659759 0.977000 0.057205 -0.088800
H20   H     H_    0.740287 0.580182 0.022274 0.080057
H21   H     H_    0.825194 0.806529 0.005991 0.112464
H22   H     H_    0.804827 0.141642 0.021928 0.100220
H23   H     H_    0.699158 0.250483 0.053920 0.096058
H24   H     H_    0.613820 0.025868 0.071726 0.133273
C77   C     C_R   0.030009 0.628963 0.352589 0.181138
C78   C     C_R   0.049079 0.693861 0.288578 -0.033910
C79   C     C_R   0.053027 0.571973 0.234087 -0.107873
C80   C     C_R   0.038822 0.384764 0.243402 -0.096158
C81   C     C_R   0.020992 0.318910 0.307280 -0.109987
C82   C     C_R   0.016784 0.440404 0.361828 -0.125539
H25   H     H_    0.060071 0.838710 0.280898 0.089800
H26   H     H_    0.067049 0.622605 0.184642 0.107452
H27   H     H_    0.041869 0.290632 0.201183 0.110429
H28   H     H_    0.010511 0.173812 0.314466 0.116530
H29   H     H_    0.003065 0.388364 0.411129 0.112731
C83   C     C_R   0.969991 0.371034 0.647412 0.181141
C84   C     C_R   0.983220 0.559591 0.638175 -0.125528
C85   C     C_R   0.979014 0.681082 0.692724 -0.109987
C86   C     C_R   0.961178 0.615227 0.756600 -0.096156
C87   C     C_R   0.946968 0.428020 0.765913 -0.107873
C88   C     C_R   0.950916 0.306136 0.711421 -0.033921
H30   H     H_    0.996944 0.611631 0.588875 0.112727
H31   H     H_    0.989499 0.826178 0.685539 0.116533
H32   H     H_    0.958131 0.709356 0.798820 0.110430
H33   H     H_    0.932942 0.377388 0.815357 0.107451
H34   H     H_    0.939921 0.161288 0.719099 0.089800
C89   C     C_R   0.469991 0.128961 0.147410 0.181138
C90   C     C_R   0.450922 0.193858 0.211422 -0.033908
C91   C     C_R   0.446973 0.071971 0.265912 -0.107873
C92   C     C_R   0.461178 0.884761 0.256597 -0.096158
C93   C     C_R   0.479009 0.818907 0.192719 -0.109987
C94   C     C_R   0.483216 0.940402 0.138171 -0.125542
H35   H     H_    0.439930 0.338708 0.219102 0.089800
H36   H     H_    0.432951 0.122602 0.315357 0.107452
H37   H     H_    0.458131 0.790629 0.298816 0.110429
H38   H     H_    0.489490 0.673810 0.185532 0.116530
H39   H     H_    0.496936 0.888362 0.088870 0.112731
C95   C     C_R   0.530009 0.871038 0.852590 0.181138
C96   C     C_R   0.516784 0.059598 0.861828 -0.125541
C97   C     C_R   0.520992 0.181092 0.807280 -0.109987
C98   C     C_R   0.538822 0.115237 0.743403 -0.096159
C99   C     C_R   0.553026 0.928028 0.734088 -0.107872
C100  C     C_R   0.549078 0.806141 0.788578 -0.033909
H40   H     H_    0.503065 0.111638 0.911130 0.112731
H41   H     H_    0.510511 0.326190 0.814467 0.116530
H42   H     H_    0.541869 0.209369 0.701183 0.110429
H43   H     H_    0.567048 0.877396 0.684643 0.107452
H44   H     H_    0.560070 0.661291 0.780898 0.089800

loop_
_geom_bond_atom_site_label_1
_geom_bond_atom_site_label_2
_ccdc_geom_bond_type
C34   C38   A    
C95   C100  A    
C4    C41   S    
O1    C5    A    
C98   C99   A    
O19   V1    S    
O13   V1    S    
C65   C70   A    
C75   H23   S    
O3    C7    A    
C69   C70   A    
C1    C44   S    
C44   C48   T    
O15   V3    S    
C60   C61   A    
C3    C42   S    
C58   H9    S    
C72   H20   S    
O7    C3    A    
C21   C33   A    
C63   H13   S    
C26   C30   A    
C18   C59   S    
O9    V1    S    
C97   C98   A    
C14   C18   A    
C24   C28   A    
C54   H5    S    
C53   C54   A    
C70   H19   S    
O4    C8    A    
C61   H11   S    
C61   C62   A    
O1    V3    S    
C66   C67   A    
O2    V4    S    
C18   C22   A    
C57   H8    S    
O3    V1    S    
C71   C72   A    
C35   H3    S    
C68   C69   A    
C28   C32   A    
C84   C85   A    
C34   H2    S    
C96   C97   A    
C2    O16   A    
C80   C81   A    
O2    C6    A    
C89   C90   A    
C41   C45   T    
C69   H18   S    
O14   V2    S    
C20   C71   S    
C19   C23   A    
C16   C20   A    
C60   H10   S    
C37   C77   S    
C2    C43   S    
O11   C7    A    
C62   H12   S    
C81   H28   S    
O12   C8    A    
C10   C14   A    
C55   H6    S    
C22   C34   A    
C97   H41   S    
O10   V2    S    
C85   H31   S    
C1    O15   A    
C24   C36   A    
O5    V1    S    
C31   C40   A    
C9    C29   A    
C86   H32   S    
O7    V3    S    
C91   H36   S    
C11   C31   A    
C27   C28   A    
O8    V4    S    
C48   C52   S    
C12   C16   A    
C83   C84   A    
C40   C95   S    
C79   H26   S    
C33   H1    S    
C82   H29   S    
C11   F3    S    
O18   V4    S    
C15   C19   A    
C80   H27   S    
C49   C50   T    
C9    C13   A    
C51   C52   T    
C74   H22   S    
C66   H15   S    
C11   C15   A    
C42   C46   T    
C87   H33   S    
C12   C32   A    
C29   C38   A    
C62   C63   A    
C21   C25   A    
O8    C4    A    
C59   C60   A    
C8    C13   S    
C74   C75   A    
C32   C39   A    
O9    C5    A    
C19   C65   S    
C89   C94   A    
C56   C57   A    
C72   C73   A    
C33   C37   A    
C39   C89   S    
C92   C93   A    
C84   H30   S    
C67   H16   S    
O6    V2    S    
C78   H25   S    
C94   H39   S    
C10   C30   A    
C99   C100  A    
C65   C66   A    
C79   C80   A    
C57   C58   A    
C64   H14   S    
C73   C74   A    
C95   C96   A    
O16   V4    S    
C98   H42   S    
C56   H7    S    
C3    O13   A    
C45   C49   S    
C93   H38   S    
C54   C55   A    
O17   V3    S    
C88   H34   S    
O5    C1    A    
C87   C88   A    
C83   C88   A    
O6    C2    A    
C23   C27   A    
C53   C58   A    
O11   V3    S    
C100  H44   S    
C30   C37   A    
O12   V4    S    
C7    C14   S    
C17   C53   S    
C22   C26   A    
C35   C39   A    
C36   C40   A    
O10   C6    A    
O20   V2    S    
C78   C79   A    
C77   C78   A    
C96   H40   S    
C92   H37   S    
C67   C68   A    
C43   C47   T    
C76   H24   S    
C81   C82   A    
C5    C16   S    
C9    F1    S    
C12   F4    S    
C25   C29   A    
C6    C15   S    
C63   C64   A    
C73   H21   S    
C90   H35   S    
C27   C31   A    
C71   C76   A    
C13   C17   A    
C23   C35   A    
C77   C82   A    
C20   C24   A    
C99   H43   S    
C90   C91   A    
C36   H4    S    
C55   C56   A    
C25   C26   A    
C46   C50   S    
C4    O14   A    
C93   C94   A    
C75   C76   A    
C17   C21   A    
C85   C86   A    
C10   F2    S    
C38   C83   S    
C91   C92   A    
C59   C64   A    
C47   C51   S    
C68   H17   S    
O4    V2    S    
C86   C87   A    
