data_mof_unit_29810.cif
_audit_creation_date              2012-12-10T20:27:52-0500
_audit_creation_method            fapswitch 2.2
_symmetry_space_group_name_H-M    P1
_symmetry_Int_Tables_number       1
_space_group_crystal_system       triclinic
_cell_length_a                    12.912783
_cell_length_b                    10.6772
_cell_length_c                    9.862964
_cell_angle_alpha                 88.916118
_cell_angle_beta                  98.04002
_cell_angle_gamma                 90.69025
_cell_volume                      1346.16227843

loop_
_atom_site_label
_atom_site_type_symbol
_atom_type_description
_atom_site_fract_x
_atom_site_fract_y
_atom_site_fract_z
_atom_type_partial_charge
C1    C     C_R   0.499217 0.260021 0.500796 0.894617
C2    C     C_R   0.031727 0.519300 0.564307 0.125567
C3    C     C_R   0.970592 0.497940 0.437414 0.183515
C4    C     C_R   0.863826 0.490430 0.430914 -0.305604
C5    C     C_R   0.877647 0.532525 0.677378 0.154720
C6    C     C_R   0.986224 0.535904 0.682389 -0.204737
C7    C     C_R   0.569131 0.063163 0.599687 0.138286
C8    C     C_R   0.502471 0.127832 0.500116 -0.137622
C9    C     C_R   0.451814 0.065237 0.385618 -0.215177
C10   C     C_R   0.455762 0.936328 0.382447 -0.217408
C11   C     C_R   0.510169 0.871290 0.494201 -0.088480
C12   C     C_R   0.298079 0.501745 0.472349 0.887002
C13   C     C_R   0.574004 0.935149 0.596133 0.071922
C14   C     C_3   0.587167 0.919619 0.748391 -0.506930
C15   C     C_3   0.576934 0.061248 0.752711 -0.048112
C16   C     C_R   0.420382 0.443045 0.058098 0.172798
C17   C     C_R   0.572054 0.567402 0.083831 -0.121928
C18   C     C_R   0.571713 0.567806 0.939859 -0.152023
C19   C     C_R   0.419992 0.444227 0.915145 0.203373
C20   C     C_3   0.389560 0.309896 0.904583 -0.552708
C21   C     C_3   0.392567 0.306943 0.059091 -0.244134
C22   C     C_R   0.502441 0.739653 0.498974 0.885524
C23   C     C_R   0.702549 0.502177 0.528442 0.877416
C24   C     C_R   0.816232 0.507514 0.548457 -0.135622
C25   C     C_R   0.185835 0.505758 0.455550 -0.055307
C26   C     C_R   0.017355 0.484453 0.318796 -0.202442
C27   C     C_R   0.125451 0.489752 0.327652 -0.184159
C28   C     C_R   0.138694 0.523295 0.572472 -0.267780
H1    H     H_    0.817849 0.471717 0.332539 0.171937
H2    H     H_    0.665519 0.882875 0.790237 0.200155
H3    H     H_    0.501911 0.085814 0.787118 0.134174
H4    H     H_    0.631467 0.619993 0.147844 0.149496
H5    H     H_    0.629920 0.621876 0.895445 0.140700
H6    H     H_    0.310811 0.296608 0.844259 0.206707
H7    H     H_    0.452280 0.254379 0.870811 0.197976
H8    H     H_    0.455809 0.247574 0.113726 0.166786
H9    H     H_    0.970626 0.469157 0.220378 0.141608
H10   H     H_    0.036925 0.552546 0.777325 0.155496
H11   H     H_    0.161499 0.479736 0.235899 0.172226
H12   H     H_    0.185181 0.538943 0.671269 0.160918
H13   H     H_    0.404827 0.115039 0.302808 0.165321
H14   H     H_    0.410666 0.887643 0.298092 0.165578
H15   H     H_    0.520708 0.868707 0.785663 0.201014
N1    N     N_R   0.499290 0.499140 0.142710 -0.117216
N2    N     N_R   0.499290 0.499180 0.857070 -0.107300
O1    O     O_R   0.500010 0.316790 0.614690 -0.623914
O2    O     O_R   0.500000 0.316760 0.385350 -0.620807
O3    O     O_R   0.346360 0.499990 0.595720 -0.621228
O4    O     O_R   0.346350 0.499960 0.366370 -0.622086
O5    O     O_R   0.500000 0.683240 0.614650 -0.622066
O6    O     O_R   0.499990 0.683210 0.385310 -0.623275
O7    O     O_R   0.653650 0.500040 0.633630 -0.641536
O8    O     O_R   0.653640 0.500010 0.404280 -0.619476
Zn1   Zn    Zn3+2 0.500010 0.500020 0.653130 0.928700
Zn2   Zn    Zn3+2 0.499990 0.499980 0.346870 0.946905
C29   C     C_3   0.671772 0.132639 0.828971 -0.364150
C30   C     C_3   0.771987 0.127831 0.762411 -0.823117
H16   H     H_    0.796588 0.029715 0.751861 0.255072
H17   H     H_    0.760260 0.174894 0.660091 0.252525
H18   H     H_    0.835811 0.178073 0.827464 0.242903
H19   H     H_    0.650097 0.232546 0.835515 0.214083
H20   H     H_    0.688067 0.094838 0.935468 0.206202
C31   C     C_1   0.289582 0.282320 0.101781 0.199897
N3    N     N_1   0.208569 0.261547 0.135026 -0.233035
C32   C     C_3   0.828080 0.558582 0.805701 -0.363198
C33   C     C_3   0.902272 0.592919 0.934902 -0.949926
H21   H     H_    0.955782 0.514150 0.968358 0.262229
H22   H     H_    0.947847 0.679012 0.916686 0.269445
H23   H     H_    0.855827 0.611579 0.018921 0.251053
H24   H     H_    0.774157 0.638728 0.781931 0.208626
H25   H     H_    0.783491 0.474085 0.832270 0.230033

loop_
_geom_bond_atom_site_label_1
_geom_bond_atom_site_label_2
_ccdc_geom_bond_type
C4    H1    S    
C33   H22   S    
C23   C24   S    
C6    H10   S    
C26   H9    S    
C15   H3    S    
C16   C21   S    
C10   H14   S    
C1    C8    S    
C9    C10   A    
C16   N1    A    
C11   C22   S    
C9    H13   S    
C19   C20   S    
C14   C15   S    
C12   O3    A    
C12   C25   S    
C22   O5    A    
C20   H6    S    
C15   C29   S    
O1    Zn1   S    
C7    C15   S    
C17   C18   A    
C23   O7    A    
C17   N1    A    
C7    C8    A    
C21   H8    S    
O5    Zn1   S    
C13   C14   S    
C29   C30   S    
C25   C28   A    
O3    Zn1   S    
C30   H16   S    
C11   C13   A    
N1    Zn2   S    
C26   C27   A    
C2    C6    A    
C5    C24   A    
C14   H2    S    
C16   C19   A    
O2    Zn2   S    
O7    Zn1   S    
N2    Zn1   S    
C23   O8    A    
C2    C3    A    
O8    Zn2   S    
C22   O6    A    
C5    C6    A    
C4    C24   A    
C18   H5    S    
C29   H20   S    
C1    O1    A    
C30   H17   S    
C12   O4    A    
C21   C31   S    
C10   C11   A    
C28   H12   S    
C3    C4    A    
C33   H23   S    
C18   N2    A    
C7    C13   A    
C33   H21   S    
C20   C21   S    
C5    C32   S    
C32   C33   S    
C17   H4    S    
C29   H19   S    
C8    C9    A    
C30   H18   S    
C2    C28   A    
O6    Zn2   S    
C32   H24   S    
C32   H25   S    
C20   H7    S    
C25   C27   A    
C3    C26   A    
C1    O2    A    
C19   N2    A    
C31   N3    T    
C27   H11   S    
C14   H15   S    
O4    Zn2   S    
