data_mof_unit_38560.cif
_audit_creation_date              2012-12-10T19:28:40-0500
_audit_creation_method            fapswitch 2.2
_symmetry_space_group_name_H-M    P1
_symmetry_Int_Tables_number       1
_space_group_crystal_system       triclinic
_cell_length_a                    27.441936
_cell_length_b                    10.540037
_cell_length_c                    9.792188
_cell_angle_alpha                 88.475553
_cell_angle_beta                  88.995765
_cell_angle_gamma                 88.161751
_cell_volume                      2829.42932084

loop_
_atom_site_label
_atom_site_type_symbol
_atom_type_description
_atom_site_fract_x
_atom_site_fract_y
_atom_site_fract_z
_atom_type_partial_charge
C1    C     C_R   0.500783 0.257715 0.501562 0.976092
C2    C     C_R   0.877167 0.434235 0.388703 -0.135620
C3    C     C_R   0.353307 0.514304 0.498838 -0.202398
C4    C     C_R   0.647137 0.507330 0.493167 -0.231917
C5    C     C_R   0.978147 0.459421 0.339510 -0.001360
C6    C     C_R   0.022214 0.653075 0.481279 0.008588
C7    C     C_R   0.972289 0.665943 0.448121 -0.022134
C8    C     C_R   0.028653 0.478849 0.320659 -0.018020
C9    C     C_R   0.949781 0.558875 0.397494 -0.045603
C10   C     C_R   0.050905 0.562630 0.409261 -0.044766
C11   C     C_R   0.956479 0.340575 0.320352 0.460961
C12   C     C_R   0.499245 0.742430 0.498460 0.991519
C13   C     C_R   0.042246 0.713679 0.594355 0.466651
C14   C     C_R   0.907044 0.326822 0.360022 0.301270
C15   C     C_R   0.091979 0.688233 0.626105 0.304063
C16   C     C_R   0.406168 0.502914 0.500584 0.984754
C17   C     C_R   0.594045 0.499610 0.498911 0.970740
C18   C     C_R   0.057774 0.419495 0.219504 0.354319
C19   C     C_R   0.944053 0.779539 0.459649 0.342659
C20   C     C_3   0.501900 0.035304 0.634014 -0.457036
C21   C     C_3   0.497878 0.965473 0.366024 -0.437925
C22   C     C_3   0.540094 0.951732 0.557622 0.444036
C23   C     C_R   0.101398 0.552544 0.428230 -0.173574
C24   C     C_3   0.459713 0.049140 0.442539 0.445153
C25   C     C_3   0.499043 0.877620 0.495682 -0.232820
C26   C     C_3   0.500850 0.122786 0.504418 -0.230830
C27   C     C_3   0.460778 0.961584 0.569736 0.460116
C28   C     C_3   0.539003 0.039056 0.430421 0.452901
C29   C     C_3   0.468878 0.422295 0.051677 0.361147
C30   C     C_3   0.531017 0.577897 0.948377 0.367590
C31   C     C_3   0.511377 0.389015 0.955234 0.369683
C32   C     C_3   0.488565 0.611275 0.044997 0.351892
C33   C     C_3   0.457071 0.533560 0.953323 0.169272
C34   C     C_R   0.899044 0.550528 0.409361 -0.172950
C35   C     C_3   0.542773 0.466513 0.046452 0.188101
C36   C     C_R   0.179929 0.455986 0.371015 0.605610
C37   C     C_R   0.820723 0.644008 0.473122 0.646058
C38   C     C_R   0.173495 0.605835 0.549808 0.693470
C39   C     C_R   0.826169 0.429049 0.402568 0.657498
C40   C     C_R   0.279644 0.602008 0.395228 0.417386
C41   C     C_R   0.728313 0.458478 0.578909 0.419400
C42   C     C_R   0.330345 0.600519 0.406446 0.289071
C43   C     C_R   0.677454 0.452863 0.595426 0.278907
C44   C     C_R   0.325763 0.435059 0.584505 -0.361285
C45   C     C_R   0.130220 0.472715 0.343183 -0.172399
C46   C     C_R   0.667688 0.570670 0.379490 -0.328936
C47   C     C_R   0.274731 0.435677 0.573975 0.543808
C48   C     C_R   0.718055 0.582190 0.366058 0.541574
C49   C     C_R   0.252216 0.521146 0.480480 0.046721
C50   C     C_R   0.748083 0.523417 0.464676 0.042205
C51   C     C_3   0.395770 0.003143 0.714787 -0.286799
C52   C     C_3   0.604499 0.996687 0.287388 -0.293911
C53   C     C_3   0.537014 0.180727 0.000922 -0.233286
C54   C     C_3   0.458965 0.817040 0.003705 -0.227521
C55   C     C_3   0.407939 0.278927 0.022190 -0.223270
C56   C     C_R   0.870676 0.657671 0.447513 -0.204949
C57   C     C_3   0.585124 0.739003 0.976501 -0.169582
C58   C     C_3   0.263916 0.234934 0.669779 -0.233875
C59   C     C_3   0.719005 0.763967 0.229490 -0.271909
C60   C     C_3   0.152348 0.443810 0.033057 -0.065334
C61   C     C_3   0.849190 0.909691 0.313518 -0.084519
C62   C     C_3   0.763456 0.274991 0.669447 -0.089201
C63   C     C_3   0.259075 0.648322 0.173917 -0.177530
C64   C     C_3   0.968249 0.167354 0.181418 -0.032812
C65   C     C_3   0.024497 0.892571 0.724308 -0.044792
C66   C     C_3   0.609494 0.976578 0.681021 -0.198442
C67   C     C_R   0.108656 0.416049 0.230389 0.473212
C68   C     C_3   0.387380 0.029630 0.331275 -0.174202
C69   C     C_R   0.893009 0.776092 0.453420 0.483791
C70   C     C_R   0.122515 0.617486 0.535532 -0.146216
Cl1   Cl    Cl    0.398575 0.579314 0.888406 -0.580389
Cl2   Cl    Cl    0.601574 0.421405 0.109230 -0.514610
Cl3   Cl    Cl    0.653159 0.374556 0.742120 -0.510200
Cl4   Cl    Cl    0.364321 0.712853 0.310987 -0.596188
Cl5   Cl    Cl    0.887324 0.175874 0.412488 -0.514637
Cl6   Cl    Cl    0.112695 0.723075 0.791096 -0.574997
Cl7   Cl    Cl    0.032561 0.379658 0.062312 -0.592413
Cl8   Cl    Cl    0.971872 0.927569 0.445422 -0.559246
H1    H     H_    0.344268 0.372219 0.657397 0.183061
H2    H     H_    0.638561 0.036202 0.243888 0.201409
H3    H     H_    0.517243 0.192812 0.100204 0.209594
H4    H     H_    0.576897 0.184784 0.015735 0.233162
H5    H     H_    0.529629 0.083919 0.966866 0.120787
H6    H     H_    0.418732 0.810638 0.001127 0.239824
H7    H     H_    0.475140 0.804164 0.899598 0.200032
H8    H     H_    0.466852 0.914851 0.033621 0.124642
H9    H     H_    0.427909 0.254231 0.926155 0.157338
H10   H     H_    0.375509 0.340684 0.998830 0.210998
H11   H     H_    0.394617 0.188987 0.068152 0.166975
H12   H     H_    0.644351 0.611523 0.300834 0.205383
H13   H     H_    0.593311 0.691569 0.076711 0.160484
H14   H     H_    0.560577 0.823236 0.991691 0.135716
H15   H     H_    0.620031 0.773658 0.933319 0.180653
H16   H     H_    0.292376 0.226509 0.749059 0.144878
H17   H     H_    0.278172 0.198655 0.570415 0.168167
H18   H     H_    0.233826 0.173109 0.703728 0.216663
H19   H     H_    0.713608 0.816785 0.325999 0.169815
H20   H     H_    0.684226 0.760144 0.173672 0.150230
H21   H     H_    0.744531 0.818601 0.163510 0.189925
H22   H     H_    0.178719 0.396216 0.962501 0.204846
H23   H     H_    0.503251 0.068014 0.740241 0.212939
H24   H     H_    0.121302 0.481581 0.971343 0.215235
H25   H     H_    0.171138 0.523700 0.079126 0.121372
H26   H     H_    0.880361 0.929770 0.242972 0.144514
H27   H     H_    0.828689 0.829053 0.275035 0.125412
H28   H     H_    0.823710 0.993511 0.311371 0.220639
H29   H     H_    0.747684 0.235365 0.575886 0.157963
H30   H     H_    0.745641 0.230644 0.760587 0.194267
H31   H     H_    0.802682 0.246051 0.670899 0.205295
H32   H     H_    0.254680 0.544256 0.165305 0.161501
H33   H     H_    0.294127 0.675383 0.125099 0.231541
H34   H     H_    0.496347 0.933379 0.259542 0.212630
H35   H     H_    0.229525 0.696974 0.114768 0.193427
H36   H     H_    0.946799 0.228283 0.107807 0.137942
H37   H     H_    0.946193 0.086778 0.217375 0.202362
H38   H     H_    0.999831 0.125383 0.124353 0.202099
H39   H     H_    0.052029 0.935112 0.653128 0.169697
H40   H     H_    0.038075 0.890198 0.830357 0.196639
H41   H     H_    0.991767 0.957099 0.724722 0.204749
H42   H     H_    0.590175 0.008238 0.775416 0.158645
H43   H     H_    0.618725 0.059765 0.614251 0.200185
H44   H     H_    0.644297 0.928827 0.712236 0.184608
H45   H     H_    0.385759 0.088901 0.651327 0.169041
H46   H     H_    0.372378 0.965084 0.411832 0.230085
H47   H     H_    0.405668 0.974910 0.248299 0.184829
H48   H     H_    0.356112 0.083858 0.285770 0.182082
H49   H     H_    0.418191 0.029458 0.802497 0.140952
H50   H     H_    0.361475 0.964036 0.757188 0.206941
H51   H     H_    0.582173 0.967946 0.200488 0.137091
H52   H     H_    0.614972 0.912405 0.352501 0.179667
N1    N     N_R   0.200408 0.525354 0.469246 -0.315688
N2    N     N_R   0.799693 0.531525 0.448799 -0.311663
N3    N     N_3   0.499960 0.500030 0.863290 -0.189352
N4    N     N_3   0.500040 0.499970 0.136710 -0.193833
O1    O     O_R   0.500000 0.313960 0.616610 -0.600648
O2    O     O_2   0.793295 0.741397 0.522908 -0.516269
O3    O     O_2   0.802821 0.324950 0.365713 -0.527702
O4    O     O_2   0.196608 0.676582 0.639707 -0.477913
O5    O     O_3   0.420008 0.908968 0.637242 -0.574579
O6    O     O_3   0.579874 0.091464 0.363206 -0.582784
O7    O     O_3   0.522248 0.269564 0.898105 -0.576172
O8    O     O_3   0.478140 0.730571 0.102992 -0.570812
O9    O     O_3   0.437164 0.336750 0.118273 -0.537541
O10   O     O_3   0.565044 0.657380 0.882116 -0.516923
O11   O     O_3   0.245272 0.361143 0.658241 -0.588798
O12   O     O_R   0.500000 0.686040 0.383390 -0.589090
O13   O     O_3   0.739483 0.640687 0.252277 -0.570392
O14   O     O_3   0.136733 0.353826 0.132521 -0.544972
O15   O     O_3   0.865499 0.888347 0.448830 -0.503144
O16   O     O_3   0.759335 0.408741 0.678139 -0.572822
O17   O     O_3   0.255742 0.689572 0.309978 -0.577400
O18   O     O_3   0.986069 0.234283 0.293058 -0.555660
O19   O     O_3   0.010222 0.769883 0.688719 -0.592208
O20   O     O_3   0.581830 0.888809 0.612188 -0.599503
O21   O     O_3   0.418990 0.116025 0.387077 -0.613403
O22   O     O_R   0.500020 0.313950 0.383350 -0.560064
O23   O     O_R   0.499980 0.686050 0.616650 -0.565907
O24   O     O_R   0.428750 0.500030 0.616610 -0.585871
O25   O     O_R   0.571250 0.499970 0.383390 -0.603079
O26   O     O_R   0.428770 0.500020 0.383360 -0.539072
O27   O     O_R   0.571230 0.499980 0.616640 -0.525831
O28   O     O_2   0.207843 0.371188 0.301380 -0.527134
Zn1   Zn    Zn3+2 0.499990 0.500010 0.655740 1.107028
Zn2   Zn    Zn3+2 0.500010 0.499990 0.344260 1.100457

loop_
_geom_bond_atom_site_label_1
_geom_bond_atom_site_label_2
_ccdc_geom_bond_type
C43   Cl3   S    
C32   N4    S    
C47   O11   S    
C3    C42   A    
C34   C56   A    
C23   C45   A    
C57   H14   S    
C16   O26   A    
C51   H45   S    
C28   O6    S    
C24   C27   S    
C62   O16   S    
C31   N3    S    
C68   O21   S    
C68   H46   S    
C54   H6    S    
C58   O11   S    
C47   C49   A    
C4    C46   A    
C49   N1    S    
C17   O25   A    
C30   C35   S    
C64   O18   S    
C64   H38   S    
C51   H50   S    
O26   Zn2   S    
C24   C26   S    
C5    C11   A    
C11   C14   A    
C62   H30   S    
C39   N2    A    
C40   C49   A    
C29   O9    S    
C48   O13   S    
C29   C33   S    
C30   O10   S    
C53   H3    S    
C12   O12   A    
C55   H10   S    
C58   H18   S    
C65   O19   S    
C37   C56   A    
C2    C39   A    
C22   C25   S    
C45   C67   A    
C65   H40   S    
C66   H44   S    
C12   O23   A    
C60   H25   S    
C61   H27   S    
O23   Zn1   S    
C32   O8    S    
C24   O21   S    
C17   O27   A    
C2    C34   A    
C40   C42   A    
C15   Cl6   S    
C64   H37   S    
C66   H42   S    
C36   O28   S    
C41   C43   A    
C23   C70   A    
C60   H24   S    
N3    Zn1   S    
C35   N4    S    
C22   C28   S    
O27   Zn1   S    
C38   O4    S    
C46   C48   A    
C3    C44   A    
C37   O2    S    
C55   O9    S    
C16   O24   A    
C61   H26   S    
C64   H36   S    
C36   N1    A    
C54   H8    S    
C20   H23   S    
C18   C67   A    
O12   Zn2   S    
C27   O5    S    
C40   O17   S    
C53   H4    S    
C31   O7    S    
C1    O22   A    
C58   H17   S    
C5    C9    A    
C39   O3    S    
C54   H7    S    
C30   N3    S    
C63   O17   S    
C65   H41   S    
C66   H43   S    
C36   C45   A    
C61   H28   S    
C13   O19   S    
C42   Cl4   S    
C50   N2    S    
O24   Zn1   S    
C55   H9    S    
C46   H12   S    
C4    C17   S    
C8    C10   A    
C38   C70   A    
C54   O8    S    
C21   C28   S    
C20   C22   S    
C35   Cl2   S    
C7    C19   A    
C13   C15   A    
C9    C34   A    
C59   H19   S    
C31   C35   S    
C19   C69   A    
C52   H51   S    
C62   H29   S    
C68   H48   S    
C41   C50   A    
C21   H34   S    
C66   O20   S    
C22   O20   S    
C7    C9    A    
C15   C70   A    
C21   C25   S    
C57   H13   S    
C57   O10   S    
O1    Zn1   S    
C44   H1    S    
C60   H22   S    
C6    C10   A    
C5    C8    A    
C44   C47   A    
C6    C7    A    
C41   O16   S    
C20   C27   S    
C10   C23   A    
C25   C27   S    
C26   C28   S    
C37   N2    A    
C12   C25   S    
C53   H5    S    
C19   Cl8   S    
C52   H52   S    
C38   N1    A    
C63   H32   S    
C58   H16   S    
C69   O15   S    
C29   C31   S    
C1    O1    A    
C32   C33   S    
C6    C13   A    
C30   C32   S    
C1    C26   S    
C62   H31   S    
C20   C26   S    
C18   Cl7   S    
C59   H21   S    
C48   C50   A    
C52   O6    S    
C4    C43   A    
N4    Zn2   S    
C29   N4    S    
C53   O7    S    
C63   H33   S    
C2    C14   A    
C8    C18   A    
C33   Cl1   S    
C63   H35   S    
C33   N3    S    
C11   O18   S    
C51   H49   S    
O22   Zn2   S    
C55   H11   S    
C56   C69   A    
C21   C24   S    
C67   O14   S    
C59   H20   S    
C65   H39   S    
O25   Zn2   S    
C57   H15   S    
C60   O14   S    
C52   H2    S    
C61   O15   S    
C68   H47   S    
C3    C16   S    
C14   Cl5   S    
C59   O13   S    
C51   O5    S    
