data_mof_unit_37991.cif
_audit_creation_date              2012-12-11T17:29:29-0500
_audit_creation_method            fapswitch 2.2
_symmetry_space_group_name_H-M    P1
_symmetry_Int_Tables_number       1
_space_group_crystal_system       triclinic
_cell_length_a                    19.186527
_cell_length_b                    19.383358
_cell_length_c                    20.475093
_cell_angle_alpha                 107.64271
_cell_angle_beta                  105.512451
_cell_angle_gamma                 111.877546
_cell_volume                      6079.1460352

loop_
_atom_site_label
_atom_site_type_symbol
_atom_type_description
_atom_site_fract_x
_atom_site_fract_y
_atom_site_fract_z
_atom_type_partial_charge
C1    C     C_R   0.086933 0.088822 0.355638 -0.201639
C2    C     C_R   0.243445 0.072022 0.544324 -0.151779
C3    C     C_R   0.231760 0.378863 0.923123 -0.110399
C4    C     C_R   0.175447 0.360308 0.955075 -0.079111
C5    C     C_R   0.138375 0.281682 0.952386 -0.062226
C6    C     C_R   0.158495 0.222051 0.918731 -0.112368
C7    C     C_R   0.214698 0.240490 0.886552 -0.170913
C8    C     C_R   0.161713 0.942775 0.224901 0.132305
C9    C     C_R   0.224150 0.972375 0.296820 -0.183051
C10   C     C_R   0.260237 0.924102 0.310141 -0.101873
C11   C     C_R   0.233711 0.846241 0.252936 -0.077369
C12   C     C_R   0.169911 0.815271 0.182076 -0.136741
C13   C     C_R   0.152193 0.220345 0.710854 0.165639
C14   C     C_R   0.134694 0.863464 0.167809 -0.091320
C15   C     C_R   0.702449 0.735658 0.371712 0.140681
C16   C     C_R   0.637724 0.754598 0.359384 -0.178743
C17   C     C_R   0.566306 0.708911 0.366257 -0.083798
C18   C     C_R   0.558814 0.643462 0.384685 -0.052765
C19   C     C_R   0.622522 0.623390 0.395860 -0.080178
C20   C     C_R   0.693858 0.668803 0.388726 -0.114381
C21   C     C_R   0.766045 0.928792 0.512061 0.195385
C22   C     C_R   0.995307 0.764069 0.429829 -0.153456
C23   C     C_R   0.232954 0.264382 0.718906 -0.006919
C24   C     C_R   0.947758 0.715072 0.453878 0.058527
C25   C     C_R   0.253845 0.003757 0.532327 0.011607
C26   C     C_R   0.017963 0.978981 0.723681 0.026942
C27   C     C_R   0.027971 0.650076 0.479875 -0.248213
C28   C     C_R   0.949627 0.642772 0.453587 0.115540
C29   C     C_R   0.761637 0.998241 0.548629 0.030705
C30   C     C_R   0.877372 0.570194 0.431517 -0.261323
C31   C     C_R   0.883874 0.502368 0.435127 0.144013
C32   C     C_R   0.963635 0.509601 0.461986 0.037631
C33   C     C_R   0.850207 0.778151 0.291438 -0.077840
C34   C     C_R   0.035676 0.584160 0.484406 0.143595
C35   C     C_R   0.812759 0.428325 0.413720 -0.193268
C36   C     C_R   0.820600 0.361848 0.419816 -0.195558
C37   C     C_R   0.899567 0.369352 0.447358 0.148049
C38   C     C_R   0.971692 0.443316 0.468236 0.017460
C39   C     C_R   0.052027 0.452095 0.497496 0.079135
C40   C     C_R   0.773667 0.729824 0.285435 -0.022568
C41   C     C_R   0.122950 0.527596 0.519816 -0.195853
C42   C     C_R   0.114600 0.592950 0.512850 -0.210868
C43   C     C_R   0.907647 0.304274 0.455181 -0.279047
C44   C     C_R   0.986121 0.312041 0.482489 0.052135
C45   C     C_R   0.964107 0.209575 0.534237 -0.102965
C46   C     C_R   0.059348 0.385887 0.505518 -0.064131
C47   C     C_R   0.374200 0.993295 0.598755 -0.270508
C48   C     C_R   0.334891 0.014041 0.546280 0.131740
C49   C     C_R   0.373604 0.048414 0.506718 -0.284247
C50   C     C_R   0.446393 0.049725 0.509312 0.139760
C51   C     C_R   0.990825 0.242662 0.488947 0.048207
C52   C     C_R   0.484519 0.023340 0.557842 0.049482
C53   C     C_R   0.450368 0.998656 0.605498 0.140564
C54   C     C_R   0.478134 0.071639 0.460383 -0.224654
C55   C     C_R   0.544255 0.061307 0.455038 -0.185949
C56   C     C_R   0.581804 0.032857 0.501477 0.073449
C57   C     C_R   0.768925 0.773037 0.350224 0.015774
C58   C     C_R   0.554434 0.018145 0.556135 0.016311
C59   C     C_R   0.594280 0.994287 0.606464 0.118057
C60   C     C_R   0.563685 0.975554 0.657452 -0.178251
C61   C     C_R   0.490981 0.976286 0.656030 -0.203702
C62   C     C_R   0.232108 0.223601 0.649464 -0.146958
C63   C     C_R   0.645272 0.017474 0.493971 -0.076254
C64   C     C_R   0.687700 0.999416 0.548033 0.057402
C65   C     C_R   0.663534 0.988767 0.604176 -0.217527
C66   C     C_R   0.310412 0.328869 0.789142 0.096342
C67   C     C_R   0.318050 0.342141 0.863612 0.008351
C68   C     C_R   0.396651 0.383581 0.923160 -0.253174
C69   C     C_R   0.039898 0.212918 0.466689 -0.099876
C70   C     C_R   0.468694 0.415456 0.912454 0.237668
C71   C     C_R   0.462195 0.411852 0.842147 -0.162459
C72   C     C_R   0.384004 0.368194 0.780909 -0.210737
C73   C     C_R   0.922410 0.759617 0.497544 -0.145951
C74   C     C_R   0.690692 0.518359 0.127435 0.217899
C75   C     C_R   0.745121 0.592761 0.193792 -0.236342
C76   C     C_R   0.606592 0.495422 0.095194 0.165591
C77   C     C_R   0.715546 0.644225 0.226517 0.112980
C78   C     C_R   0.630486 0.617278 0.196498 -0.151645
C79   C     C_R   0.576261 0.542567 0.132068 -0.227235
C80   C     C_R   0.096303 0.038141 0.231966 0.114091
C81   C     C_R   0.831887 0.067592 0.566692 -0.153218
C82   C     C_R   0.138748 0.999885 0.202470 0.022562
C83   C     C_R   0.159975 0.014464 0.145970 -0.219304
C84   C     C_R   0.178454 0.933090 0.476939 0.029042
C85   C     C_R   0.135489 0.061359 0.114735 0.237188
C86   C     C_R   0.099000 0.103195 0.147450 -0.177530
C87   C     C_R   0.080525 0.092586 0.206144 -0.177595
C88   C     C_R   0.176717 0.029304 0.908430 -0.222040
C89   C     C_R   0.142473 0.022859 0.836324 -0.199564
C90   C     C_R   0.124897 0.983650 0.934000 0.164418
C91   C     C_R   0.056621 0.972730 0.791327 0.103559
C92   C     C_R   0.006754 0.920187 0.813593 -0.230662
C93   C     C_R   0.017728 0.951219 0.288763 0.192216
C94   C     C_R   0.040818 0.925226 0.884946 0.208127
C95   C     C_R   0.033369 0.052141 0.717489 -0.110916
C96   C     C_R   0.067654 0.025225 0.289321 -0.004215
C97   C     C_R   0.168072 0.852349 0.429229 0.107945
C98   C     C_R   0.202421 0.811737 0.461949 -0.161801
C99   C     C_R   0.191284 0.734827 0.416174 -0.116364
C100  C     C_R   0.145012 0.697424 0.337612 -0.098578
C101  C     C_R   0.110432 0.737239 0.304611 -0.112615
C102  C     C_R   0.122921 0.814998 0.350045 -0.150113
C103  C     C_R   0.142844 0.395867 0.542963 0.124283
C104  C     C_R   0.172579 0.407298 0.618073 -0.105971
C105  C     C_R   0.251793 0.418685 0.653918 -0.101766
C106  C     C_R   0.962690 0.912583 0.653237 -0.068263
C107  C     C_R   0.301300 0.417844 0.614789 -0.104665
C108  C     C_R   0.271719 0.405731 0.539766 -0.106029
C109  C     C_R   0.192853 0.395103 0.503918 -0.200811
C110  C     C_R   0.659437 0.008260 0.424563 0.146589
C111  C     C_R   0.724931 0.072675 0.424468 -0.158928
C112  C     C_R   0.739044 0.060186 0.359277 -0.111846
C113  C     C_R   0.686719 0.984585 0.293558 -0.064169
C114  C     C_R   0.620096 0.921198 0.292747 -0.136043
C115  C     C_R   0.606490 0.932896 0.358017 -0.165124
C116  C     C_R   0.249383 0.317824 0.886146 0.150984
H1    H     H_    0.132251 0.153688 0.377964 0.114678
H2    H     H_    0.765153 0.304885 0.403639 0.132591
H3    H     H_    0.852929 0.247535 0.440443 0.125398
H4    H     H_    0.185375 0.537415 0.543390 0.148888
H5    H     H_    0.169973 0.650819 0.530777 0.125978
H6    H     H_    0.344711 0.971354 0.632240 0.125409
H7    H     H_    0.343448 0.068446 0.469478 0.125810
H8    H     H_    0.449013 0.092427 0.423359 0.133583
H9    H     H_    0.565624 0.075634 0.414469 0.143460
H10   H     H_    0.880197 0.754664 0.260828 0.142163
H11   H     H_    0.697710 0.974635 0.644788 0.164234
H12   H     H_    0.878381 0.736694 0.519849 0.116448
H13   H     H_    0.594290 0.957530 0.696411 0.141876
H14   H     H_    0.465913 0.958253 0.693439 0.136142
H15   H     H_    0.810679 0.611946 0.217523 0.148746
H16   H     H_    0.517559 0.441309 0.834393 0.137494
H17   H     H_    0.382084 0.363831 0.726601 0.119617
H18   H     H_    0.606324 0.656438 0.218873 0.131525
H19   H     H_    0.401999 0.393398 0.979773 0.131011
H20   H     H_    0.511086 0.524672 0.106706 0.131348
H21   H     H_    0.929336 0.224384 0.564497 0.115454
H22   H     H_    0.181856 0.059060 0.816582 0.127057
H23   H     H_    0.074712 0.114744 0.761833 0.137672
H24   H     H_    0.241810 0.073344 0.945817 0.142458
H25   H     H_    0.079792 0.139752 0.124059 0.127111
H26   H     H_    0.049351 0.123461 0.228625 0.132685
H27   H     H_    0.940674 0.879490 0.777816 0.162701
H28   H     H_    0.191344 0.984266 0.122876 0.137614
H29   H     H_    0.072669 0.229004 0.433493 0.104859
H30   H     H_    0.851050 0.131479 0.602168 0.131253
H31   H     H_    0.279853 0.245732 0.630818 0.101962
H32   H     H_    0.235743 0.838138 0.522827 0.111311
H33   H     H_    0.217672 0.703712 0.441714 0.111638
H34   H     H_    0.939845 0.847442 0.638546 0.111887
H35   H     H_    0.135757 0.637507 0.302352 0.113713
H36   H     H_    0.074339 0.708138 0.243767 0.143979
H37   H     H_    0.096198 0.845358 0.323738 0.148987
H38   H     H_    0.134699 0.408065 0.648857 0.136930
H39   H     H_    0.274885 0.428592 0.712140 0.130532
H40   H     H_    0.362749 0.426984 0.642604 0.103156
H41   H     H_    0.310101 0.405068 0.509547 0.111636
H42   H     H_    0.170581 0.386235 0.445907 0.118626
H43   H     H_    0.765408 0.131737 0.474878 0.106279
H44   H     H_    0.790647 0.108672 0.359411 0.113063
H45   H     H_    0.291926 0.136192 0.577331 0.116713
H46   H     H_    0.697774 0.975170 0.243243 0.113642
H47   H     H_    0.579495 0.862665 0.241804 0.114935
H48   H     H_    0.555323 0.882880 0.357091 0.114087
H49   H     H_    0.261747 0.440657 0.927163 0.117976
H50   H     H_    0.161146 0.407081 0.982462 0.113086
H51   H     H_    0.095039 0.267382 0.977364 0.108018
H52   H     H_    0.131129 0.162000 0.918413 0.134022
H53   H     H_    0.232806 0.195776 0.863184 0.109496
H54   H     H_    0.247764 0.034088 0.340800 0.109897
H55   H     H_    0.309457 0.946481 0.364242 0.131594
H56   H     H_    0.012829 0.741584 0.385833 0.137538
H57   H     H_    0.262072 0.809559 0.263895 0.111579
H58   H     H_    0.149023 0.754761 0.137676 0.125330
H59   H     H_    0.088071 0.840242 0.111236 0.158476
H60   H     H_    0.641862 0.803123 0.342486 0.124282
H61   H     H_    0.516603 0.723829 0.356723 0.105809
H62   H     H_    0.503463 0.607989 0.389826 0.099090
H63   H     H_    0.616174 0.572004 0.409094 0.106244
H64   H     H_    0.741312 0.650707 0.394567 0.098287
H65   H     H_    0.083440 0.708490 0.499053 0.138445
H66   H     H_    0.817310 0.566961 0.411948 0.122661
H67   H     H_    0.751486 0.422183 0.393000 0.132802
I1    I     I_    0.083764 0.276198 0.745388 -0.494578
I2    I     I_    0.734326 0.837321 0.551497 -0.477647
I3    I     I_    0.738173 0.447478 0.073973 -0.390120
I4    I     I_    0.961535 0.851096 0.920351 -0.379381
I5    I     I_    0.958260 0.834253 0.192778 -0.463672
N1    N     N_R   0.052570 0.055840 0.395080 -0.047081
N2    N     N_2   0.552327 0.433135 0.020926 -0.073260
N3    N     N_2   0.130477 0.053703 0.042392 -0.082912
N4    N     N_R   0.834730 0.954500 0.499860 -0.067174
N5    N     N_2   0.152357 0.004665 0.011398 -0.086660
N6    N     N_R   0.890190 0.849120 0.355200 -0.051656
N7    N     N_R   0.997110 0.161210 0.539740 -0.031248
N8    N     N_R   0.841940 0.845190 0.395070 -0.057397
N9    N     N_R   0.045360 0.165140 0.499870 -0.040271
N10   N     N_R   0.877490 0.041590 0.539730 -0.049476
N11   N     N_R   0.009810 0.968740 0.355210 -0.063700
N12   N     N_R   0.954640 0.834860 0.500130 -0.041521
N13   N     N_R   0.158060 0.154810 0.604930 -0.049429
N14   N     N_R   0.122510 0.958410 0.460270 -0.067741
N15   N     N_R   0.990190 0.031260 0.644790 -0.034589
N16   N     N_R   0.947430 0.944160 0.604920 -0.036586
N17   N     N_R   0.165270 0.045500 0.500140 -0.050979
N18   N     N_R   0.109810 0.150880 0.644800 -0.060283
N19   N     N_R   0.002890 0.838790 0.460260 -0.045367
N20   N     N_2   0.546030 0.465012 0.976610 -0.070056
Ni1   Ni    Ni4+2 0.104370 0.104380 0.500010 0.208669
Ni2   Ni    Ni4+2 0.895630 0.895620 0.499990 0.241691
Ni3   Ni    Ni4+2 0.006290 0.904630 0.408560 0.209756
Ni4   Ni    Ni4+2 0.993710 0.095370 0.591440 0.254034

loop_
_geom_bond_atom_site_label_1
_geom_bond_atom_site_label_2
_ccdc_geom_bond_type
C45   N7    A    
N6    N8    A    
N15   N16   A    
C101  C102  A    
C106  H34   S    
C69   H29   S    
C41   C42   A    
C92   C94   A    
C111  C112  A    
C34   C42   A    
C76   C79   A    
N14   Ni3   S    
C55   C56   A    
C26   C106  A    
C27   H65   S    
C114  C115  A    
C72   H17   S    
C39   C41   A    
C85   C86   A    
C79   H20   S    
C99   H33   S    
C50   C54   A    
C74   C76   A    
C8    C82   S    
C84   C97   S    
C65   H11   S    
C23   C66   S    
C36   C37   A    
C93   N11   A    
C37   C38   A    
C80   C87   A    
C3    C116  A    
C69   N9    A    
C30   C31   A    
C98   C99   A    
N7    N9    A    
C24   C73   A    
C45   C51   A    
C70   N20   S    
C15   C16   A    
C49   H7    S    
C73   N12   A    
C85   N3    S    
N6    Ni3   S    
C13   N18   A    
C74   I3    S    
C108  C109  A    
C13   C23   A    
C18   C19   A    
C115  H48   S    
C49   C50   A    
C92   H27   S    
C111  H43   S    
C110  C111  A    
C88   H24   S    
C113  H46   S    
C53   C61   A    
C23   C62   A    
C66   C72   A    
C55   H9    S    
C44   C46   A    
C16   C17   A    
N14   N17   A    
C15   C57   S    
C25   C84   A    
C50   C52   A    
C107  C108  A    
C90   C94   A    
C70   C71   A    
C17   H61   S    
N4    N10   A    
C56   C58   A    
C80   C96   S    
C36   H2    S    
C9    C10   A    
C95   N15   A    
N11   Ni3   S    
C97   C102  A    
C47   C53   A    
N8    Ni2   S    
N1    N11   A    
C66   C67   A    
C71   H16   S    
C29   C64   S    
C59   C60   A    
C100  H35   S    
N19   Ni3   S    
C30   H66   S    
C9    H54   S    
C109  H42   S    
C2    H45   S    
N13   Ni1   S    
C104  C105  A    
C75   H15   S    
C97   C98   A    
C68   H19   S    
C27   C34   A    
C15   C20   A    
C6    H52   S    
C11   H57   S    
C33   C40   A    
C74   C75   A    
C57   N8    A    
C67   C68   A    
C89   H22   S    
C38   C39   A    
C94   I4    S    
C80   C82   A    
C91   C92   A    
C86   C87   A    
C8    C9    A    
C47   H6    S    
C108  H41   S    
C10   H55   S    
C77   C78   A    
C21   C29   A    
N12   Ni2   S    
C60   C61   A    
C35   C36   A    
C32   C34   A    
C7    C116  A    
C37   C43   A    
C43   C44   A    
N3    N5    D    
C62   N13   A    
C29   C81   A    
C14   H59   S    
C26   C91   S    
C20   H64   S    
C105  C107  A    
C47   C48   A    
C25   C48   S    
C76   N2    S    
N17   Ni1   S    
N13   N18   A    
C13   I1    S    
C45   H21   S    
C17   C18   A    
C56   C63   A    
C2    N17   A    
C1    H1    S    
C78   H18   S    
C102  H37   S    
N4    Ni2   S    
C52   C58   A    
C61   H14   S    
C39   C46   A    
C44   C51   S    
N2    N20   D    
C48   C49   A    
C83   C85   A    
C12   C14   A    
C33   N6    A    
C81   H30   S    
C93   C96   A    
C32   C38   A    
C62   H31   S    
C7    H53   S    
C22   C24   A    
N15   Ni4   S    
C89   C91   A    
C3    C4    A    
C19   H63   S    
C81   N10   A    
N10   Ni4   S    
C52   C53   A    
C3    H49   S    
C12   H58   S    
C113  C114  A    
C86   H25   S    
C84   N14   A    
C26   C95   A    
C54   H8    S    
C54   C55   A    
C8    C14   A    
C40   C57   A    
C112  H44   S    
C105  H39   S    
C78   C79   A    
C31   C32   A    
C24   C28   S    
C88   C90   A    
C4    C5    A    
C21   N4    A    
C60   H13   S    
C11   C12   A    
C21   I2    S    
C6    C7    A    
C41   H4    S    
N12   N19   A    
C73   H12   S    
C46   C103  S    
C101  H36   S    
C95   H23   S    
C99   C100  A    
C103  C109  A    
C64   C65   A    
C19   C20   A    
C28   C30   A    
C58   C59   A    
C71   C72   A    
N1    Ni1   S    
C83   H28   S    
C59   C65   A    
C16   H60   S    
C114  H47   S    
C5    C6    A    
C90   N5    S    
C98   H32   S    
C63   C110  S    
C1    C96   A    
C31   C35   A    
C33   H10   S    
C4    H50   S    
C22   N19   A    
C2    C25   A    
C112  C113  A    
C5    H51   S    
C87   H26   S    
C67   C116  S    
N9    Ni1   S    
C10   C11   A    
C107  H40   S    
C106  N16   A    
C63   C64   A    
C93   I5    S    
N18   Ni4   S    
N7    Ni4   S    
C88   C89   A    
C18   H62   S    
C68   C70   A    
C82   C83   A    
C75   C77   A    
N16   Ni2   S    
C103  C104  A    
C40   C77   S    
C100  C101  A    
C51   C69   A    
C104  H38   S    
C35   H67   S    
C110  C115  A    
C22   H56   S    
C42   H5    S    
C43   H3    S    
C27   C28   A    
C1    N1    A    
