data_mof_unit_51027.cif
_audit_creation_date              2012-12-10T16:50:09-0500
_audit_creation_method            fapswitch 2.2
_symmetry_space_group_name_H-M    P1
_symmetry_Int_Tables_number       1
_space_group_crystal_system       triclinic
_cell_length_a                    7.844544
_cell_length_b                    8.5803
_cell_length_c                    10.619405
_cell_angle_alpha                 91.641547
_cell_angle_beta                  85.346047
_cell_angle_gamma                 93.36129
_cell_volume                      710.989362066

loop_
_atom_site_label
_atom_site_type_symbol
_atom_type_description
_atom_site_fract_x
_atom_site_fract_y
_atom_site_fract_z
_atom_type_partial_charge
C1    C     C_R   0.544944 0.794380 0.500151 1.029672
C2    C     C_R   0.454665 0.206141 0.504783 0.808540
C3    C     C_R   0.499949 0.507940 0.260906 0.949405
C4    C     C_R   0.425974 0.788232 0.873076 -0.120479
C5    C     C_R   0.382002 0.923409 0.940337 -0.216158
C6    C     C_R   0.373316 0.926105 0.071429 -0.204955
C7    C     C_R   0.409616 0.794132 0.136047 0.605519
C8    C     C_R   0.455192 0.654807 0.069307 -0.040750
C9    C     C_2   0.984898 0.651260 0.625642 0.673767
C10   C     C_R   0.461390 0.652433 0.936731 0.017882
C11   C     C_R   0.506694 0.514263 0.870909 -0.035219
C12   C     C_R   0.553566 0.383649 0.930864 -0.193107
C13   C     C_R   0.550137 0.385636 0.059658 -0.219068
C14   C     C_R   0.499174 0.517946 0.128323 -0.080274
C15   C     C_2   0.566876 0.957972 0.500524 -0.510945
C16   C     C_2   0.429014 0.043918 0.511460 0.497572
C17   C     C_R   0.501605 0.501530 0.739005 0.814896
F1    F     F_    0.400605 0.806339 0.263163 -0.675317
F2    F     F_    0.263749 0.984390 0.528142 -0.607278
H1    H     H_    0.589318 0.279035 0.877782 0.145936
H2    H     H_    0.434108 0.792031 0.771126 0.163065
H3    H     H_    0.355306 0.026525 0.890577 0.175449
H4    H     H_    0.339404 0.031654 0.123532 0.167084
H5    H     H_    0.584775 0.282551 0.106388 0.150899
H6    H     H_    0.697656 0.008021 0.488730 0.167327
H7    H     H_    0.013006 0.382541 0.403851 0.200291
H8    H     H_    0.853747 0.676864 0.639791 0.067882
N1    N     N_2   0.950330 0.457950 0.466250 -0.201282
N2    N     N_2   0.049670 0.542050 0.533750 -0.132048
O1    O     O_R   0.389250 0.738570 0.508280 -0.470739
O2    O     O_R   0.678390 0.711630 0.486650 -0.670754
O3    O     O_R   0.355400 0.513470 0.694050 -0.587033
O4    O     O_R   0.644540 0.486530 0.672420 -0.668097
O5    O     O_R   0.321610 0.288370 0.513350 -0.591596
O6    O     O_R   0.610750 0.261430 0.491720 -0.653747
O7    O     O_R   0.355460 0.513470 0.327580 -0.592373
O8    O     O_R   0.644600 0.486530 0.305950 -0.616726
O9    O     O_2   0.083629 0.722329 0.692586 -0.556415
Zn1   Zn    Zn3+2 0.306930 0.517990 0.514440 1.061800
Zn2   Zn    Zn3+2 0.693070 0.482010 0.485560 0.947374

loop_
_geom_bond_atom_site_label_1
_geom_bond_atom_site_label_2
_ccdc_geom_bond_type
C2    O6    A    
C8    C14   A    
C11   C12   A    
C6    C7    A    
C1    C15   S    
C2    C16   S    
H7    N1    S    
C9    N2    S    
C7    F1    S    
C12   H1    S    
O6    Zn2   S    
C7    C8    A    
C13   C14   A    
O2    Zn2   S    
C4    H2    S    
N2    Zn1   S    
C3    C14   S    
C17   O4    A    
C3    O7    A    
C16   F2    S    
C6    H4    S    
C1    O1    A    
O1    Zn1   S    
O8    Zn2   S    
C5    C6    A    
C13   H5    S    
C15   H6    S    
O4    Zn2   S    
C10   C11   A    
N1    Zn2   S    
C4    C10   A    
O5    Zn1   S    
C1    O2    A    
C12   C13   A    
C9    H8    S    
C8    C10   A    
O3    Zn1   S    
C17   O3    A    
N1    N2    D    
C9    O9    D    
C2    O5    A    
O7    Zn1   S    
C11   C17   S    
C5    H3    S    
C15   C16   D    
C3    O8    A    
C4    C5    A    
