data_mof_unit_35657.cif
_audit_creation_date              2012-12-11T15:55:53-0500
_audit_creation_method            fapswitch 2.2
_symmetry_space_group_name_H-M    P1
_symmetry_Int_Tables_number       1
_space_group_crystal_system       triclinic
_cell_length_a                    10.999138
_cell_length_b                    11.04055
_cell_length_c                    18.710496
_cell_angle_alpha                 90.509569
_cell_angle_beta                  90.892681
_cell_angle_gamma                 59.580452
_cell_volume                      1959.11835249

loop_
_atom_site_label
_atom_site_type_symbol
_atom_type_description
_atom_site_fract_x
_atom_site_fract_y
_atom_site_fract_z
_atom_type_partial_charge
C1    C     C_R   0.356446 0.776851 0.398921 0.538848
C2    C     C_R   0.207618 0.393452 0.214071 -0.167038
C3    C     C_R   0.211535 0.413233 0.287942 -0.049562
C4    C     C_R   0.377232 0.347220 0.393114 0.527240
C5    C     C_R   0.891953 0.763504 0.406488 -0.174158
C6    C     C_R   0.936702 0.626351 0.426610 -0.107319
C7    C     C_R   0.036354 0.514576 0.385961 -0.084355
C8    C     C_R   0.094561 0.537756 0.324481 0.050588
C9    C     C_R   0.327697 0.310962 0.327186 -0.022294
C10   C     C_R   0.869977 0.332422 0.182709 0.037915
C11   C     C_R   0.734517 0.379802 0.205048 -0.002742
C12   C     C_R   0.588624 0.091431 0.196402 -0.007183
C13   C     C_R   0.703421 0.394654 0.275136 0.000683
C14   C     C_R   0.947573 0.298868 0.307181 -0.169505
C15   C     C_R   0.977962 0.289774 0.234486 -0.151300
C16   C     C_R   0.770638 0.381974 0.401655 0.539335
C17   C     C_3   0.587932 0.428741 0.179774 -0.279688
C18   C     C_3   0.549058 0.453779 0.259411 -0.269218
C19   C     C_R   0.807655 0.356828 0.328230 0.025144
C20   C     C_R   0.305067 0.929781 0.189795 0.004541
C21   C     C_R   0.432582 0.889679 0.226327 0.002425
C22   C     C_R   0.443192 0.863448 0.299674 0.001236
C23   C     C_R   0.321802 0.278621 0.179016 -0.012557
C24   C     C_R   0.198615 0.932938 0.303679 -0.123455
C25   C     C_R   0.187081 0.964666 0.231209 -0.132717
C26   C     C_3   0.580356 0.768895 0.216275 -0.272329
C27   C     C_3   0.593912 0.752166 0.296405 -0.253671
C28   C     C_R   0.343366 0.771508 0.603734 0.543223
C29   C     C_R   0.331422 0.865399 0.336370 0.009539
C30   C     C_R   0.299473 0.304710 0.807796 0.013849
C31   C     C_R   0.401921 0.189782 0.769613 0.047556
C32   C     C_R   0.413032 0.194806 0.697268 0.028132
C33   C     C_R   0.199415 0.420632 0.694463 -0.163350
C34   C     C_R   0.421544 0.183102 0.294810 -0.145577
C35   C     C_R   0.191462 0.416766 0.769175 -0.167919
C36   C     C_3   0.557652 0.105722 0.781838 -0.274288
C37   C     C_3   0.571454 0.111056 0.702031 -0.269385
C38   C     C_R   0.320494 0.316840 0.659543 0.014246
C39   C     C_R   0.917811 0.288192 0.821133 0.012470
C40   C     C_R   0.368890 0.348504 0.594542 0.540798
C41   C     C_R   0.909337 0.401014 0.783917 0.033823
C42   C     C_R   0.877804 0.418495 0.712440 0.031587
C43   C     C_R   0.874557 0.201358 0.709408 -0.163662
C44   C     C_R   0.908743 0.183004 0.782728 -0.162429
C45   C     C_R   0.437513 0.175598 0.220817 -0.018094
C46   C     C_3   0.819542 0.555145 0.799116 -0.270481
C47   C     C_3   0.788039 0.574866 0.720354 -0.271419
C48   C     C_R   0.848168 0.325812 0.675338 0.016108
C49   C     C_R   0.297558 0.855583 0.822895 0.017255
C50   C     C_R   0.184925 0.866850 0.783014 0.023672
C51   C     C_R   0.190798 0.857904 0.709603 0.029526
C52   C     C_R   0.768239 0.374618 0.608876 0.544295
C53   C     C_R   0.412906 0.851821 0.711970 -0.165022
C54   C     C_R   0.408993 0.855770 0.786412 -0.154676
C55   C     C_3   0.114453 0.782582 0.789107 -0.289260
C56   C     C_R   0.051632 0.678387 0.305500 0.289485
C57   C     C_3   0.120699 0.771787 0.708534 -0.266748
C58   C     C_R   0.310076 0.838919 0.673301 0.019355
C59   C     C_R   0.907264 0.317353 0.109827 0.540657
C60   C     C_R   0.304861 0.258878 0.102228 0.546446
C61   C     C_R   0.277290 0.955402 0.112661 0.540248
C62   C     C_R   0.945940 0.281580 0.897359 0.571846
C63   C     C_R   0.293354 0.285826 0.883998 0.549859
C64   C     C_R   0.874859 0.950259 0.156279 -0.021199
C65   C     C_R   0.275124 0.895321 0.897531 0.552819
C66   C     C_R   0.830020 0.037010 0.216166 -0.151887
C67   C     C_R   0.949249 0.789040 0.346661 -0.043486
C68   C     C_R   0.690903 0.103629 0.236564 -0.148093
C69   C     C_3   0.776020 0.903000 0.996493 -0.007523
C70   C     C_3   0.838918 0.797375 0.935842 -0.360823
C71   C     C_R   0.637552 0.995666 0.138881 -0.069489
C72   C     C_R   0.778576 0.929235 0.117010 0.247859
Cr1   Cr    Cr6+3 0.601740 0.606840 0.505840 0.987063
Cr2   Cr    Cr6+3 0.291500 0.601560 0.495070 1.014862
Cr3   Cr    Cr6+3 0.606780 0.291630 0.499130 0.994921
Cr4   Cr    Cr6+3 0.062440 0.063060 0.008240 0.994400
Cr5   Cr    Cr6+3 0.062950 0.375000 0.998920 1.024603
Cr6   Cr    Cr6+3 0.374550 0.061770 0.992470 0.972583
H1    H     H_    0.504857 0.100631 0.326913 0.142189
H2    H     H_    0.507507 0.388785 0.279518 0.152864
H3    H     H_    0.106649 0.948601 0.331870 0.139020
H4    H     H_    0.086602 0.011182 0.205040 0.137171
H5    H     H_    0.660609 0.790890 0.196920 0.157659
H6    H     H_    0.582583 0.680286 0.188111 0.150615
H7    H     H_    0.616255 0.649311 0.315693 0.178132
H8    H     H_    0.662772 0.788450 0.320702 0.149422
H9    H     H_    0.119279 0.511085 0.665524 0.121081
H10   H     H_    0.106161 0.503404 0.796727 0.122520
H11   H     H_    0.593501 0.998327 0.801751 0.130777
H12   H     H_    0.815300 0.850350 0.438327 0.102892
H13   H     H_    0.599150 0.164343 0.812369 0.141693
H14   H     H_    0.622558 0.171987 0.687680 0.166660
H15   H     H_    0.918326 0.896030 0.334949 0.116947
H16   H     H_    0.615881 0.006542 0.675886 0.123644
H17   H     H_    0.857904 0.124738 0.681353 0.121246
H18   H     H_    0.918443 0.092650 0.810017 0.136013
H19   H     H_    0.879644 0.604651 0.818713 0.125139
H20   H     H_    0.724883 0.581144 0.831113 0.152407
H21   H     H_    0.675249 0.613954 0.708126 0.162900
H22   H     H_    0.834103 0.631717 0.693610 0.126296
H23   H     H_    0.896500 0.606524 0.474813 0.139716
H24   H     H_    0.502645 0.845727 0.685488 0.121629
H25   H     H_    0.493982 0.857418 0.815399 0.129510
H26   H     H_    0.005250 0.845081 0.809394 0.128182
H27   H     H_    0.984574 0.895548 0.141567 0.190833
H28   H     H_    0.181934 0.680683 0.816706 0.139997
H29   H     H_    0.193393 0.663662 0.689780 0.169413
H30   H     H_    0.015195 0.826861 0.681982 0.125859
H31   H     H_    0.900939 0.051776 0.249998 0.116146
H32   H     H_    0.664876 0.164258 0.285211 0.143607
H33   H     H_    0.571010 0.962768 0.113546 0.173535
H34   H     H_    0.074248 0.409287 0.405142 0.098232
H35   H     H_    0.115563 0.469388 0.184074 0.178398
H36   H     H_    0.807828 0.983400 0.989681 0.138542
H37   H     H_    0.659130 0.954413 0.992445 0.153799
H38   H     H_    0.807587 0.716721 0.940789 0.168643
H39   H     H_    0.799951 0.851745 0.883720 0.064650
H40   H     H_    0.955785 0.745040 0.937604 0.164266
H41   H     H_    0.202587 0.629635 0.237738 0.333446
H42   H     H_    0.032511 0.259350 0.346153 0.106923
H43   H     H_    0.086213 0.244348 0.218385 0.115209
H44   H     H_    0.577236 0.342645 0.155378 0.169257
H45   H     H_    0.540625 0.524746 0.146538 0.142549
H46   H     H_    0.481886 0.566512 0.272896 0.142455
O1    O     O_R   0.748670 0.497520 0.427970 -0.535304
O2    O     O_R   0.417470 0.174910 0.067830 -0.545053
O3    O     O_R   0.375160 0.946380 0.070880 -0.524988
O4    O     O_R   0.476470 0.723930 0.429450 -0.509489
O5    O     O_R   0.160500 0.919670 0.926690 -0.515764
O6    O     O_R   0.933140 0.190380 0.936050 -0.510868
O7    O     O_R   0.909010 0.403210 0.925030 -0.523421
O8    O     O_R   0.179590 0.361290 0.918480 -0.513162
O9    O     O_R   0.391360 0.170840 0.907510 -0.525797
O10   O     O_R   0.350950 0.942600 0.922260 -0.509167
O11   O     O_3   0.166650 0.166610 0.999880 -0.306260
O12   O     O_R   0.300170 0.471020 0.567120 -0.513677
O13   O     O_R   0.264730 0.744140 0.416740 -0.505091
O14   O     O_R   0.309440 0.472410 0.418220 -0.487603
O15   O     O_R   0.501630 0.260530 0.414310 -0.537278
O16   O     O_R   0.727920 0.305730 0.428950 -0.504288
O17   O     O_R   0.738670 0.496020 0.588600 -0.529186
O18   O     O_R   0.467190 0.722540 0.578350 -0.509800
O19   O     O_R   0.254720 0.742640 0.577370 -0.524999
O20   O     O_3   0.826511 0.831852 0.062234 -0.567073
O21   O     O_3   0.111690 0.712661 0.250916 -0.730125
O22   O     O_R   0.491630 0.259030 0.574940 -0.525261
O23   O     O_R   0.718640 0.304340 0.577850 -0.509031
O24   O     O_3   0.500010 0.500010 0.500020 -0.241889
O25   O     O_R   0.186620 0.923750 0.087000 -0.509740
O26   O     O_R   0.957350 0.194160 0.084660 -0.527946
O27   O     O_R   0.935120 0.407280 0.085350 -0.503553
O28   O     O_R   0.203800 0.365060 0.067090 -0.483410

loop_
_geom_bond_atom_site_label_1
_geom_bond_atom_site_label_2
_ccdc_geom_bond_type
C36   H11   S    
C66   C68   A    
Cr2   O19   S    
C26   H5    S    
C23   C45   A    
C22   C29   A    
C41   C42   A    
C62   O6    A    
C1    O4    A    
C5    C67   A    
C8    C56   A    
C7    C8    A    
C39   C41   A    
Cr1   O17   S    
C53   C54   A    
C69   O20   S    
Cr2   O14   S    
C26   C27   S    
C49   C65   S    
C13   C18   S    
C3    C9    A    
C63   O9    A    
Cr2   O24   S    
C36   C37   S    
Cr3   O16   S    
Cr5   O7    S    
C30   C31   A    
C2    H35   S    
C20   C25   A    
C70   H39   S    
C49   C54   A    
C25   H4    S    
C56   O21   S    
C47   H21   S    
C7    H34   S    
C52   O17   A    
C60   O28   A    
C6    H23   S    
C51   C58   A    
C20   C61   S    
C27   H7    S    
C24   C29   A    
Cr4   O6    S    
C17   H45   S    
C11   C17   S    
C71   H33   S    
C43   H17   S    
C41   C46   S    
C51   C57   S    
C32   C38   A    
Cr6   O11   S    
C65   O10   A    
C46   H20   S    
C16   O1    A    
C21   C22   A    
Cr5   O27   S    
C16   O16   A    
Cr6   O3    S    
C14   C19   A    
Cr5   O28   S    
Cr4   O11   S    
C50   C51   A    
Cr1   O18   S    
Cr3   O22   S    
C23   C60   S    
Cr2   O13   S    
C69   H36   S    
C13   C19   A    
Cr1   O24   S    
C54   H25   S    
C64   H27   S    
C24   C25   A    
C3    C8    S    
C28   O19   A    
C42   C48   A    
C55   H28   S    
Cr3   O23   S    
C63   O8    A    
C59   O27   A    
C55   H26   S    
C47   H22   S    
Cr2   O12   S    
Cr5   O8    S    
C64   C66   A    
C27   H8    S    
C43   C44   A    
C44   H18   S    
C34   H1    S    
C12   C68   A    
C35   H10   S    
C31   C32   A    
C24   H3    S    
Cr4   O26   S    
C53   H24   S    
Cr4   O5    S    
C1    C29   S    
C17   C18   S    
C61   O3    A    
C34   C45   A    
C68   H32   S    
C32   C37   S    
Cr6   O10   S    
C6    C7    A    
C30   C35   A    
C36   H13   S    
C57   H29   S    
C12   C71   A    
C52   O23   A    
C14   H42   S    
C22   C27   S    
C55   C57   S    
C9    C34   A    
C28   O18   A    
C56   C67   A    
C1    O13   A    
C43   C48   A    
C59   O26   A    
C72   O20   S    
C39   C62   S    
C46   C47   S    
C69   H37   S    
C26   H6    S    
C15   H43   S    
C37   H14   S    
C31   C36   S    
C62   O7    A    
C46   H19   S    
C5    H12   S    
C12   C45   S    
C65   O5    A    
C53   C58   A    
C39   C44   A    
C28   C58   S    
Cr3   O24   S    
H41   O21   S    
Cr1   O4    S    
Cr5   O11   S    
C50   C55   S    
C40   O22   A    
C10   C15   A    
C70   H38   S    
C60   O2    A    
C2    C3    A    
C33   H9    S    
C71   C72   A    
Cr3   O15   S    
C4    O15   A    
C38   C40   S    
C11   C13   A    
C5    C6    A    
Cr4   O25   S    
C70   H40   S    
C16   C19   S    
Cr1   O1    S    
C21   C26   S    
C33   C35   A    
C37   H16   S    
C10   C59   S    
C42   C47   S    
C64   C72   A    
C66   H31   S    
C69   C70   S    
Cr6   O9    S    
C10   C11   A    
C4    O14   A    
C17   H44   S    
C48   C52   S    
C57   H30   S    
C20   C21   A    
C18   H2    S    
C49   C50   A    
C2    C23   A    
C67   H15   S    
C14   C15   A    
C33   C38   A    
C40   O12   A    
C4    C9    S    
C30   C63   S    
C61   O25   A    
C18   H46   S    
Cr6   O2    S    
