data_mof_unit_10991.cif
_audit_creation_date              2012-10-26T18:40:23-0400
_audit_creation_method            fapswitch 2.2
_symmetry_space_group_name_H-M    P1
_symmetry_Int_Tables_number       1
_space_group_crystal_system       triclinic
_cell_length_a                    8.769999
_cell_length_b                    15.138327
_cell_length_c                    13.926697
_cell_angle_alpha                 90.819257
_cell_angle_beta                  98.354357
_cell_angle_gamma                 91.490304
_cell_volume                      1828.40703491

loop_
_atom_site_label
_atom_site_type_symbol
_atom_type_description
_atom_site_fract_x
_atom_site_fract_y
_atom_site_fract_z
_atom_type_partial_charge
C1    C     C_R   0.498439 0.330488 0.499297 0.556461
C2    C     C_R   0.555264 0.569319 0.901083 0.383916
C3    C     C_R   0.508742 0.494909 0.055297 -0.019349
C4    C     C_R   0.505718 0.493620 0.945781 -0.019869
C5    C     C_R   0.204065 0.499286 0.475181 0.566778
C6    C     C_R   0.795960 0.499778 0.524843 0.612935
C7    C     C_2   0.038683 0.496982 0.461603 0.350838
C8    C     C_2   0.961445 0.500445 0.538565 0.353181
C9    C     C_R   0.378767 0.094085 0.528513 -0.093688
C10   C     C_R   0.490048 0.909345 0.418273 -0.106061
C11   C     C_R   0.371349 0.185963 0.525868 -0.064237
C12   C     C_R   0.492595 0.670509 0.499603 0.541327
C13   C     C_R   0.476560 0.817374 0.412271 -0.054646
C14   C     C_R   0.496778 0.234600 0.498371 -0.024162
C15   C     C_R   0.483390 0.768465 0.499320 -0.035555
C16   C     C_R   0.626300 0.191902 0.474009 0.423222
C17   C     C_R   0.487536 0.814844 0.588598 0.410423
C18   C     C_R   0.634717 0.099549 0.478487 0.031455
C19   C     C_R   0.502675 0.907425 0.593951 0.023777
C20   C     C_R   0.508917 0.051030 0.506242 -0.118366
C21   C     C_R   0.505279 0.954130 0.507452 -0.118537
C22   C     C_2   0.231238 0.229883 0.549605 0.308983
C23   C     C_R   0.640214 0.522751 0.122304 -0.028857
C24   C     C_2   0.444893 0.776510 0.313519 0.294824
C25   C     C_2   0.774957 0.054148 0.456973 0.318296
C26   C     C_2   0.519357 0.955228 0.689514 0.321081
C27   C     C_2   0.792408 0.540120 0.090355 0.382292
C28   C     C_2   0.413582 0.333272 0.925276 0.323362
C29   C     C_2   0.250137 0.414681 0.229735 0.380883
C30   C     C_2   0.668813 0.636566 0.765250 0.409436
C31   C     C_R   0.451538 0.419883 0.884536 -0.021037
C32   C     C_R   0.628080 0.529951 0.222615 0.094309
C33   C     C_R   0.441007 0.427696 0.782319 0.090824
C34   C     C_R   0.376535 0.465819 0.195024 0.142281
C35   C     C_R   0.567482 0.568220 0.800996 0.164010
C36   C     C_R   0.374801 0.470878 0.093733 0.374981
Cu1   Cu    Cu3+1 0.500000 0.499990 0.596430 1.052261
Cu2   Cu    Cu3+1 0.500000 0.500010 0.403570 1.022805
F1    F     F_    0.965722 0.490107 0.368478 -0.609299
F2    F     F_    0.034647 0.505906 0.631833 -0.609453
F3    F     F_    0.746211 0.241337 0.449674 -0.548883
F4    F     F_    0.473560 0.770108 0.670633 -0.539084
F5    F     F_    0.244169 0.447935 0.032373 -0.573132
F6    F     F_    0.598732 0.643012 0.956304 -0.544434
H1    H     H_    0.282513 0.055089 0.547665 0.198169
H2    H     H_    0.443173 0.321288 0.002205 0.133153
H3    H     H_    0.273760 0.372806 0.292065 0.120860
H4    H     H_    0.721313 0.625129 0.701218 0.138174
H5    H     H_    0.484059 0.947313 0.352384 0.195992
H6    H     H_    0.724960 0.555945 0.272555 0.234414
H7    H     H_    0.392664 0.373285 0.735620 0.190827
H8    H     H_    0.217767 0.300366 0.540190 0.115285
H9    H     H_    0.368997 0.718708 0.299122 0.161960
H10   H     H_    0.788996 0.984410 0.471454 0.105914
H11   H     H_    0.546289 0.025606 0.694469 0.112694
H12   H     H_    0.812087 0.520643 0.018044 0.139793
N1    N     N_R   0.500000 0.500020 0.258690 -0.323852
N2    N     N_R   0.500000 0.499980 0.741310 -0.309378
O1    O     O_R   0.500010 0.371450 0.581430 -0.532446
O2    O     O_2   0.499771 0.809005 0.245934 -0.424975
O3    O     O_2   0.876896 0.093727 0.422684 -0.372265
O4    O     O_2   0.504329 0.916961 0.764292 -0.324882
O5    O     O_2   0.898704 0.575643 0.144897 -0.385415
O6    O     O_2   0.350449 0.273500 0.873089 -0.443448
O7    O     O_2   0.117931 0.417072 0.187948 -0.363034
O8    O     O_2   0.700947 0.706453 0.809362 -0.325808
O9    O     O_R   0.499990 0.628550 0.418570 -0.538609
O10   O     O_R   0.500010 0.371460 0.418560 -0.494885
O11   O     O_R   0.499990 0.628540 0.581440 -0.464693
O12   O     O_R   0.274840 0.499990 0.562640 -0.461440
O13   O     O_R   0.725160 0.500010 0.437360 -0.470242
O14   O     O_R   0.274840 0.500000 0.399770 -0.505863
O15   O     O_R   0.725160 0.500000 0.600230 -0.503711
O16   O     O_2   0.128265 0.187657 0.579966 -0.408585

loop_
_geom_bond_atom_site_label_1
_geom_bond_atom_site_label_2
_ccdc_geom_bond_type
C2    C35   A    
C25   O3    D    
C34   N1    A    
C2    C4    A    
C12   O11   A    
C31   C33   A    
C9    H1    S    
C5    O12   A    
C1    C14   S    
Cu1   O11   S    
C33   H7    S    
Cu2   N1    S    
C5    C7    S    
C11   C22   S    
C3    C23   A    
Cu1   N2    S    
C12   C15   S    
C33   N2    A    
C24   O2    D    
C28   H2    S    
C26   H11   S    
C20   C21   S    
C13   C15   A    
C26   O4    D    
C7    C8    D    
Cu2   O14   S    
C30   O8    D    
Cu1   O12   S    
C23   C32   A    
C3    C36   A    
C9    C11   A    
C32   H6    S    
Cu1   O1    S    
C18   C25   S    
C27   O5    D    
C30   C35   S    
C29   H3    S    
C35   N2    A    
C29   O7    D    
C9    C20   A    
C32   N1    A    
C22   H8    S    
C17   C19   A    
Cu1   Cu2   S    
Cu2   O10   S    
C5    O14   A    
C23   C27   S    
C1    O1    A    
C10   C21   A    
C6    O13   A    
C11   C14   A    
C14   C16   A    
C4    C31   A    
C25   H10   S    
C22   O16   D    
C6    O15   A    
C3    C4    S    
C28   O6    D    
C1    O10   A    
Cu2   O9    S    
C34   C36   A    
C18   C20   A    
C16   C18   A    
Cu1   O15   S    
C30   H4    S    
C15   C17   A    
C19   C26   S    
C7    F1    S    
C27   H12   S    
C36   F5    S    
C6    C8    S    
C12   O9    A    
C8    F2    S    
C19   C21   A    
C24   H9    S    
C17   F4    S    
C10   H5    S    
C29   C34   S    
C28   C31   S    
Cu2   O13   S    
C13   C24   S    
C2    F6    S    
C16   F3    S    
C10   C13   A    
