data_mof_unit_43094.cif
_audit_creation_date              2012-12-10T17:18:15-0500
_audit_creation_method            fapswitch 2.2
_symmetry_space_group_name_H-M    P1
_symmetry_Int_Tables_number       1
_space_group_crystal_system       triclinic
_cell_length_a                    10.179049
_cell_length_b                    10.809741
_cell_length_c                    14.929558
_cell_angle_alpha                 89.808021
_cell_angle_beta                  81.085042
_cell_angle_gamma                 95.836428
_cell_volume                      1614.17917776

loop_
_atom_site_label
_atom_site_type_symbol
_atom_type_description
_atom_site_fract_x
_atom_site_fract_y
_atom_site_fract_z
_atom_type_partial_charge
C1    C     C_R   0.557020 0.732250 0.491319 0.921502
C2    C     C_R   0.442980 0.267751 0.508683 0.921468
C3    C     C_R   0.621245 0.712712 0.946329 0.082133
C4    C     C_R   0.378824 0.287270 0.053654 0.082256
C5    C     C_2   0.592252 0.864307 0.492395 -0.373600
C6    C     C_2   0.407741 0.135694 0.507621 -0.373505
C7    C     C_2   0.503254 0.940943 0.475393 0.222284
C8    C     C_2   0.496733 0.059055 0.524630 0.222343
C9    C     C_2   0.927789 0.510442 0.505702 -0.024488
C10   C     C_2   0.072212 0.489560 0.494296 -0.024435
C11   C     C_R   0.501885 0.504945 0.672571 0.881812
C12   C     C_R   0.498115 0.495053 0.327430 0.881860
C13   C     C_R   0.408711 0.404119 0.194218 0.165213
C14   C     C_R   0.591367 0.595808 0.805781 0.165204
C15   C     C_R   0.496104 0.491144 0.231924 -0.083560
C16   C     C_R   0.503897 0.508851 0.768079 -0.083547
C17   C     C_R   0.579153 0.581764 0.179092 -0.275603
C18   C     C_R   0.420773 0.418288 0.820919 -0.275650
C19   C     C_R   0.568452 0.594745 0.088444 -0.023792
C20   C     C_R   0.431489 0.405288 0.911562 -0.023833
C21   C     C_R   0.498997 0.497111 0.046737 -0.077196
C22   C     C_R   0.500982 0.502902 0.953266 -0.077167
C23   C     C_R   0.427629 0.394066 0.098915 0.064030
C24   C     C_R   0.572411 0.605912 0.901080 0.064076
C25   C     C_R   0.622242 0.705048 0.040061 0.460609
C26   C     C_R   0.377704 0.294983 0.959940 0.460672
H1    H     H_    0.642988 0.648793 0.211064 0.186103
H2    H     H_    0.356864 0.351315 0.788959 0.185996
H3    H     H_    0.323519 0.105532 0.473714 0.130612
H4    H     H_    0.676468 0.894467 0.526309 0.130617
H5    H     H_    0.109955 0.419608 0.448329 0.137100
H6    H     H_    0.890047 0.580396 0.551667 0.137132
N1    N     N_2   0.842700 0.448880 0.462930 -0.056029
N2    N     N_2   0.157300 0.551120 0.537070 -0.056028
O1    O     O_R   0.431060 0.692470 0.507460 -0.589112
O2    O     O_R   0.568940 0.307530 0.492540 -0.589120
O3    O     O_R   0.651120 0.659650 0.483670 -0.617899
O4    O     O_R   0.348880 0.340350 0.516330 -0.617884
O5    O     O_R   0.389960 0.516440 0.644050 -0.608301
O6    O     O_R   0.610040 0.483560 0.355950 -0.608290
O7    O     O_R   0.610030 0.483620 0.620260 -0.620442
O8    O     O_R   0.389970 0.516380 0.379740 -0.620453
Zn1   Zn    Zn3+2 0.353060 0.521920 0.515880 0.946313
Zn2   Zn    Zn3+2 0.646940 0.478080 0.484120 0.946308
C27   C     C_3   0.287996 0.338376 0.254764 -0.922281
H7    H     H_    0.213479 0.291372 0.216280 0.252770
H8    H     H_    0.319676 0.271199 0.301571 0.227759
H9    H     H_    0.231937 0.407679 0.294661 0.251648
C28   C     C_3   0.712201 0.661380 0.745251 -0.922253
H10   H     H_    0.680672 0.728581 0.698394 0.227796
H11   H     H_    0.786732 0.708319 0.783755 0.252752
H12   H     H_    0.768184 0.591972 0.705414 0.251667
O9    O     O_3   0.678648 0.805824 0.083414 -0.599672
C29   C     C_3   0.576115 0.871050 0.130575 0.083442
H13   H     H_    0.523925 0.818064 0.191906 0.141632
H14   H     H_    0.500115 0.890155 0.087504 0.128287
C30   C     C_3   0.638129 0.994664 0.161051 -0.805140
H15   H     H_    0.685577 0.052956 0.101031 0.257080
H16   H     H_    0.559944 0.044885 0.201255 0.200312
H17   H     H_    0.714824 0.978539 0.204021 0.263768
O10   O     O_3   0.321300 0.194199 0.916593 -0.599737
C31   C     C_3   0.423825 0.129004 0.869385 0.083779
H18   H     H_    0.500484 0.110720 0.912182 0.128072
H19   H     H_    0.475216 0.181626 0.807659 0.141714
C32   C     C_3   0.361965 0.004792 0.839746 -0.804977
H20   H     H_    0.284392 0.020043 0.797252 0.263933
H21   H     H_    0.440048 0.954739 0.799274 0.200359
H22   H     H_    0.315610 0.946763 0.900176 0.256613
C33   C     C_3   0.657340 0.839681 0.900463 -0.855303
H23   H     H_    0.607557 0.911743 0.941481 0.236676
H24   H     H_    0.767015 0.865177 0.892344 0.258310
H25   H     H_    0.622013 0.844851 0.834282 0.234398
C34   C     C_3   0.342972 0.160245 0.099463 -0.855252
H26   H     H_    0.233310 0.134621 0.107662 0.258283
H27   H     H_    0.392795 0.088288 0.058346 0.236650
H28   H     H_    0.378450 0.155069 0.165594 0.234402
C35   C     C_3   0.589239 0.092942 0.594038 -0.872270
H29   H     H_    0.582126 0.015248 0.643943 0.214112
H30   H     H_    0.694078 0.112073 0.559338 0.244320
H31   H     H_    0.561550 0.175269 0.634229 0.236309
C36   C     C_3   0.410746 0.907057 0.405984 -0.872200
H32   H     H_    0.417820 0.984769 0.356096 0.214099
H33   H     H_    0.438470 0.824760 0.365768 0.236411
H34   H     H_    0.305907 0.887886 0.440687 0.244324
C37   C     C_3   0.117798 0.647034 0.600321 -0.634703
H35   H     H_    0.206086 0.686687 0.629713 0.242770
H36   H     H_    0.080243 0.723591 0.564875 0.182011
H37   H     H_    0.041164 0.607190 0.657021 0.185750
C38   C     C_3   0.882200 0.352964 0.399681 -0.634657
H38   H     H_    0.793913 0.313311 0.370288 0.242776
H39   H     H_    0.958836 0.392805 0.342981 0.185746
H40   H     H_    0.919753 0.276407 0.435128 0.182006

loop_
_geom_bond_atom_site_label_1
_geom_bond_atom_site_label_2
_ccdc_geom_bond_type
C34   H26   S    
C36   H32   S    
C7    C8    S    
C37   H35   S    
C1    C5    S    
C19   C21   A    
C26   O10   S    
C25   O9    S    
C33   H23   S    
C37   H37   S    
C14   C28   S    
C13   C23   A    
C14   C24   A    
C33   H24   S    
C12   O8    A    
C9    H6    S    
C10   H5    S    
C32   H21   S    
C31   H19   S    
C38   H39   S    
O1    Zn1   S    
C9    C10   S    
C18   C20   A    
C1    O3    A    
C28   H12   S    
C27   H8    S    
C21   C22   A    
C9    N1    D    
C34   H27   S    
C3    C24   A    
C2    C6    S    
C36   H33   S    
C35   H30   S    
O5    Zn1   S    
C29   H14   S    
C37   H36   S    
C17   H1    S    
C3    C25   A    
C18   H2    S    
C5    C7    D    
C4    C23   A    
C30   H17   S    
C6    C8    D    
C27   H9    S    
C28   H11   S    
C35   H29   S    
N2    C37   S    
C12   O6    A    
C33   H25   S    
C31   H18   S    
N1    C38   S    
C11   C16   S    
C2    O4    A    
C12   C15   S    
C32   H22   S    
C10   N2    D    
C38   H40   S    
C11   O5    A    
C4    C34   S    
C7    C36   S    
C20   C22   A    
C28   H10   S    
C21   C23   A    
C8    C35   S    
O7    Zn2   S    
C14   C16   A    
O2    Zn2   S    
O8    Zn1   S    
C36   H34   S    
C1    O1    A    
C5    H4    S    
C35   H31   S    
C2    O2    A    
C15   C17   A    
C29   H13   S    
C31   C32   S    
C3    C33   S    
N1    Zn2   S    
N2    Zn1   S    
C4    C26   A    
O9    C29   S    
O3    Zn2   S    
C13   C15   A    
O4    Zn1   S    
C13   C27   S    
C30   H15   S    
C20   C26   A    
C17   C19   A    
C11   O7    A    
C22   C24   A    
O10   C31   S    
C19   C25   A    
C30   H16   S    
C27   H7    S    
O6    Zn2   S    
C6    H3    S    
C34   H28   S    
C16   C18   A    
C32   H20   S    
C38   H38   S    
C29   C30   S    
