data_mof_unit_62933.cif
_audit_creation_date              2013-03-05T16:14:12-0500
_audit_creation_method            fapswitch 2.2
_symmetry_space_group_name_H-M    P1
_symmetry_Int_Tables_number       1
_space_group_crystal_system       triclinic
_cell_length_a                    44.98668
_cell_length_b                    39.026091
_cell_length_c                    21.907743
_cell_angle_alpha                 90.489832
_cell_angle_beta                  60.239021
_cell_angle_gamma                 90.045171
_cell_volume                      33387.8871291

loop_
_atom_site_label
_atom_site_type_symbol
_atom_site_description
_atom_site_fract_x
_atom_site_fract_y
_atom_site_fract_z
_atom_type_partial_charge
O1    O     O_R   0.049910 0.528880 0.450120 -0.592650
O2    O     O_R   0.950090 0.528880 0.549880 -0.589018
O3    O     O_R   0.549910 0.028880 0.450120 -0.592610
O4    O     O_R   0.450090 0.028880 0.549880 -0.588977
O5    O     O_R   0.049900 0.471110 0.450110 -0.588015
O6    O     O_R   0.950100 0.471110 0.549890 -0.592020
O7    O     O_R   0.549900 0.971110 0.450110 -0.588163
O8    O     O_R   0.450100 0.971110 0.549890 -0.592145
C1    C     C_R   0.066243 0.499941 0.433673 0.788030
C2    C     C_R   0.933755 0.500055 0.566345 0.787171
C3    C     C_R   0.566244 0.999941 0.433674 0.788087
C4    C     C_R   0.433755 0.000055 0.566345 0.787285
O9    O     O_R   0.999990 0.528880 0.589040 -0.586966
O10   O     O_R   0.000010 0.528880 0.410960 -0.581075
O11   O     O_R   0.499990 0.028880 0.589040 -0.586923
O12   O     O_R   0.500010 0.028880 0.410960 -0.580990
O13   O     O_R   0.999990 0.471110 0.589030 -0.578299
O14   O     O_R   0.000010 0.471110 0.410970 -0.585073
O15   O     O_R   0.499990 0.971110 0.589030 -0.578492
O16   O     O_R   0.500010 0.971110 0.410970 -0.585399
C5    C     C_R   0.998946 0.500253 0.618626 0.855050
C6    C     C_R   0.001090 0.499746 0.381333 0.853934
C7    C     C_R   0.498943 0.000253 0.618629 0.855039
C8    C     C_R   0.501090 0.999746 0.381333 0.854097
Cu1   Cu    Cu3+1 1.000000 0.534200 0.500000 0.943979
Cu2   Cu    Cu3+1 0.500000 0.034200 0.500000 0.943922
Cu3   Cu    Cu3+1 1.000000 0.465790 0.500000 0.949314
Cu4   Cu    Cu3+1 0.500000 0.965790 0.500000 0.948231
C9    C     C_2   0.977308 0.481246 0.806180 -0.151655
C10   C     C_2   0.021912 0.519583 0.194524 -0.162883
C11   C     C_2   0.477319 0.981225 0.806172 -0.153196
C12   C     C_2   0.521914 0.019579 0.194522 -0.163467
C13   C     C_2   0.001938 0.496246 0.814277 -0.320709
C14   C     C_2   0.998057 0.503336 0.185699 -0.319687
C15   C     C_2   0.501938 0.996245 0.814278 -0.319636
C16   C     C_2   0.498058 0.003333 0.185698 -0.320332
H1    H     H_    0.955326 0.469773 0.850751 0.163410
H2    H     H_    0.043178 0.532259 0.150570 0.160622
H3    H     H_    0.455348 0.969733 0.850735 0.162093
H4    H     H_    0.543180 0.032255 0.150567 0.160740
H5    H     H_    0.025619 0.504263 0.768659 0.155886
H6    H     H_    0.974802 0.494116 0.230825 0.155470
H7    H     H_    0.525612 0.004278 0.768664 0.156031
H8    H     H_    0.474803 0.994113 0.230824 0.155883
C17   C     C_2   0.980645 0.477807 0.736006 -0.153205
C18   C     C_2   0.018477 0.522887 0.264798 -0.165306
C19   C     C_2   0.480656 0.977791 0.735996 -0.153349
C20   C     C_2   0.518478 0.022884 0.264796 -0.165236
C21   C     C_2   0.996649 0.501841 0.687163 -0.315425
C22   C     C_2   0.003546 0.498198 0.312632 -0.310982
C23   C     C_2   0.496641 0.001838 0.687172 -0.315007
C24   C     C_2   0.503546 0.998197 0.312632 -0.311362
H9    H     H_    0.968185 0.456396 0.725929 0.161475
H10   H     H_    0.029949 0.544878 0.275783 0.161238
H11   H     H_    0.468213 0.956371 0.725901 0.160966
H12   H     H_    0.529951 0.044876 0.275779 0.161244
H13   H     H_    0.005741 0.525145 0.699879 0.149505
H14   H     H_    0.995397 0.474528 0.299009 0.156430
H15   H     H_    0.505717 0.025149 0.699907 0.149479
H16   H     H_    0.495396 0.974527 0.299011 0.155999
C25   C     C_R   0.377706 0.499497 0.068716 -0.173434
C26   C     C_R   0.622328 0.500038 0.931189 -0.173521
C27   C     C_R   0.877705 0.999457 0.068724 -0.172142
C28   C     C_R   0.122330 0.999997 0.931180 -0.172201
H17   H     H_    0.390951 0.497696 0.011874 0.163196
H18   H     H_    0.609125 0.498368 0.987979 0.163139
H19   H     H_    0.890948 0.997635 0.011884 0.163361
H20   H     H_    0.109128 0.998304 0.987967 0.163307
C29   C     C_R   0.342051 0.500368 0.105209 -0.223949
C30   C     C_R   0.657974 0.501114 0.894668 -0.224003
C31   C     C_R   0.842050 0.000327 0.105218 -0.223865
C32   C     C_R   0.157976 0.001072 0.894657 -0.223922
H21   H     H_    0.328550 0.498786 0.075837 0.150861
H22   H     H_    0.671519 0.499796 0.923948 0.150800
H23   H     H_    0.828547 0.998723 0.075850 0.150907
H24   H     H_    0.171523 0.999730 0.923932 0.150855
C33   C     C_R   0.323833 0.502594 0.178879 -0.023137
C34   C     C_R   0.676136 0.503183 0.821060 -0.023165
C35   C     C_R   0.823833 0.002580 0.178884 -0.023225
C36   C     C_R   0.176136 0.003170 0.821053 -0.023252
C37   C     C_R   0.341951 0.504475 0.216355 0.351293
C38   C     C_R   0.657969 0.504714 0.783691 0.351207
C39   C     C_R   0.841952 0.004489 0.216356 0.351518
C40   C     C_R   0.157968 0.004730 0.783690 0.351430
C41   C     C_R   0.377866 0.503011 0.178931 -0.237721
C42   C     C_R   0.622077 0.503062 0.821122 -0.237655
C43   C     C_R   0.877867 0.003028 0.178931 -0.238462
C44   C     C_R   0.122076 0.003081 0.821122 -0.238432
H25   H     H_    0.391714 0.504603 0.207569 0.194393
H26   H     H_    0.608193 0.504387 0.792561 0.194536
H27   H     H_    0.891716 0.004642 0.207565 0.194043
H28   H     H_    0.108191 0.004430 0.792567 0.194175
C45   C     C_R   0.395962 0.500671 0.105189 -0.096945
C46   C     C_R   0.604034 0.500860 0.894798 -0.097077
C47   C     C_R   0.895961 0.000662 0.105191 -0.097036
C48   C     C_R   0.104034 0.000851 0.894795 -0.097106
C49   C     C_R   0.268046 0.476698 0.266091 -0.092256
C50   C     C_R   0.732139 0.477214 0.733207 -0.092753
C51   C     C_R   0.768044 0.976702 0.266134 -0.092228
C52   C     C_R   0.232141 0.977219 0.733162 -0.092714
H29   H     H_    0.281648 0.457926 0.279239 0.141871
H30   H     H_    0.718691 0.458261 0.719721 0.141598
H31   H     H_    0.781645 0.957939 0.279306 0.141912
H32   H     H_    0.218694 0.958276 0.719650 0.141641
C53   C     C_R   0.232337 0.476033 0.300809 -0.165444
C54   C     C_R   0.767849 0.476576 0.698459 -0.165888
C55   C     C_R   0.732335 0.976039 0.300853 -0.165383
C56   C     C_R   0.267851 0.976583 0.698412 -0.165828
H33   H     H_    0.218981 0.457046 0.341068 0.134315
H34   H     H_    0.781357 0.457414 0.657858 0.134015
H35   H     H_    0.718977 0.957063 0.341136 0.134381
H36   H     H_    0.281361 0.957432 0.657786 0.134077
C57   C     C_R   0.214101 0.500128 0.284716 0.091362
C58   C     C_R   0.785893 0.500880 0.715021 0.091208
C59   C     C_R   0.714100 0.000122 0.284728 0.091331
C60   C     C_R   0.285894 0.000875 0.715008 0.091181
C61   C     C_R   0.232306 0.524633 0.232666 -0.175636
C62   C     C_R   0.767495 0.525614 0.767492 -0.175599
C63   C     C_R   0.732307 0.024613 0.232646 -0.175728
C64   C     C_R   0.267493 0.025593 0.767512 -0.175672
H37   H     H_    0.218939 0.543148 0.218396 0.130430
H38   H     H_    0.780719 0.544306 0.782090 0.130866
H39   H     H_    0.718942 0.043117 0.218353 0.130413
H40   H     H_    0.280716 0.044275 0.782134 0.130860
C65   C     C_R   0.268003 0.525308 0.198066 -0.150940
C66   C     C_R   0.731785 0.526252 0.802156 -0.150553
C67   C     C_R   0.768004 0.025285 0.198044 -0.150899
C68   C     C_R   0.231783 0.026228 0.802178 -0.150515
H41   H     H_    0.281547 0.544548 0.158462 0.135864
H42   H     H_    0.718078 0.545638 0.842152 0.136026
H43   H     H_    0.781550 0.044514 0.158415 0.135986
H44   H     H_    0.218075 0.045603 0.842201 0.136150
C69   C     C_R   0.286080 0.501602 0.215118 0.140632
C70   C     C_R   0.713901 0.502296 0.784701 0.140757
C71   C     C_R   0.786079 0.001591 0.215127 0.140597
C72   C     C_R   0.213901 0.002285 0.784691 0.140723
C73   C     C_R   0.158159 0.468942 0.338024 -0.168311
C74   C     C_R   0.841947 0.469539 0.661637 -0.169082
C75   C     C_R   0.658158 0.968938 0.338063 -0.168344
C76   C     C_R   0.341948 0.969535 0.661596 -0.169091
H45   H     H_    0.171688 0.444708 0.321348 0.128396
H46   H     H_    0.828508 0.445382 0.678040 0.127951
H47   H     H_    0.671686 0.944703 0.321412 0.128332
H48   H     H_    0.328510 0.945376 0.677971 0.127895
C77   C     C_R   0.122415 0.468891 0.374183 -0.175915
C78   C     C_R   0.877683 0.469336 0.625558 -0.180029
C79   C     C_R   0.622414 0.968889 0.374217 -0.176094
C80   C     C_R   0.377684 0.969333 0.625521 -0.180152
H49   H     H_    0.109212 0.444574 0.385083 0.154432
H50   H     H_    0.890960 0.444972 0.614451 0.153404
H51   H     H_    0.609210 0.944571 0.385140 0.154265
H52   H     H_    0.390962 0.944969 0.614391 0.153248
C81   C     C_R   0.104032 0.499885 0.395588 -0.033750
C82   C     C_R   0.895964 0.500225 0.604454 -0.033714
C83   C     C_R   0.604032 0.999884 0.395591 -0.033708
C84   C     C_R   0.395964 0.000224 0.604450 -0.033672
C85   C     C_R   0.122097 0.530908 0.380146 -0.184318
C86   C     C_R   0.877794 0.531310 0.620196 -0.181322
C87   C     C_R   0.622098 0.030907 0.380121 -0.184344
C88   C     C_R   0.377793 0.031309 0.620222 -0.181328
H53   H     H_    0.108668 0.555214 0.396169 0.154302
H54   H     H_    0.891149 0.555534 0.604430 0.154939
H55   H     H_    0.608670 0.055214 0.396119 0.154271
H56   H     H_    0.391147 0.055534 0.604483 0.154909
C89   C     C_R   0.157808 0.530946 0.344110 -0.156414
C90   C     C_R   0.842072 0.531500 0.656192 -0.156237
C91   C     C_R   0.657809 0.030943 0.344088 -0.156410
C92   C     C_R   0.342071 0.031497 0.656215 -0.156224
H57   H     H_    0.171036 0.555226 0.333901 0.134846
H58   H     H_    0.828748 0.555809 0.666653 0.135103
H59   H     H_    0.671039 0.055224 0.333855 0.134806
H60   H     H_    0.328745 0.055807 0.666701 0.135061
C93   C     C_R   0.176206 0.499977 0.322636 0.109357
C94   C     C_R   0.823787 0.500623 0.677271 0.109359
C95   C     C_R   0.676206 0.999973 0.322646 0.109420
C96   C     C_R   0.323787 0.000619 0.677260 0.109420
O17   O     O_R   0.971110 0.450090 0.028870 -0.593747
O18   O     O_R   0.028890 0.450090 0.971130 -0.589739
O19   O     O_R   0.471110 0.950090 0.028870 -0.590226
O20   O     O_R   0.528890 0.950090 0.971130 -0.586571
C97   C     C_R   0.000054 0.433769 0.999989 0.782166
C98   C     C_R   0.500059 0.933808 0.999943 0.777946
O21   O     O_R   0.971120 0.500000 0.939830 -0.585479
O22   O     O_R   0.028880 0.500000 0.060170 -0.582918
O23   O     O_R   0.471120 0.000000 0.939830 -0.586614
O24   O     O_R   0.528880 0.000000 0.060170 -0.584425
O25   O     O_R   0.028890 0.500000 0.882090 -0.581602
O26   O     O_R   0.971110 0.500000 0.117910 -0.583722
O27   O     O_R   0.528890 0.000000 0.882090 -0.580666
O28   O     O_R   0.471110 0.000000 0.117910 -0.582670
C99   C     C_R   0.000295 0.498884 0.882139 0.841578
C100  C     C_R   0.999702 0.501057 0.117847 0.842749
C101  C     C_R   0.500295 0.998881 0.882139 0.839958
C102  C     C_R   0.499702 0.001055 0.117847 0.841090
Cu5   Cu    Cu3+1 0.965790 0.500000 0.034190 0.972968
Cu6   Cu    Cu3+1 0.034210 0.500000 0.965810 0.975413
Cu7   Cu    Cu3+1 0.465790 0.000000 0.034190 0.974654
Cu8   Cu    Cu3+1 0.534210 0.000000 0.965810 0.976782
O29   O     O_R   0.971120 0.549910 0.028870 -0.554569
O30   O     O_R   0.028880 0.549910 0.971130 -0.557958
O31   O     O_R   0.471120 0.049910 0.028870 -0.554565
O32   O     O_R   0.528880 0.049910 0.971130 -0.557940
C103  C     C_R   0.999944 0.566100 0.000097 0.848843
C104  C     C_R   0.499944 0.066100 0.000097 0.848697
O33   O     O_R   0.499990 0.450020 0.051430 -0.585224
O34   O     O_R   0.500010 0.450020 0.948570 -0.585236
O35   O     O_R   0.999990 0.950020 0.051430 -0.585224
O36   O     O_R   0.000010 0.950020 0.948570 -0.585233
C105  C     C_R   0.499950 0.433719 0.999832 0.788288
C106  C     C_R   0.999950 0.933719 0.999832 0.788368
O37   O     O_R   0.450090 0.499930 0.101420 -0.583292
O38   O     O_R   0.549910 0.499930 0.898580 -0.583154
O39   O     O_R   0.950090 0.999930 0.101420 -0.584194
O40   O     O_R   0.049910 0.999930 0.898580 -0.584122
O41   O     O_R   0.450100 0.500000 0.998350 -0.589395
O42   O     O_R   0.549900 0.500000 0.001650 -0.589258
O43   O     O_R   0.950100 0.000000 0.998350 -0.587985
O44   O     O_R   0.049900 0.000000 0.001650 -0.587933
C107  C     C_R   0.433765 0.500080 0.066528 0.812649
C108  C     C_R   0.566236 0.500110 0.933471 0.812927
C109  C     C_R   0.933765 0.000077 0.066529 0.814234
C110  C     C_R   0.066236 0.000106 0.933470 0.814348
Cu9   Cu    Cu3+1 0.499990 0.499920 0.061020 0.961164
Cu10  Cu    Cu3+1 0.500010 0.499920 0.938980 0.961255
Cu11  Cu    Cu3+1 0.999990 0.999920 0.061020 0.959763
Cu12  Cu    Cu3+1 0.000010 0.999920 0.938980 0.959831
O45   O     O_R   0.500000 0.549840 0.051640 -0.583693
O46   O     O_R   0.500000 0.549840 0.948360 -0.583457
O47   O     O_R   0.000000 0.049840 0.051640 -0.587016
O48   O     O_R   1.000000 0.049840 0.948360 -0.587007
C111  C     C_R   0.499973 0.566099 0.000250 0.785775
C112  C     C_R   0.000017 0.066139 0.000204 0.790067
C113  C     C_R   0.514703 0.622016 0.034346 -0.174758
C114  C     C_R   0.485161 0.621884 0.967352 -0.174114
C115  C     C_R   0.001031 0.122259 0.055022 -0.175411
C116  C     C_R   0.999219 0.122018 0.946304 -0.174778
H61   H     H_    0.526545 0.608567 0.059876 0.147728
H62   H     H_    0.473270 0.608346 0.941718 0.147944
H63   H     H_    0.001655 0.109025 0.097618 0.156164
H64   H     H_    0.998565 0.108614 0.903505 0.156730
C117  C     C_R   0.515172 0.657793 0.033691 -0.159346
C118  C     C_R   0.484873 0.657650 0.968119 -0.159870
C119  C     C_R   0.001121 0.158007 0.055182 -0.163914
C120  C     C_R   0.999235 0.157742 0.946573 -0.164316
H65   H     H_    0.527815 0.670987 0.058087 0.126647
H66   H     H_    0.472291 0.670735 0.943760 0.126568
H67   H     H_    0.001469 0.171551 0.098173 0.131188
H68   H     H_    0.998931 0.171062 0.903720 0.131372
C121  C     C_R   0.500111 0.676130 0.000839 0.104624
C122  C     C_R   0.000177 0.176060 0.001004 0.103592
C123  C     C_R   0.499920 0.603804 0.000743 -0.027367
C124  C     C_R   0.000081 0.103919 0.000561 -0.035141
C125  C     C_R   0.502361 0.732366 0.943268 -0.170549
C126  C     C_R   0.498398 0.733006 0.057708 -0.170529
C127  C     C_R   0.978353 0.231986 0.984018 -0.170625
C128  C     C_R   0.021902 0.232204 0.018422 -0.170253
H69   H     H_    0.504671 0.718979 0.897644 0.129565
H70   H     H_    0.496042 0.720125 0.103439 0.129344
H71   H     H_    0.961082 0.218481 0.971232 0.131153
H72   H     H_    0.039157 0.218856 0.031256 0.131298
C129  C     C_R   0.978355 0.267709 0.983974 -0.171697
C130  C     C_R   0.021973 0.267944 0.018187 -0.171498
C131  C     C_R   0.502008 0.768133 0.943548 -0.170233
C132  C     C_R   0.498867 0.768778 0.057105 -0.170171
H73   H     H_    0.961545 0.281035 0.969882 0.130420
H74   H     H_    0.038814 0.281471 0.032146 0.130886
H75   H     H_    0.503504 0.781541 0.899013 0.135938
H76   H     H_    0.497390 0.782695 0.101535 0.135771
C133  C     C_R   0.000186 0.286012 0.000992 0.096317
C134  C     C_R   0.500439 0.786482 0.000265 0.088809
C135  C     C_R   0.500308 0.714275 0.000604 0.098264
C136  C     C_R   0.000126 0.213910 0.001233 0.096756
C137  C     C_R   0.031169 0.341962 0.971512 -0.166736
C138  C     C_R   0.969197 0.342128 0.029829 -0.167514
C139  C     C_R   0.527297 0.842305 0.999957 -0.163379
C140  C     C_R   0.473342 0.842036 0.000255 -0.163157
H77   H     H_    0.055434 0.328455 0.948073 0.131179
H78   H     H_    0.944945 0.328772 0.053510 0.130742
H79   H     H_    0.548353 0.828758 0.999763 0.135613
H80   H     H_    0.452351 0.828279 0.000533 0.134788
C141  C     C_R   0.031153 0.377703 0.971101 -0.178082
C142  C     C_R   0.969160 0.377853 0.029570 -0.181912
C143  C     C_R   0.527439 0.878081 0.998931 -0.180300
C144  C     C_R   0.473035 0.877817 0.001018 -0.182872
H81   H     H_    0.055441 0.390971 0.947953 0.155652
H82   H     H_    0.944839 0.391228 0.052514 0.154685
H83   H     H_    0.548566 0.891665 0.998419 0.149379
H84   H     H_    0.451840 0.891188 0.001454 0.146344
C145  C     C_R   0.000139 0.395993 0.000160 -0.031994
C146  C     C_R   0.500191 0.896105 0.999924 -0.024035
C147  C     C_R   0.000193 0.323860 0.000819 0.104427
C148  C     C_R   0.500357 0.824136 0.000184 0.096273
C149  C     C_R   0.511826 0.377595 0.936398 -0.177845
C150  C     C_R   0.487480 0.378100 0.062846 -0.176905
C151  C     C_R   0.011827 0.877595 0.936397 -0.177851
C152  C     C_R   0.987479 0.878100 0.062846 -0.176914
H85   H     H_    0.521695 0.390852 0.886868 0.152231
H86   H     H_    0.477689 0.391744 0.112437 0.152854
H87   H     H_    0.021698 0.890853 0.886867 0.152222
H88   H     H_    0.977687 0.891744 0.112437 0.152843
C153  C     C_R   0.512029 0.341826 0.936257 -0.162388
C154  C     C_R   0.487060 0.342357 0.062920 -0.162987
C155  C     C_R   0.012031 0.841826 0.936256 -0.162366
C156  C     C_R   0.987059 0.842357 0.062920 -0.162966
H89   H     H_    0.522457 0.328400 0.886351 0.128651
H90   H     H_    0.476547 0.329368 0.112817 0.128850
H91   H     H_    0.022459 0.828400 0.886350 0.128665
H92   H     H_    0.976545 0.829368 0.112816 0.128863
C157  C     C_R   0.499531 0.323740 0.999574 0.105969
C158  C     C_R   0.999531 0.823740 0.999573 0.105967
C159  C     C_R   0.499745 0.396005 0.999642 -0.032447
C160  C     C_R   0.999745 0.896005 0.999642 -0.032453
C161  C     C_R   0.505502 0.267596 0.047860 -0.178132
C162  C     C_R   0.493577 0.267040 0.951457 -0.178157
C163  C     C_R   0.005501 0.767596 0.047861 -0.178105
C164  C     C_R   0.993579 0.767040 0.951454 -0.178132
H93   H     H_    0.510919 0.281010 0.084666 0.130036
H94   H     H_    0.488205 0.280032 0.914528 0.130138
H95   H     H_    0.010917 0.781010 0.084669 0.130054
H96   H     H_    0.988208 0.780032 0.914523 0.130155
C165  C     C_R   0.005145 0.731850 0.048402 -0.169812
C166  C     C_R   0.993876 0.731281 0.951201 -0.169310
C167  C     C_R   0.505146 0.231850 0.048401 -0.169834
C168  C     C_R   0.493873 0.231281 0.951204 -0.169331
H97   H     H_    0.009886 0.718483 0.085893 0.130252
H98   H     H_    0.989151 0.717467 0.913769 0.130880
H99   H     H_    0.509889 0.218483 0.085890 0.130233
H100  H     H_    0.489147 0.217467 0.913775 0.130866
C169  C     C_R   0.999490 0.713481 0.999886 0.152782
C170  C     C_R   0.499490 0.213481 0.999887 0.152799
C171  C     C_R   0.499541 0.285671 0.999607 0.098334
C172  C     C_R   0.999542 0.785671 0.999606 0.098320
C173  C     C_R   0.020485 0.657439 0.937825 -0.252231
C174  C     C_R   0.978766 0.657979 0.062164 -0.252582
C175  C     C_R   0.520482 0.157440 0.937825 -0.252226
C176  C     C_R   0.478768 0.157979 0.062167 -0.252588
H101  H     H_    0.036930 0.670969 0.889635 0.162192
H102  H     H_    0.962267 0.671928 0.110336 0.161965
H103  H     H_    0.536926 0.170969 0.889634 0.162187
H104  H     H_    0.462270 0.171928 0.110340 0.161956
C177  C     C_R   0.020595 0.621583 0.937328 0.388597
C178  C     C_R   0.978942 0.622119 0.062785 0.390457
C179  C     C_R   0.520593 0.121583 0.937327 0.388612
C180  C     C_R   0.478944 0.122119 0.062786 0.390482
C181  C     C_R   0.999816 0.603724 0.000071 -0.236282
C182  C     C_R   0.499816 0.103724 0.000072 -0.236295
C183  C     C_R   0.999548 0.675750 0.999951 -0.033414
C184  C     C_R   0.499548 0.175750 0.999952 -0.033424
O49   O     O_3   0.042095 0.604150 0.875707 -0.555748
C185  C     C_3   0.024580 0.598798 0.837953 0.073649
H105  H     H_    0.016458 0.623593 0.825771 0.135271
H106  H     H_    0.001677 0.582332 0.868181 0.127955
C186  C     C_3   0.048380 0.580701 0.768820 -0.765407
H107  H     H_    0.057472 0.556122 0.779044 0.255761
H108  H     H_    0.034567 0.575350 0.739571 0.187366
H109  H     H_    0.070837 0.597140 0.736154 0.250911
O50   O     O_3   0.957748 0.605171 0.124534 -0.556027
C187  C     C_3   0.975355 0.600993 0.162328 0.062218
H110  H     H_    0.982808 0.626248 0.174711 0.134597
H111  H     H_    0.998695 0.584849 0.132020 0.124463
C188  C     C_3   0.952004 0.583179 0.231341 -0.741541
H112  H     H_    0.943915 0.557934 0.220937 0.258134
H113  H     H_    0.965797 0.579147 0.260979 0.202534
H114  H     H_    0.928920 0.599170 0.263748 0.245964
O51   O     O_3   0.542091 0.104150 0.875704 -0.555724
C189  C     C_3   0.524570 0.098794 0.837961 0.073557
H115  H     H_    0.516438 0.123587 0.825794 0.135251
H116  H     H_    0.501674 0.082321 0.868191 0.128002
C190  C     C_3   0.548371 0.080705 0.768818 -0.765211
H117  H     H_    0.557475 0.056130 0.779026 0.255858
H118  H     H_    0.534554 0.075349 0.739580 0.187319
H119  H     H_    0.570820 0.097153 0.736149 0.250902
O52   O     O_3   0.457753 0.105171 0.124536 -0.556007
C191  C     C_3   0.475361 0.100994 0.162327 0.062104
H120  H     H_    0.482815 0.126249 0.174706 0.134561
H121  H     H_    0.498701 0.084849 0.132017 0.124561
C192  C     C_3   0.452012 0.083181 0.231342 -0.741185
H122  H     H_    0.443923 0.057935 0.220941 0.258257
H123  H     H_    0.465807 0.079150 0.260977 0.202526
H124  H     H_    0.428929 0.099171 0.263751 0.245922
N1    N     N_R   0.324559 0.509026 0.291533 0.110240
O53   O     O_R   0.297692 0.528747 0.322991 -0.342650
O54   O     O_R   0.337983 0.497037 0.327710 -0.357222
N2    N     N_R   0.675279 0.509075 0.708639 0.110346
O55   O     O_R   0.701932 0.528853 0.677683 -0.342472
O56   O     O_R   0.661967 0.496824 0.672168 -0.357367
N3    N     N_R   0.824561 0.009066 0.291527 0.110166
O57   O     O_R   0.797693 0.028788 0.322959 -0.342770
O58   O     O_R   0.837987 0.997103 0.327720 -0.357426
N4    N     N_R   0.175276 0.009120 0.708646 0.110269
O59   O     O_R   0.201931 0.028898 0.677719 -0.342601
O60   O     O_R   0.161961 0.996896 0.672159 -0.357576

loop_
_geom_bond_atom_site_label_1
_geom_bond_atom_site_label_2
_geom_bond_distance
_ccdc_geom_bond_type
C162  H94   1.082275 S    
C51   H31   1.083219 S    
O50   C187  1.411757 S    
C128  C130  1.394841 A    
Cu9   Cu10  2.673174 S    
C138  C142  1.394281 A    
C28   C32   1.392888 A    
C2    C82   1.475861 S    
C131  H75   1.083368 S    
C38   N2    1.439545 S    
C33   C69   1.475872 S    
C117  H65   1.082054 S    
C4    C84   1.475861 S    
C82   C86   1.404753 A    
C43   H27   1.082990 S    
C9    C13   1.339501 D    
C52   H32   1.083232 S    
C165  C169  1.401238 A    
C26   C30   1.392890 A    
C187  C188  1.520782 S    
C113  H61   1.083220 S    
C192  H124  1.110562 S    
O40   C110  1.296514 A    
C37   N1    1.439501 S    
C78   H50   1.082877 S    
C131  C134  1.399810 A    
C140  H80   1.083309 S    
C14   H6    1.086279 S    
C74   C94   1.404620 A    
O35   C106  1.293147 A    
C112  C124  1.474383 S    
O4    C4    1.295403 A    
C79   C83   1.404903 A    
O43   Cu12  1.957996 S    
C190  H119  1.110588 S    
C49   C53   1.395372 A    
C144  C146  1.404369 A    
C119  C122  1.404016 A    
C161  C167  1.395194 A    
Cu10  O46   1.957220 S    
C186  H108  1.110480 S    
O20   C98   1.295078 A    
C58   C94   1.479994 S    
C27   H19   1.082892 S    
O43   C109  1.296628 A    
C188  H114  1.110562 S    
C90   C94   1.404543 A    
C117  C121  1.408150 A    
C169  C183  1.472524 S    
C42   H26   1.082981 S    
C26   H18   1.082889 S    
C151  H87   1.083141 S    
O16   Cu4   1.963008 S    
C50   H30   1.083232 S    
C166  C169  1.401546 A    
O33   Cu9   1.956916 S    
O13   C5    1.293595 A    
O7    Cu4   1.960693 S    
C9    C17   1.473559 S    
C156  C158  1.406779 A    
C73   C93   1.404770 A    
C34   C38   1.416626 A    
O4    Cu2   1.961093 S    
C78   C82   1.404922 A    
C173  H101  1.083607 S    
C76   C96   1.404615 A    
O37   Cu9   1.962184 S    
O9    C5    1.285495 A    
C47   C109  1.476428 S    
O48   C112  1.297341 A    
C34   C70   1.475852 S    
C115  C119  1.395091 A    
C175  C184  1.400700 A    
C158  C172  1.485687 S    
C162  C168  1.395549 A    
C27   C31   1.392732 A    
N1    O53   1.301378 A    
O8    Cu4   1.959092 S    
C16   H8    1.086277 S    
N3    O57   1.301377 A    
C106  C160  1.471811 S    
C35   C71   1.475867 S    
O17   Cu5   1.958039 S    
C118  C121  1.407876 A    
O3    Cu2   1.959485 S    
C40   C44   1.403585 A    
C178  C181  1.410029 A    
N2    O56   1.301426 A    
C150  H86   1.083168 S    
C63   H39   1.082834 S    
C154  H90   1.082321 S    
C50   C54   1.395204 A    
C91   H59   1.082901 S    
C13   C99   1.454174 S    
C14   C100  1.453124 S    
C137  C141  1.394948 A    
O51   C189  1.411536 S    
C130  C133  1.404269 A    
C161  C171  1.407622 A    
C87   C91   1.394655 A    
C167  H99   1.083347 S    
C88   C92   1.395072 A    
C185  H105  1.114838 S    
C16   C102  1.453121 S    
O3    C3    1.294909 A    
Cu5   Cu6   2.672176 S    
C25   H17   1.082893 S    
C20   C24   1.339830 D    
C66   C70   1.402027 A    
C103  C181  1.468324 S    
C137  C147  1.403980 A    
O23   Cu7   1.959285 S    
C180  O52   1.382165 S    
O46   C111  1.296628 A    
O28   Cu7   1.963933 S    
O45   C111  1.297559 A    
O49   C185  1.411536 S    
C29   C33   1.403054 A    
C49   C69   1.402750 A    
C111  C123  1.471445 S    
C31   C35   1.403053 A    
C10   H2    1.086296 S    
C28   H20   1.082887 S    
C53   C57   1.405544 A    
O47   C112  1.298393 A    
C139  C148  1.401541 A    
Cu9   O45   1.960713 S    
C126  C135  1.408742 A    
C21   H13   1.086402 S    
C62   H38   1.082830 S    
C170  C184  1.472524 S    
C191  H120  1.114732 S    
C59   C95   1.479990 S    
C24   H16   1.086325 S    
O36   Cu12  1.960487 S    
O5    Cu3   1.960693 S    
C41   C45   1.404613 A    
C150  C159  1.402670 A    
C127  C129  1.394157 A    
O34   Cu10  1.960487 S    
C43   C47   1.404617 A    
Cu8   O32   1.958082 S    
C139  C143  1.396513 A    
C129  C133  1.404084 A    
C3    C83   1.475774 S    
C125  C131  1.395871 A    
C17   H9    1.086318 S    
C81   C85   1.404722 A    
C115  C124  1.404840 A    
C116  C124  1.404807 A    
C162  C171  1.407454 A    
Cu5   O29   1.959687 S    
C127  C136  1.404140 A    
C143  C146  1.404465 A    
C52   C56   1.395206 A    
C10   C14   1.339384 D    
C83   C87   1.404720 A    
O13   Cu3   1.959475 S    
C84   C88   1.404754 A    
O20   Cu8   1.959646 S    
C28   C48   1.402072 A    
C85   C89   1.394651 A    
C140  C144  1.396343 A    
Cu12  O48   1.957220 S    
O18   Cu6   1.959646 S    
C60   C64   1.405665 A    
C191  C192  1.520781 S    
C176  C184  1.400998 A    
C79   H51   1.082868 S    
O5    C1    1.295757 A    
C65   H41   1.083258 S    
C151  C160  1.402609 A    
C92   H60   1.082898 S    
O8    C4    1.295310 A    
C40   N4    1.439548 S    
C187  H111  1.114487 S    
O15   Cu4   1.959475 S    
C189  C190  1.520546 S    
C114  C118  1.395726 A    
C57   C61   1.405685 A    
C90   H58   1.082897 S    
C59   C63   1.405683 A    
C149  C153  1.395940 A    
C151  C155  1.395940 A    
O38   Cu10  1.962186 S    
C92   C96   1.404543 A    
C53   H33   1.082772 S    
C132  C134  1.400046 A    
C75   C95   1.404769 A    
O14   C6    1.286013 A    
C55   H35   1.082774 S    
C10   C18   1.473463 S    
C80   H52   1.082877 S    
N3    O58   1.301423 A    
C114  C123  1.401991 A    
C12   C16   1.339385 D    
C161  H93   1.082273 S    
C174  C183  1.400998 A    
O37   C107  1.296582 A    
C45   C107  1.476423 S    
O10   C6    1.293278 A    
C176  C180  1.399721 A    
C166  H98   1.083329 S    
C74   C78   1.395629 A    
O17   C97   1.295371 A    
C128  H72   1.082957 S    
C154  C157  1.406778 A    
C91   C95   1.404427 A    
Cu7   Cu8   2.672176 S    
C192  H123  1.110535 S    
O39   Cu11  1.962184 S    
C164  C166  1.395550 A    
O27   C101  1.286555 A    
C156  H92   1.082318 S    
C178  O50   1.382168 S    
C61   C65   1.394974 A    
C37   C41   1.403635 A    
C52   C72   1.402646 A    
C190  H118  1.110473 S    
C63   C67   1.394967 A    
C8    C24   1.454127 S    
C39   C43   1.403636 A    
C44   C48   1.404665 A    
O25   Cu6   1.963935 S    
C36   C40   1.416629 A    
O41   Cu10  1.957996 S    
C186  H107  1.110317 S    
C188  H113  1.110531 S    
C118  H66   1.082064 S    
O32   C104  1.292601 A    
C88   H56   1.082886 S    
C73   C77   1.395960 A    
C67   C71   1.401950 A    
C133  C147  1.477120 S    
C68   C72   1.402029 A    
C134  C148  1.469538 S    
C25   C45   1.402041 A    
C66   H42   1.083252 S    
C65   C69   1.401948 A    
C27   C47   1.402040 A    
C152  C156  1.395015 A    
C114  H62   1.083246 S    
C189  H115  1.114830 S    
O39   C109  1.296571 A    
C126  C132  1.396280 A    
O26   Cu5   1.963933 S    
O21   Cu5   1.959285 S    
O22   C100  1.293796 A    
C29   H21   1.083543 S    
Cu6   O30   1.958082 S    
C6    C22   1.454128 S    
O19   C98   1.294797 A    
C19   H11   1.086322 S    
C11   C19   1.473574 S    
C89   H57   1.082897 S    
C12   C20   1.473463 S    
C97   C145  1.474288 S    
C157  C171  1.485687 S    
C175  C179  1.399294 A    
O24   C102  1.293787 A    
C153  H89   1.082303 S    
C141  H81   1.082875 S    
C143  H83   1.083122 S    
C22   H14   1.086327 S    
O42   C108  1.296703 A    
C144  H84   1.083139 S    
O1    C1    1.294905 A    
C74   H46   1.082875 S    
C41   H25   1.082990 S    
C19   C23   1.339557 D    
C185  C186  1.520548 S    
O22   Cu6   1.959283 S    
C164  C172  1.407457 A    
C137  H77   1.082988 S    
C56   H36   1.082784 S    
C139  H79   1.083294 S    
C129  H73   1.082966 S    
O41   C107  1.296617 A    
C174  H102  1.083590 S    
O38   C108  1.296523 A    
C17   C21   1.339535 D    
C168  H100  1.083330 S    
C18   H10   1.086255 S    
C46   C108  1.476560 S    
C51   C71   1.402750 A    
C167  C170  1.401241 A    
C185  H106  1.114395 S    
C48   C110  1.476563 S    
C26   C46   1.402069 A    
C11   C15   1.339504 D    
C85   H53   1.082890 S    
C186  H109  1.110594 S    
C113  C123  1.402041 A    
C73   H45   1.082861 S    
C173  C183  1.400698 A    
C177  C181  1.410222 A    
C115  H63   1.082869 S    
C76   H48   1.082875 S    
O6    C2    1.295314 A    
N4    O60   1.301425 A    
C64   C68   1.395227 A    
N4    O59   1.301377 A    
C51   C55   1.395373 A    
C163  H95   1.082273 S    
C36   C72   1.475844 S    
O26   C100  1.286194 A    
C164  H96   1.082275 S    
C13   H5    1.086010 S    
C56   C60   1.405546 A    
C67   H43   1.083259 S    
O42   Cu9   1.958026 S    
C38   C42   1.403584 A    
C35   C39   1.416685 A    
C125  C135  1.408810 A    
O2    Cu1   1.961093 S    
O10   Cu1   1.959700 S    
C149  H85   1.083140 S    
Cu11  O47   1.960713 S    
C150  C154  1.395015 A    
O18   C97   1.295999 A    
C15   C101  1.454164 S    
C149  C159  1.402610 A    
O29   C103  1.293068 A    
C120  H68   1.083009 S    
C152  H88   1.083171 S    
C32   C36   1.403069 A    
C9    H1    1.086271 S    
N1    O54   1.301422 A    
O24   Cu8   1.959283 S    
C80   C84   1.404925 A    
C168  C170  1.401544 A    
C77   H49   1.082869 S    
O27   Cu8   1.963935 S    
C31   H23   1.083546 S    
C39   N3    1.439503 S    
C30   C34   1.403071 A    
C121  C135  1.488715 S    
O15   C7    1.293593 A    
C122  C136  1.477111 S    
C176  H104  1.083590 S    
N2    O55   1.301377 A    
C76   C80   1.395626 A    
O7    C3    1.295753 A    
C128  C136  1.404204 A    
C75   C79   1.395956 A    
C120  C122  1.403687 A    
C54   C58   1.405541 A    
C126  H70   1.082020 S    
C89   C93   1.404428 A    
C61   H37   1.082832 S    
C30   H22   1.083540 S    
C42   C46   1.404661 A    
C177  O49   1.381972 S    
O35   Cu11  1.956916 S    
O16   C8    1.286010 A    
C104  C182  1.468320 S    
C152  C160  1.402668 A    
Cu7   O31   1.959687 S    
C33   C37   1.416686 A    
C138  C147  1.403760 A    
O44   Cu11  1.958026 S    
O25   C99   1.286551 A    
C77   C81   1.404900 A    
O11   C7    1.285514 A    
C173  C177  1.399294 A    
O12   C8    1.293282 A    
O1    Cu1   1.959485 S    
O9    Cu1   1.963226 S    
C75   H47   1.082861 S    
C68   H44   1.083251 S    
O44   C110  1.296715 A    
C127  H71   1.082974 S    
C60   C96   1.479986 S    
C44   H28   1.082984 S    
C86   H54   1.082884 S    
O11   Cu2   1.963226 S    
C155  H91   1.082304 S    
O19   Cu7   1.958039 S    
C1    C81   1.475770 S    
C116  H64   1.082876 S    
C125  H69   1.082019 S    
C142  C145  1.404772 A    
C7    C23   1.453774 S    
O6    Cu3   1.959092 S    
O33   C105  1.293147 A    
C132  H76   1.083348 S    
Cu11  Cu12  2.673174 S    
C32   H24   1.083539 S    
C98   C146  1.471397 S    
C55   C59   1.405543 A    
C192  H122  1.110384 S    
C58   C62   1.405670 A    
C155  C158  1.407230 A    
C5    C21   1.453744 S    
C113  C117  1.396464 A    
C180  C182  1.410026 A    
C142  H82   1.082883 S    
O31   C104  1.293068 A    
C87   H55   1.082891 S    
C23   H15   1.086400 S    
C105  C159  1.471811 S    
O2    C2    1.295400 A    
C15   H7    1.086008 S    
C57   C93   1.480002 S    
C190  H117  1.110307 S    
C54   H34   1.082784 S    
C25   C29   1.392733 A    
C20   H12   1.086252 S    
C138  H78   1.083005 S    
O14   Cu3   1.963008 S    
O23   C101  1.293927 A    
O12   Cu2   1.959700 S    
O21   C99   1.293931 A    
C130  H74   1.082955 S    
C179  O51   1.381970 S    
Cu1   Cu3   2.669775 S    
C188  H112  1.110381 S    
C18   C22   1.339832 D    
Cu2   Cu4   2.669775 S    
C116  C120  1.394116 A    
O52   C191  1.411757 S    
C163  C165  1.395194 A    
C175  H103  1.083607 S    
O34   C105  1.294271 A    
C174  C178  1.399717 A    
O30   C103  1.292601 A    
C165  H97   1.083344 S    
C191  H121  1.114484 S    
C11   H3    1.086273 S    
C50   C70   1.402648 A    
C12   H4    1.086295 S    
C187  H110  1.114730 S    
O40   Cu12  1.962186 S    
C119  H67   1.082983 S    
C189  H116  1.114388 S    
O28   C102  1.286198 A    
C153  C157  1.407231 A    
C140  C148  1.401590 A    
C86   C90   1.395071 A    
O36   C106  1.294271 A    
C179  C182  1.410224 A    
C62   C66   1.395230 A    
C163  C172  1.407624 A    
C49   H29   1.083219 S    
C64   H40   1.082832 S    
C141  C145  1.404795 A    
