data_mof_unit_31164.cif
_audit_creation_date              2012-12-11T16:25:31-0500
_audit_creation_method            fapswitch 2.2
_symmetry_space_group_name_H-M    P1
_symmetry_Int_Tables_number       1
_space_group_crystal_system       triclinic
_cell_length_a                    20.270184
_cell_length_b                    7.265407
_cell_length_c                    13.389587
_cell_angle_alpha                 90.002001
_cell_angle_beta                  103.316209
_cell_angle_gamma                 89.997635
_cell_volume                      1918.88271249

loop_
_atom_site_label
_atom_site_type_symbol
_atom_type_description
_atom_site_fract_x
_atom_site_fract_y
_atom_site_fract_z
_atom_type_partial_charge
O1    O     O_R   0.449520 0.506760 0.599710 -0.532349
O2    O     O_R   0.550480 0.006760 0.400290 -0.532350
O3    O     O_R   0.587930 0.180200 0.595790 -0.543269
O4    O     O_R   0.412070 0.680200 0.404210 -0.543272
C1    C     C_R   0.613615 0.345433 0.620175 0.769391
C2    C     C_R   0.386384 0.845435 0.379825 0.769391
O5    O     O_R   0.452350 0.177380 0.611700 -0.541765
O6    O     O_R   0.547650 0.677380 0.388300 -0.541769
O7    O     O_R   0.413930 0.001760 0.416320 -0.533434
O8    O     O_R   0.586070 0.501760 0.583680 -0.533429
C3    C     C_R   0.435780 0.344999 0.637392 0.725996
C4    C     C_R   0.564220 0.844989 0.362608 0.725996
O9    O     O_3   0.487550 0.337460 0.435880 -0.383972
O10   O     O_3   0.512450 0.837460 0.564120 -0.383955
V1    V     V_3+5 0.502310 0.064670 0.511900 1.418425
V2    V     V_3+5 0.497690 0.564670 0.488100 1.418425
C5    C     C_R   0.611211 0.814942 0.107532 -0.178963
C6    C     C_R   0.388799 0.315157 0.892483 -0.178988
H1    H     H_    0.519572 0.782169 0.158932 0.127393
H2    H     H_    0.480431 0.282248 0.841078 0.127398
H3    H     H_    0.693486 0.825360 0.979920 0.137089
H4    H     H_    0.306529 0.325829 0.020103 0.137073
H5    H     H_    0.585730 0.792550 0.027953 0.111417
H6    H     H_    0.414284 0.292837 0.972069 0.111413
C7    C     C_R   0.604077 0.849297 0.284222 -0.028026
C8    C     C_R   0.395925 0.349341 0.715780 -0.027993
C9    C     C_R   0.930668 0.876607 0.319543 -0.173056
C10   C     C_R   0.069334 0.376096 0.680446 -0.173041
C11   C     C_R   0.895086 0.880827 0.396585 -0.124618
C12   C     C_R   0.104917 0.380125 0.603401 -0.124615
C13   C     C_R   0.824526 0.875498 0.372188 -0.164073
C14   C     C_R   0.175479 0.375052 0.627807 -0.164083
C15   C     C_R   0.787429 0.867088 0.268779 0.065617
C16   C     C_R   0.212576 0.367046 0.731225 0.065596
C17   C     C_R   0.824381 0.859867 0.190076 0.059066
C18   C     C_R   0.175626 0.359988 0.809933 0.059061
C19   C     C_R   0.715045 0.861303 0.241018 0.067707
C20   C     C_R   0.284961 0.361394 0.758990 0.067715
C21   C     C_R   0.681669 0.839472 0.135992 0.138969
C22   C     C_R   0.318341 0.339699 0.864023 0.138973
C23   C     C_R   0.718835 0.838141 0.060272 -0.188460
C24   C     C_R   0.281177 0.338502 0.939745 -0.188448
C25   C     C_R   0.789018 0.848993 0.086642 -0.197438
C26   C     C_R   0.210993 0.349348 0.913373 -0.197425
C27   C     C_R   0.674369 0.873864 0.313760 -0.231602
C28   C     C_R   0.325633 0.373926 0.686244 -0.231646
C29   C     C_R   0.573157 0.812705 0.181723 -0.182526
C30   C     C_R   0.426848 0.312805 0.818285 -0.182513
C31   C     C_R   0.896203 0.864270 0.216572 -0.068230
C32   C     C_R   0.103802 0.364206 0.783432 -0.068219
H7    H     H_    0.695649 0.898761 0.394088 0.101538
H8    H     H_    0.304348 0.398840 0.605918 0.101542
H9    H     H_    0.985406 0.883823 0.340497 0.098181
H10   H     H_    0.014594 0.383069 0.659476 0.098143
H11   H     H_    0.800707 0.876532 0.436239 0.123226
H12   H     H_    0.199303 0.375876 0.563761 0.123221
H13   H     H_    0.922436 0.888791 0.476112 0.122353
H14   H     H_    0.077564 0.387703 0.523864 0.122354
H15   H     H_    0.815406 0.845172 0.024979 0.130804
H16   H     H_    0.184606 0.345636 0.975038 0.130787
H17   H     H_    0.103575 0.774214 0.476100 0.116057
H18   H     H_    0.896431 0.274702 0.523866 0.116002
C33   C     C_R   0.231687 0.866781 0.031656 -0.143034
C34   C     C_R   0.768305 0.366531 0.968346 -0.143060
C35   C     C_R   0.286623 0.885998 0.986957 -0.132848
C36   C     C_R   0.713364 0.385661 0.013044 -0.132845
C37   C     C_R   0.350443 0.922402 0.047713 -0.159894
C38   C     C_R   0.649546 0.422125 0.952295 -0.159914
C39   C     C_R   0.361001 0.932217 0.155032 0.174060
C40   C     C_R   0.638996 0.432073 0.844981 0.174055
C41   C     C_R   0.307139 0.885946 0.203219 0.049773
C42   C     C_R   0.692858 0.385848 0.796787 0.049768
C43   C     C_R   0.240441 0.868942 0.139513 0.023325
C44   C     C_R   0.759556 0.368820 0.860491 0.023321
C45   C     C_R   0.317177 0.857258 0.311445 -0.184168
C46   C     C_R   0.682822 0.357258 0.688554 -0.184159
C47   C     C_R   0.260110 0.832709 0.354932 0.051993
C48   C     C_R   0.739890 0.332828 0.645058 0.051989
C49   C     C_R   0.193394 0.834690 0.291217 0.074303
C50   C     C_R   0.806606 0.334822 0.708774 0.074308
C51   C     C_R   0.183591 0.854795 0.183731 -0.163116
C52   C     C_R   0.816407 0.354799 0.816268 -0.163118
C53   C     C_R   0.268095 0.809298 0.462154 -0.152240
C54   C     C_R   0.731907 0.309529 0.537828 -0.152239
C55   C     C_R   0.212028 0.789088 0.504981 -0.122225
C56   C     C_R   0.787976 0.289454 0.494993 -0.122224
C57   C     C_R   0.146959 0.790800 0.442522 -0.123249
C58   C     C_R   0.853045 0.291184 0.557451 -0.123261
C59   C     C_R   0.137523 0.813094 0.336798 -0.138793
C60   C     C_R   0.862479 0.313358 0.663184 -0.138741
H19   H     H_    0.182373 0.847434 0.980612 0.118045
H20   H     H_    0.817619 0.347159 0.019386 0.118057
H21   H     H_    0.279069 0.881656 0.904251 0.136123
H22   H     H_    0.720913 0.381223 0.095746 0.136118
H23   H     H_    0.391487 0.949926 0.010447 0.116865
H24   H     H_    0.608499 0.449606 0.989564 0.116856
H25   H     H_    0.317590 0.807662 0.514250 0.107568
H26   H     H_    0.682412 0.307881 0.485733 0.107562
H27   H     H_    0.219157 0.771843 0.587102 0.126860
H28   H     H_    0.780849 0.272298 0.412866 0.126858
H29   H     H_    0.086131 0.811636 0.290945 0.084893
H30   H     H_    0.913869 0.311914 0.709038 0.084854
O11   O     O_R   0.913760 0.203480 0.916370 -0.534943
O12   O     O_R   0.086240 0.703480 0.083630 -0.534949
O13   O     O_R   0.047590 0.535230 0.888250 -0.539382
O14   O     O_R   0.952410 0.035230 0.111750 -0.539385
C61   C     C_R   0.063868 0.368779 0.862031 0.672349
C62   C     C_R   0.936132 0.868791 0.137968 0.672341
O15   O     O_R   0.912020 0.532880 0.904260 -0.537408
O16   O     O_R   0.087980 0.032880 0.095740 -0.537404
O17   O     O_R   0.949590 0.708460 0.099750 -0.537316
O18   O     O_R   0.050410 0.208460 0.900250 -0.537304
C63   C     C_R   0.885973 0.364393 0.882950 0.685707
C64   C     C_R   0.114025 0.864391 0.117053 0.685700
O19   O     O_3   0.012370 0.375360 0.064120 -0.376944
O20   O     O_3   0.987630 0.875360 0.935880 -0.376940
V3    V     V_3+5 0.997700 0.648160 0.988110 1.416785
V4    V     V_3+5 0.002300 0.148160 0.011890 1.416793
N1    N     N_3   0.423713 0.007536 0.212858 -0.679784
H31   H     H_    0.412088 0.134742 0.241042 0.238713
H32   H     H_    0.455887 0.039902 0.164640 0.206627
N2    N     N_3   0.576297 0.507512 0.787174 -0.679786
H33   H     H_    0.587946 0.634714 0.759019 0.238684
H34   H     H_    0.544132 0.539908 0.835403 0.206631

loop_
_geom_bond_atom_site_label_1
_geom_bond_atom_site_label_2
_ccdc_geom_bond_type
C36   C38   A    
C33   C35   A    
C25   H15   S    
C9    C11   A    
C61   O18   A    
O1    C3    A    
C42   C46   A    
O2    C4    A    
O16   V4    S    
C2    O7    A    
O15   V3    S    
C2    C45   S    
C21   C23   A    
O5    C3    A    
O13   C61   A    
C5    H5    S    
C27   H7    S    
C6    H6    S    
O11   C63   A    
C46   C48   A    
C56   C58   A    
C47   C53   A    
C28   H8    S    
O20   V3    S    
C5    C21   A    
C39   C41   A    
C6    C22   A    
C60   H30   S    
H17   C57   S    
C10   C32   A    
C35   C37   A    
C51   C64   S    
C17   C31   A    
C13   C15   A    
C12   C14   A    
C17   C25   A    
O16   C64   A    
C16   C18   A    
C8    C30   A    
C36   H22   S    
N1    H32   S    
O6    V2    S    
O14   V4    S    
C37   H23   S    
C23   C25   A    
O13   V3    S    
C24   C26   A    
C44   C52   A    
C43   C51   A    
C31   C62   S    
C47   C49   A    
C41   C45   A    
C49   C59   A    
C55   C57   A    
C42   C44   A    
C49   C51   A    
C10   H10   S    
O5    V1    S    
C33   C43   A    
C3    C8    S    
H18   C58   S    
C39   N1    S    
C15   C19   A    
C37   C39   A    
C34   C36   A    
O4    V2    S    
C55   H27   S    
O18   V4    S    
C40   N2    S    
O6    C4    A    
O19   V4    S    
H1    C29   S    
O1    V2    S    
C38   H24   S    
O2    V1    S    
C45   C47   A    
H2    C30   S    
O12   C64   A    
C50   C52   A    
C53   C55   A    
C58   C60   A    
C57   C59   A    
C32   C61   S    
H3    C23   S    
C18   C26   A    
O4    C2    A    
C34   H20   S    
C19   C27   A    
C7    C27   A    
C18   C32   A    
C41   C43   A    
O12   V3    S    
C7    C29   A    
C59   H29   S    
C16   C20   A    
C5    C29   A    
C52   C63   S    
C11   H13   S    
O3    C1    A    
C6    C30   A    
N1    H31   S    
C9    H9    S    
O15   C63   A    
C62   O17   A    
C4    C7    S    
O17   V3    S    
C54   H26   S    
C1    C46   S    
C10   C12   A    
O7    V1    S    
C1    O8    A    
C19   C21   A    
O8    V2    S    
C20   C22   A    
C56   H28   S    
H4    C24   S    
O14   C62   A    
C26   H16   S    
C12   H14   S    
C22   C24   A    
C35   H21   S    
C15   C17   A    
C48   C50   A    
C50   C60   A    
C20   C28   A    
C8    C28   A    
O11   V4    S    
C48   C54   A    
C11   C13   A    
C53   H25   S    
O9    V2    S    
C33   H19   S    
C38   C40   A    
C34   C44   A    
O10   V1    S    
C54   C56   A    
O3    V1    S    
C40   C42   A    
C13   H11   S    
N2    H33   S    
N2    H34   S    
C14   H12   S    
C9    C31   A    
C14   C16   A    
