data_mof_unit_56649.cif
_audit_creation_date              2012-12-10T17:56:18-0500
_audit_creation_method            fapswitch 2.2
_symmetry_space_group_name_H-M    P1
_symmetry_Int_Tables_number       1
_space_group_crystal_system       triclinic
_cell_length_a                    12.9726
_cell_length_b                    10.810985
_cell_length_c                    9.59526
_cell_angle_alpha                 89.881043
_cell_angle_beta                  95.827961
_cell_angle_gamma                 91.935909
_cell_volume                      1337.98152663

loop_
_atom_site_label
_atom_site_type_symbol
_atom_type_description
_atom_site_fract_x
_atom_site_fract_y
_atom_site_fract_z
_atom_type_partial_charge
C1    C     C_R   0.499728 0.262311 0.500013 0.811404
C2    C     C_R   0.500008 0.737669 0.499974 0.816257
C3    C     C_R   0.499642 0.871609 0.499940 -0.030767
C4    C     C_R   0.499294 0.128316 0.500049 -0.035465
C5    C     C_R   0.435052 0.421006 0.065242 0.351110
C6    C     C_R   0.565106 0.578845 0.934745 0.346683
C7    C     C_R   0.435633 0.420312 0.917223 0.335357
C8    C     C_R   0.565221 0.578696 0.082912 0.364470
C9    C     C_R   0.300941 0.501199 0.474511 0.896096
C10   C     C_R   0.698728 0.501825 0.525640 0.872106
C11   C     C_R   0.810523 0.513107 0.538116 -0.213758
C12   C     C_R   0.188339 0.495090 0.461723 -0.193276
C13   C     C_R   0.030207 0.387851 0.366903 0.467664
C14   C     C_R   0.964109 0.639989 0.605117 0.448409
C15   C     C_R   0.136850 0.407559 0.371234 -0.338915
C16   C     C_R   0.858689 0.614954 0.608931 -0.305200
C17   C     C_R   0.133285 0.568812 0.547145 0.395753
C18   C     C_R   0.866648 0.433479 0.461757 0.419754
C19   C     C_R   0.024111 0.556405 0.536812 -0.174352
C20   C     C_R   0.973317 0.457918 0.455004 -0.141363
C21   C     C_R   0.493335 0.063835 0.372821 -0.166116
C22   C     C_R   0.504864 0.936031 0.627160 -0.150386
C23   C     C_R   0.493851 0.936016 0.372768 -0.153820
C24   C     C_R   0.504980 0.063898 0.627221 -0.153678
Cu1   Cu    Cu3+1 0.500000 0.500020 0.640660 1.036701
Cu2   Cu    Cu3+1 0.500000 0.499980 0.359340 1.056204
H1    H     H_    0.813303 0.679569 0.661049 0.220127
H2    H     H_    0.180079 0.349789 0.307673 0.229344
H3    H     H_    0.488915 0.111826 0.273338 0.199632
H4    H     H_    0.509093 0.888013 0.726637 0.193731
H5    H     H_    0.489490 0.887980 0.273281 0.189842
H6    H     H_    0.509736 0.111951 0.726716 0.192688
N1    N     N_R   0.500030 0.500030 0.852080 -0.275587
N2    N     N_R   0.499970 0.499970 0.147920 -0.271378
O1    O     O_R   0.499990 0.319660 0.618740 -0.551671
O2    O     O_R   0.500010 0.680340 0.381260 -0.558327
O3    O     O_R   0.499990 0.319630 0.381170 -0.546738
O4    O     O_R   0.500010 0.680370 0.618830 -0.557779
O5    O     O_R   0.349000 0.499990 0.599490 -0.539089
O6    O     O_R   0.651000 0.500010 0.400510 -0.507154
O7    O     O_R   0.348990 0.499960 0.361920 -0.554449
O8    O     O_R   0.651010 0.500040 0.638080 -0.554781
O9    O     O_3   0.815855 0.334563 0.389681 -0.538376
C25   C     C_3   0.809613 0.233644 0.482680 0.087718
H7    H     H_    0.751700 0.250898 0.557779 0.110143
H8    H     H_    0.886106 0.216001 0.542330 0.142189
C26   C     C_3   0.775062 0.117549 0.399096 -0.715655
H9    H     H_    0.762011 0.039561 0.471472 0.198436
H10   H     H_    0.701926 0.133847 0.332101 0.248914
H11   H     H_    0.835643 0.092389 0.331330 0.264142
O10   O     O_3   0.187088 0.655634 0.635446 -0.559473
C27   C     C_3   0.195297 0.610321 0.774655 0.145887
H12   H     H_    0.222220 0.513860 0.781146 0.180167
H13   H     H_    0.119652 0.611480 0.819312 0.170211
C28   C     C_3   0.272696 0.692181 0.865309 -0.739559
H14   H     H_    0.244815 0.788130 0.866890 0.259335
H15   H     H_    0.281842 0.655895 0.974091 0.192937
H16   H     H_    0.349235 0.693566 0.822922 0.255259
O11   O     O_3   0.983081 0.296259 0.279755 -0.547589
C29   C     C_3   0.965226 0.344813 0.142972 0.123518
H17   H     H_    0.039949 0.363957 0.097920 0.146836
H18   H     H_    0.920913 0.431525 0.142236 0.166232
C30   C     C_3   0.901634 0.250542 0.049955 -0.725752
H19   H     H_    0.888250 0.287094 0.941584 0.190108
H20   H     H_    0.943570 0.162793 0.047717 0.249163
H21   H     H_    0.825488 0.231730 0.090643 0.265733
O12   O     O_3   0.006826 0.748247 0.666142 -0.553295
C31   C     C_3   0.995399 0.844270 0.566274 0.113834
H22   H     H_    0.911909 0.860291 0.534301 0.136006
H23   H     H_    0.034776 0.822378 0.471735 0.159541
C32   C     C_3   0.044731 0.963382 0.630330 -0.719963
H24   H     H_    0.128481 0.950863 0.662119 0.270450
H25   H     H_    0.036375 0.039461 0.552432 0.204103
H26   H     H_    0.006007 0.989035 0.723697 0.242259
Cl1   Cl    Cl    0.349181 0.317523 0.141053 -0.586504
Cl2   Cl    Cl    0.651166 0.682107 0.858800 -0.574981
Cl3   Cl    Cl    0.352774 0.313018 0.818629 -0.579311
Cl4   Cl    Cl    0.651386 0.682022 0.182200 -0.551945

loop_
_geom_bond_atom_site_label_1
_geom_bond_atom_site_label_2
_ccdc_geom_bond_type
C28   H14   S    
C30   H20   S    
C11   C18   A    
C10   O8    A    
C3    C23   A    
C19   C20   A    
C17   O10   S    
C26   H10   S    
C25   H7    S    
C29   C30   S    
C29   H18   S    
C4    C24   A    
C9    O5    A    
C10   O6    A    
Cu2   N2    S    
C25   H8    S    
C31   H22   S    
C12   C17   A    
C14   O12   S    
C18   C20   A    
C25   C26   S    
C1    O3    A    
C7    Cl3   S    
C16   H1    S    
C30   H21   S    
O11   C29   S    
C8    Cl4   S    
C7    N1    A    
C27   H13   S    
C26   H11   S    
O12   C31   S    
C5    C7    A    
C6    C8    A    
Cu1   Cu2   S    
C21   H3    S    
O10   C27   S    
C29   H17   S    
C23   H5    S    
C5    Cl1   S    
O9    C25   S    
C24   H6    S    
Cu1   O4    S    
C11   C16   A    
C2    O4    A    
C26   H9    S    
C12   C15   A    
C5    N2    A    
C28   H15   S    
C8    N2    A    
Cu1   O1    S    
Cu2   O2    S    
C13   C15   A    
C22   C24   A    
C27   H12   S    
C1    O1    A    
C32   H25   S    
C2    O2    A    
C22   H4    S    
C13   C20   A    
C14   C19   A    
Cu1   O8    S    
C32   H26   S    
C27   C28   S    
Cu2   O3    S    
C6    Cl2   S    
C13   O11   S    
C9    O7    A    
C6    N1    A    
C1    C4    S    
C21   C23   A    
C2    C3    S    
C32   H24   S    
C18   O9    S    
Cu1   O5    S    
C4    C21   A    
Cu2   O6    S    
C15   H2    S    
C31   C32   S    
C17   C19   A    
C14   C16   A    
C9    C12   S    
C10   C11   S    
C30   H19   S    
C31   H23   S    
C28   H16   S    
C3    C22   A    
Cu2   O7    S    
Cu1   N1    S    
