data_mof_unit_33953.cif
_audit_creation_date              2012-12-10T21:26:46-0500
_audit_creation_method            fapswitch 2.2
_symmetry_space_group_name_H-M    P1
_symmetry_Int_Tables_number       1
_space_group_crystal_system       triclinic
_cell_length_a                    10.692173
_cell_length_b                    16.096173
_cell_length_c                    16.603847
_cell_angle_alpha                 88.364682
_cell_angle_beta                  90.303726
_cell_angle_gamma                 89.855005
_cell_volume                      2856.3587172

loop_
_atom_site_label
_atom_site_type_symbol
_atom_type_description
_atom_site_fract_x
_atom_site_fract_y
_atom_site_fract_z
_atom_type_partial_charge
C1    C     C_R   0.496680 0.489587 0.653140 0.858304
C2    C     C_R   0.578395 0.510678 0.265772 -0.273046
C3    C     C_R   0.603842 0.587259 0.224239 0.391488
C4    C     C_R   0.737188 0.497658 0.506061 0.928383
C5    C     C_R   0.615640 0.587880 0.141003 -0.229573
C6    C     C_R   0.414016 0.769903 0.495281 0.357273
C7    C     C_R   0.421809 0.854951 0.516128 0.270917
C8    C     C_R   0.540639 0.890899 0.526428 0.176715
C9    C     C_R   0.642890 0.837137 0.536692 -0.329679
C10   C     C_R   0.626966 0.750624 0.532105 -0.046108
C11   C     C_R   0.554675 0.150828 0.545617 -0.321529
C12   C     C_R   0.387594 0.508799 0.783807 -0.093867
C13   C     C_R   0.547866 0.237813 0.548181 -0.034323
C14   C     C_R   0.497695 0.108831 0.481786 0.240492
C15   C     C_R   0.427882 0.244552 0.428286 -0.142934
C16   C     C_R   0.526235 0.509149 0.349013 0.928805
C17   C     C_R   0.434357 0.157506 0.421710 0.310403
C18   C     C_R   0.262690 0.502011 0.495617 0.895060
C19   C     C_2   0.067701 0.553452 0.532279 -0.127821
C20   C     C_2   0.131961 0.508364 0.479922 0.010038
C21   C     C_2   0.934394 0.560168 0.530143 -0.127796
C22   C     C_2   0.867667 0.491611 0.521612 -0.420987
C23   C     C_R   0.389136 0.499864 0.869069 0.429515
C24   C     C_R   0.495602 0.483923 0.740499 -0.127264
C25   C     C_3   0.278931 0.552136 0.739677 -0.374345
C26   C     C_3   0.277445 0.645330 0.757816 -0.311923
C27   C     C_3   0.176696 0.692336 0.709875 -0.762675
C28   C     C_3   0.078678 0.467328 0.405109 -0.437527
C29   C     C_3   0.157175 0.485830 0.329462 -0.301121
C30   C     C_3   0.102055 0.444932 0.255562 -0.872055
C31   C     C_3   0.645355 0.354793 0.274214 -0.352304
C32   C     C_3   0.769069 0.366226 0.319539 -0.354751
C33   C     C_3   0.799599 0.291174 0.374409 -0.797467
C34   C     C_R   0.502879 0.480447 0.907671 0.162397
C35   C     C_3   0.652730 0.359161 0.094024 -0.425486
C36   C     C_3   0.537331 0.302809 0.087649 -0.330885
C37   C     C_3   0.569683 0.221959 0.046723 -0.762876
C38   C     C_3   0.723351 0.437073 0.731671 -0.399274
C39   C     C_3   0.843139 0.417761 0.780493 -0.330221
C40   C     C_3   0.953983 0.402642 0.725120 -0.835814
C41   C     C_R   0.608387 0.457418 0.864050 -0.254978
C42   C     C_R   0.606672 0.458061 0.780296 0.052523
C43   C     C_R   0.624343 0.436962 0.141428 0.089448
C44   C     C_R   0.609829 0.434613 0.226385 0.013981
C45   C     C_R   0.615865 0.514330 0.099812 0.195808
H1    H     H_    0.114699 0.584613 0.580768 0.147014
H2    H     H_    0.691859 0.439565 0.897135 0.164648
H3    H     H_    0.190773 0.459753 0.043875 0.383093
H4    H     H_    0.202355 0.695387 0.645360 0.288072
H5    H     H_    0.084387 0.661643 0.717469 0.255604
H6    H     H_    0.169728 0.756900 0.731287 0.280197
H7    H     H_    0.260328 0.654543 0.822627 0.285182
H8    H     H_    0.369903 0.673009 0.742703 0.229581
H9    H     H_    0.284813 0.546188 0.673633 0.178000
H10   H     H_    0.188971 0.522044 0.754290 0.240768
H11   H     H_    0.249474 0.017829 0.617448 0.381791
H12   H     H_    0.623245 0.646247 0.107261 0.212814
H13   H     H_    0.306589 0.215274 0.257428 0.349367
H14   H     H_    0.093437 0.376764 0.266415 0.263092
H15   H     H_    0.008710 0.471918 0.240906 0.267385
H16   H     H_    0.164421 0.456305 0.203156 0.264482
H17   H     H_    0.160113 0.553883 0.317484 0.259455
H18   H     H_    0.254093 0.462404 0.338343 0.229683
H19   H     H_    0.075930 0.399047 0.416843 0.201327
H20   H     H_    0.982657 0.489378 0.390753 0.239040
H21   H     H_    0.268322 0.682687 0.321394 0.383277
H22   H     H_    0.725236 0.281708 0.420019 0.273985
H23   H     H_    0.594410 0.269457 0.596442 0.150391
H24   H     H_    0.808314 0.234309 0.338481 0.270637
H25   H     H_    0.889536 0.301673 0.406168 0.239248
H26   H     H_    0.845361 0.374267 0.274948 0.219432
H27   H     H_    0.765906 0.422873 0.355760 0.230880
H28   H     H_    0.569967 0.331881 0.313662 0.234737
H29   H     H_    0.658622 0.300415 0.236379 0.205073
H30   H     H_    0.605510 0.235201 0.985005 0.249223
H31   H     H_    0.641575 0.186876 0.082372 0.271787
H32   H     H_    0.484578 0.182924 0.042305 0.275926
H33   H     H_    0.498094 0.287735 0.148007 0.248889
H34   H     H_    0.603948 0.117077 0.593385 0.193015
H35   H     H_    0.462981 0.335325 0.051989 0.268363
H36   H     H_    0.684769 0.375248 0.032138 0.209821
H37   H     H_    0.734275 0.325334 0.120608 0.200338
H38   H     H_    0.933491 0.350867 0.684276 0.256576
H39   H     H_    0.974978 0.459741 0.688625 0.256105
H40   H     H_    0.037879 0.386049 0.761925 0.273588
H41   H     H_    0.866462 0.471041 0.818959 0.256215
H42   H     H_    0.828864 0.361192 0.819304 0.226440
H43   H     H_    0.701986 0.382619 0.694327 0.206341
H44   H     H_    0.743647 0.490890 0.690347 0.199303
H45   H     H_    0.734596 0.861964 0.549687 0.210874
H46   H     H_    0.537635 0.781890 0.323944 0.390190
H47   H     H_    0.706582 0.711078 0.544595 0.179282
H48   H     H_    0.379048 0.281980 0.382978 0.151090
H49   H     H_    0.892432 0.621243 0.535398 0.202108
H50   H     H_    0.911116 0.430374 0.522863 0.169379
N1    N     N_2   0.510768 0.484152 0.992069 -0.090095
N2    N     N_2   0.607734 0.518878 0.015488 -0.163665
N3    N     N_R   0.515110 0.716920 0.509720 -0.145372
N4    N     N_2   0.557887 0.979347 0.530312 -0.112865
N5    N     N_2   0.495091 0.019588 0.478300 -0.039962
N6    N     N_R   0.484890 0.283060 0.490290 -0.106266
O1    O     O_R   0.494590 0.422540 0.612660 -0.622108
O2    O     O_2   0.133239 0.511877 0.887891 -0.328258
O3    O     O_3   0.255630 0.441881 0.005623 -0.563465
O4    O     O_2   0.235799 0.959652 0.469954 -0.176761
O5    O     O_2   0.186044 0.856031 0.575770 -0.264911
O6    O     O_3   0.323283 0.980830 0.613867 -0.558919
O7    O     O_2   0.419655 0.029915 0.319612 -0.194273
O8    O     O_2   0.225334 0.100749 0.354301 -0.243740
O9    O     O_3   0.378390 0.176344 0.255921 -0.568719
O10   O     O_2   0.176442 0.714652 0.491290 -0.283528
O11   O     O_2   0.237667 0.815854 0.387576 -0.208063
O12   O     O_R   0.504290 0.561850 0.618900 -0.626316
O13   O     O_3   0.310393 0.665507 0.372506 -0.516629
O14   O     O_2   0.712473 0.663209 0.349128 -0.294625
O15   O     O_2   0.721201 0.734750 0.217655 -0.257557
O16   O     O_3   0.509834 0.734054 0.292211 -0.491713
O17   O     O_R   0.676080 0.430360 0.496880 -0.635736
O18   O     O_R   0.685780 0.569670 0.503120 -0.604378
O19   O     O_R   0.495710 0.438150 0.381100 -0.652309
O20   O     O_R   0.505410 0.577460 0.387340 -0.480010
O21   O     O_R   0.314220 0.430330 0.496880 -0.622201
O22   O     O_R   0.323920 0.569640 0.503120 -0.547460
O23   O     O_2   0.268165 0.599102 0.969781 -0.288073
S1    S     S_3+6 0.256002 0.515785 0.931874 0.010574
S2    S     S_3+6 0.285877 0.912662 0.542694 0.091965
S3    S     S_3+6 0.362168 0.112662 0.337350 0.075263
S4    S     S_3+6 0.281095 0.741325 0.436837 0.115037
S5    S     S_3+6 0.641215 0.681369 0.272324 0.064100
Zn1   Zn    Zn3+2 0.493520 0.406980 0.495830 0.925970
Zn2   Zn    Zn3+2 0.506480 0.593020 0.504170 1.049046

loop_
_geom_bond_atom_site_label_1
_geom_bond_atom_site_label_2
_ccdc_geom_bond_type
C29   H18   S    
C24   C42   A    
C22   H50   S    
C40   H39   S    
C35   C36   S    
C40   H38   S    
C39   H42   S    
C43   C44   A    
C35   H36   S    
C19   H1    S    
C7    C8    A    
C32   H27   S    
C38   H44   S    
C26   C27   S    
O4    S2    D    
O19   Zn1   S    
C6    N3    A    
C36   C37   S    
C19   C21   S    
C8    N4    S    
C34   N1    S    
C38   C42   S    
C16   O19   A    
C38   C39   S    
C11   C14   A    
C31   H28   S    
C21   H49   S    
H3    O3    S    
C4    C22   S    
C41   C42   A    
C10   N3    A    
O8    S3    D    
O3    S1    S    
C31   C32   S    
C2    C44   A    
C8    C9    A    
C30   H15   S    
N3    Zn2   S    
O18   Zn2   S    
H46   O16   S    
C4    O18   A    
O16   S5    S    
C9    C10   A    
C27   H5    S    
C33   H24   S    
C18   O22   A    
C23   S1    S    
N6    Zn1   S    
C37   H30   S    
C10   H47   S    
O7    S3    D    
C3    S5    S    
C21   C22   D    
C30   H14   S    
C14   C17   A    
C4    O17   A    
C34   C41   A    
C1    O12   A    
O20   Zn2   S    
C35   H37   S    
C27   H6    S    
C32   H26   S    
C31   C44   S    
O15   S5    D    
O1    Zn1   S    
C25   H9    S    
C36   H35   S    
C39   C40   S    
C17   S3    S    
C31   H29   S    
C20   C28   S    
C25   C26   S    
C37   H32   S    
C38   H43   S    
C40   H40   S    
C16   O20   A    
H11   O6    S    
O12   Zn2   S    
C29   C30   S    
O17   Zn1   S    
C26   H7    S    
O13   S4    S    
N4    N5    D    
C12   C23   A    
C23   C34   A    
N1    N2    D    
C41   H2    S    
C15   N6    A    
C43   C45   A    
O5    S2    D    
C11   H34   S    
C33   H25   S    
C18   O21   A    
C28   H19   S    
C37   H31   S    
C13   N6    A    
C26   H8    S    
C35   C43   S    
C33   H22   S    
O14   S5    D    
C15   C17   A    
C12   C24   A    
C29   H17   S    
C28   C29   S    
H21   O13   S    
O22   Zn2   S    
H13   O9    S    
C25   H10   S    
O6    S2    S    
C3    C5    A    
C9    H45   S    
C15   H48   S    
C14   N5    S    
C6    C7    A    
C2    C16   S    
O9    S3    S    
C5    H12   S    
C12   C25   S    
C32   C33   S    
C19   C20   D    
C2    C3    A    
C6    S4    S    
C36   H33   S    
C11   C13   A    
C5    C45   A    
C28   H20   S    
C18   C20   S    
C7    S2    S    
O2    S1    D    
O11   S4    D    
C1    C24   S    
C30   H16   S    
O10   S4    D    
C45   N2    S    
C39   H41   S    
C1    O1    A    
O21   Zn1   S    
C27   H4    S    
O23   S1    D    
C13   H23   S    
