data_mof_unit_51228.cif
_audit_creation_date              2013-03-05T16:46:58-0500
_audit_creation_method            fapswitch 2.2
_symmetry_space_group_name_H-M    P1
_symmetry_Int_Tables_number       1
_space_group_crystal_system       triclinic
_cell_length_a                    15.012699
_cell_length_b                    8.919946
_cell_length_c                    8.119956
_cell_angle_alpha                 89.859611
_cell_angle_beta                  90.000024
_cell_angle_gamma                 90.000036
_cell_volume                      1087.36005462

loop_
_atom_site_label
_atom_site_type_symbol
_atom_site_description
_atom_site_fract_x
_atom_site_fract_y
_atom_site_fract_z
_atom_type_partial_charge
O1    O     O_R   0.500000 0.285350 0.636850 -0.615915
O2    O     O_R   0.500000 0.714650 0.363150 -0.615918
O3    O     O_R   0.500000 0.714650 0.636850 -0.612021
O4    O     O_R   0.500000 0.285350 0.363150 -0.612021
C1    C     C_R   0.500000 0.218068 0.500119 0.909608
C2    C     C_R   0.500000 0.781932 0.499881 0.909620
O5    O     O_R   0.367850 0.500000 0.636890 -0.612691
O6    O     O_R   0.632150 0.500000 0.363110 -0.612694
O7    O     O_R   0.632150 0.500000 0.636890 -0.612692
O8    O     O_R   0.367850 0.500000 0.363110 -0.612695
C3    C     C_R   0.326987 0.500000 0.500000 0.883435
C4    C     C_R   0.673013 0.500000 0.500000 0.883436
Zn1   Zn    Zn3+2 0.500000 0.500000 0.682780 1.006989
Zn2   Zn    Zn3+2 0.500000 0.500000 0.317220 1.006987
N1    N     N_1   0.500000 0.500000 0.073640 -0.022707
N2    N     N_1   0.500000 0.500000 0.926360 -0.022707
C5    C     C_R   0.812851 0.636819 0.521517 0.123954
C6    C     C_R   0.187151 0.363170 0.478490 0.123954
C7    C     C_R   0.812849 0.363170 0.478492 0.123953
C8    C     C_R   0.187149 0.636818 0.521518 0.123958
C9    C     C_R   0.768065 0.499996 0.500001 -0.062862
C10   C     C_R   0.231935 0.499996 0.500001 -0.062863
C11   C     C_R   0.906130 0.365513 0.463986 -0.082746
C12   C     C_R   0.093869 0.634467 0.536041 -0.082743
C13   C     C_R   0.906131 0.634469 0.536039 -0.082746
C14   C     C_R   0.093870 0.365513 0.463984 -0.082745
C15   C     C_R   0.952981 0.499990 0.500013 -0.142869
C16   C     C_R   0.047019 0.499990 0.500013 -0.142869
C17   C     C_R   0.954095 0.237500 0.414758 0.595512
C18   C     C_R   0.045905 0.762474 0.585290 0.595512
C19   C     C_R   0.954096 0.762475 0.585286 0.595516
C20   C     C_R   0.045904 0.237501 0.414755 0.595504
C21   C     C_1   0.500000 0.065226 0.500174 -0.179455
C22   C     C_1   0.500000 0.934774 0.499826 -0.179454
F1    F     F_    0.913617 0.111791 0.357882 -0.620285
F2    F     F_    0.086385 0.888169 0.642197 -0.620272
F3    F     F_    0.913617 0.888177 0.642179 -0.620269
F4    F     F_    0.086382 0.111792 0.357876 -0.620290
C23   C     C_3   0.761263 0.784024 0.523085 -0.737422
H1    H     H_    0.692533 0.774538 0.475049 0.188002
H2    H     H_    0.756797 0.827936 0.650595 0.272123
H3    H     H_    0.794239 0.866728 0.440894 0.291449
C24   C     C_3   0.238743 0.215968 0.476908 -0.737413
H4    H     H_    0.307481 0.225462 0.524904 0.187999
H5    H     H_    0.205781 0.133269 0.559127 0.291427
H6    H     H_    0.243190 0.172047 0.349399 0.272132
C25   C     C_3   0.761257 0.215968 0.476913 -0.737415
H7    H     H_    0.692519 0.225462 0.524911 0.187999
H8    H     H_    0.756808 0.172047 0.349404 0.272130
H9    H     H_    0.794219 0.133270 0.559130 0.291430
C26   C     C_3   0.238737 0.784024 0.523084 -0.737426
H10   H     H_    0.307464 0.774538 0.475034 0.188005
H11   H     H_    0.205757 0.866730 0.440902 0.291450
H12   H     H_    0.243209 0.827930 0.650595 0.272121

loop_
_geom_bond_atom_site_label_1
_geom_bond_atom_site_label_2
_geom_bond_distance
_ccdc_geom_bond_type
C13   C19   1.408689 A    
C7    C11   1.405497 A    
C24   H4    1.106408 S    
C14   C20   1.408695 A    
C11   C15   1.421579 A    
C13   C15   1.421579 A    
C17   F1    1.357372 S    
C3    C10   1.426989 S    
C14   C16   1.421578 A    
C25   H7    1.106402 S    
O3    Zn1   1.949753 S    
C18   F2    1.357371 S    
C25   H9    1.110093 S    
O6    C4    1.269591 A    
C26   H12   1.109911 S    
C5    C13   1.405489 A    
O3    C2    1.262481 A    
C21   C22   1.163637 T    
C8    C26   1.524530 S    
C23   H2    1.109911 S    
C6    C10   1.404690 A    
C6    C24   1.524531 S    
O5    C3    1.269591 A    
C24   H5    1.110099 S    
C24   H6    1.109923 S    
O2    C2    1.263367 A    
C2    C22   1.363343 S    
O1    C1    1.263367 A    
N1    N2    1.195906 T    
C11   C17   1.408696 A    
C7    C9    1.404689 A    
C8    C10   1.404682 A    
C17   C20   1.378296 A    
C20   F4    1.357374 S    
C1    C21   1.363344 S    
C19   F3    1.357374 S    
O4    Zn2   1.949754 S    
C18   C19   1.378295 A    
O2    Zn2   1.951547 S    
O7    C4    1.269591 A    
C7    C25   1.524531 S    
C12   C18   1.408686 A    
O1    Zn1   1.951548 S    
O8    C3    1.269592 A    
C26   H10   1.106397 S    
C8    C12   1.405489 A    
O5    Zn1   2.018618 S    
C25   H8    1.109918 S    
C5    C23   1.524531 S    
Zn1   N2    1.977859 S    
C23   H1    1.106396 S    
O7    Zn1   2.018617 S    
C23   H3    1.110085 S    
O6    Zn2   2.018617 S    
C26   H11   1.110083 S    
Zn2   N1    1.977859 S    
C4    C9    1.426990 S    
C5    C9    1.404684 A    
C12   C16   1.421575 A    
O8    Zn2   2.018619 S    
O4    C1    1.262481 A    
C15   C16   1.411757 A    
C6    C14   1.405498 A    
