data_mof_unit_31494.cif
_audit_creation_date              2012-12-11T20:10:35-0500
_audit_creation_method            fapswitch 2.2
_symmetry_space_group_name_H-M    P1
_symmetry_Int_Tables_number       1
_space_group_crystal_system       triclinic
_cell_length_a                    8.330327
_cell_length_b                    16.315272
_cell_length_c                    18.854343
_cell_angle_alpha                 112.508299
_cell_angle_beta                  91.529251
_cell_angle_gamma                 84.035606
_cell_volume                      2354.26637631

loop_
_atom_site_label
_atom_site_type_symbol
_atom_type_description
_atom_site_fract_x
_atom_site_fract_y
_atom_site_fract_z
_atom_type_partial_charge
Ba1   Ba    Ba6+2 0.333520 0.539550 0.472180 1.695407
Ba2   Ba    Ba6+2 0.856270 0.460520 0.527840 1.688721
C1    C     C_3   0.073523 0.863754 0.367458 -0.334352
C2    C     C_R   0.424590 0.418621 0.078276 0.010028
C3    C     C_R   0.276776 0.384165 0.046782 0.116550
C4    C     C_3   0.502522 0.712426 0.305873 0.279041
C5    C     C_R   0.213673 0.394921 0.981026 -0.118510
C6    C     C_R   0.295638 0.436515 0.943034 0.016167
C7    C     C_R   0.440497 0.472093 0.972969 0.021770
C8    C     C_R   0.236216 0.439684 0.873896 -0.107328
C9    C     C_R   0.326468 0.471031 0.829211 -0.046788
C10   C     C_R   0.469976 0.510096 0.859669 0.005856
C11   C     C_R   0.525026 0.511563 0.932404 0.007975
C12   C     C_3   0.030257 0.772100 0.360813 0.471342
C13   C     C_R   0.283075 0.458887 0.753051 -0.049589
C14   C     C_R   0.386734 0.482816 0.707807 -0.111897
C15   C     C_R   0.513466 0.534185 0.740227 0.089702
C16   C     C_3   0.517260 0.733317 0.232759 -0.035688
C17   C     C_R   0.558689 0.547020 0.817462 -0.079653
C18   C     C_R   0.645710 0.503852 0.072989 -0.000806
C19   C     C_R   0.705325 0.501600 0.143901 -0.000648
C20   C     C_R   0.626483 0.455528 0.181949 -0.061815
C21   C     C_R   0.500934 0.403279 0.141570 0.004458
C22   C     C_R   0.693439 0.591419 0.852906 -0.044643
C23   C     C_3   0.006108 0.231799 0.263838 0.361966
C24   C     C_R   0.751549 0.589888 0.923424 0.034231
C25   C     C_R   0.667938 0.549073 0.963071 0.011418
C26   C     C_R   0.727752 0.545817 0.033392 0.017200
C27   C     C_R   0.895142 0.626566 0.954070 -0.074183
C28   C     C_3   0.635723 0.742657 0.677580 0.385642
C29   C     C_R   0.954362 0.623452 0.023210 -0.064183
C30   C     C_R   0.871207 0.583715 0.063427 0.053262
C31   C     C_R   0.846407 0.544023 0.175417 -0.047531
C32   C     C_R   0.929318 0.582342 0.133435 -0.054321
C33   C     C_R   0.900752 0.547209 0.248056 0.005446
C34   C     C_3   0.998202 0.136410 0.204291 -0.117425
C35   C     C_R   0.814355 0.508759 0.288146 -0.233410
C36   C     C_R   0.680399 0.462145 0.257441 0.027779
C37   C     C_2   0.408217 0.237852 0.480455 -0.289977
C38   C     C_R   0.792488 0.755452 0.524273 -0.150087
C39   C     C_2   0.229056 0.120717 0.421722 -0.129257
C40   C     C_3   0.640447 0.842601 0.724093 -0.104314
C41   C     C_2   0.256876 0.206208 0.442129 0.048884
C42   C     C_2   0.514324 0.185870 0.503693 -0.016537
C43   C     C_3   0.461707 0.099187 0.502579 -0.085994
C44   C     C_3   0.354301 0.054659 0.434115 0.079234
C45   C     C_3   0.609968 0.253891 0.685041 0.266230
C46   C     C_2   0.592745 0.032108 0.508350 -0.065182
C47   C     C_2   0.559848 0.973817 0.539606 0.166883
C48   C     C_R   0.817405 0.938126 0.591098 -0.011485
C49   C     C_R   0.685421 0.907115 0.545410 -0.063404
C50   C     C_R   0.937336 0.879887 0.604576 -0.150634
C51   C     C_R   0.928989 0.786848 0.568446 -0.017738
C52   C     C_3   0.559987 0.264881 0.337231 0.291112
C53   C     C_R   0.667815 0.815177 0.514662 0.049960
C54   C     C_3   0.569504 0.163503 0.299640 -0.361474
C55   C     C_3   0.149650 0.667990 0.711765 0.283392
C56   C     C_3   0.652145 0.265541 0.767693 -0.179080
C57   C     C_3   0.189743 0.701958 0.797550 -0.193660
C58   C     C_2   0.066034 0.774220 0.846163 0.929217
C59   C     C_2   0.002086 0.298302 0.226905 0.851718
C60   C     C_2   0.622682 0.806727 0.243448 0.962454
C61   C     C_2   0.701302 0.178044 0.775256 0.903528
C62   C     C_2   0.499130 0.312886 0.142222 0.920667
C63   C     C_2   0.055186 0.920259 0.664463 0.927709
C64   C     C_3   0.197692 0.255145 0.703334 0.301995
C65   C     C_3   0.172112 0.174530 0.722532 -0.060657
C66   C     C_R   0.502139 0.466260 0.042344 -0.017743
H1    H     H_    0.073432 0.763237 0.413997 0.057985
H2    H     H_    0.062871 0.617234 0.699212 0.062157
H3    H     H_    0.204720 0.868018 0.374936 0.147614
H4    H     H_    0.310136 0.727710 0.806045 0.081032
H5    H     H_    0.196576 0.645829 0.817310 -0.048616
H6    H     H_    0.012923 0.917111 0.418637 0.058161
H7    H     H_    0.896684 0.248625 0.300134 -0.051236
H8    H     H_    0.000177 0.089515 0.234469 0.054777
H9    H     H_    0.882300 0.132700 0.172986 0.132895
H10   H     H_    0.035290 0.876571 0.315469 0.121384
H11   H     H_    0.554297 0.319564 0.686908 -0.011692
H12   H     H_    0.752748 0.854063 0.758312 0.123063
H13   H     H_    0.521504 0.203938 0.662637 -0.013559
H14   H     H_    0.749412 0.310648 0.788417 0.106682
H15   H     H_    0.544552 0.297900 0.805198 -0.004344
H16   H     H_    0.291944 0.289688 0.742593 -0.074927
H17   H     H_    0.240574 0.233643 0.642903 -0.016740
H18   H     H_    0.290679 0.141368 0.729742 0.110917
H19   H     H_    0.403656 0.670207 0.299064 0.106232
H20   H     H_    0.107989 0.197191 0.778724 0.164407
H21   H     H_    0.100609 0.368326 0.958594 0.089941
H22   H     H_    0.123288 0.412417 0.853503 0.099784
H23   H     H_    0.642330 0.877316 0.683875 0.054166
H24   H     H_    0.758861 0.624088 0.824640 0.158064
H25   H     H_    0.963140 0.656791 0.924143 0.097817
H26   H     H_    0.065731 0.652234 0.045285 0.080671
H27   H     H_    0.039561 0.612221 0.154796 0.103174
H28   H     H_    0.614275 0.672057 0.310468 -0.043060
H29   H     H_    0.858030 0.510673 0.343078 0.072716
H30   H     H_    0.124163 0.096007 0.387943 0.070956
H31   H     H_    0.437193 0.302798 0.484963 0.050614
H32   H     H_    0.710133 0.026136 0.481985 0.073155
H33   H     H_    0.574931 0.672328 0.187409 0.041900
H34   H     H_    0.435376 0.291836 0.357643 0.049426
H35   H     H_    0.759262 0.714511 0.655723 -0.048061
H36   H     H_    0.549505 0.733016 0.629702 0.035335
H37   H     H_    0.498752 0.949264 0.797610 0.192482
H38   H     H_    0.515390 0.860524 0.821893 0.223651
H39   H     H_    0.832182 0.812300 0.877908 0.307203
H40   H     H_    0.798311 0.830565 0.392846 0.156035
H41   H     H_    0.827116 0.721415 0.373781 0.101139
H42   H     H_    0.099013 0.404044 0.223872 0.322217
H43   H     H_    0.110381 0.049286 0.105384 0.211994
H44   H     H_    0.236901 0.095601 0.176559 0.191669
H45   H     H_    0.644441 0.283432 0.386128 0.050529
H46   H     H_    0.825403 0.842140 0.211633 0.304209
H47   H     H_    0.650700 0.052603 0.753638 0.325358
H48   H     H_    0.118119 0.104500 0.608458 0.167158
H49   H     H_    0.960231 0.133004 0.669829 0.257392
H50   H     H_    0.173925 0.276309 0.043391 0.221452
H51   H     H_    0.067974 0.374986 0.093264 0.192962
H52   H     H_    0.365091 0.381587 0.606291 0.144305
H53   H     H_    0.274370 0.484671 0.611023 0.196965
H54   H     H_    0.383493 0.226430 0.169708 0.320508
H55   H     H_    0.286999 0.933070 0.694575 0.326906
H56   H     H_    0.482927 0.143102 0.251806 0.131424
H57   H     H_    0.872728 0.627854 0.454869 0.196969
H58   H     H_    0.751336 0.636399 0.530643 0.195809
H59   H     H_    0.315569 0.975467 0.534903 0.191614
H60   H     H_    0.390043 0.043694 0.618802 0.193119
H61   H     H_    0.295787 0.698537 0.187335 0.197198
H62   H     H_    0.295368 0.806827 0.247576 0.218883
H63   H     H_    0.540765 0.134646 0.341582 0.075145
H64   H     H_    0.693117 0.135685 0.276829 0.102694
H65   H     H_    0.262723 0.637175 0.678495 -0.017275
N1    N     N_3   0.499573 0.879849 0.775074 -0.453136
N2    N     N_3   0.855988 0.770329 0.354925 -0.476894
N3    N     N_3   0.132777 0.109537 0.149298 -0.457678
N4    N     N_3   0.082349 0.110154 0.662999 -0.461034
N5    N     N_3   0.184154 0.341344 0.082527 -0.455697
N6    N     N_3   0.372304 0.449991 0.626430 -0.451441
N7    N     N_3   0.774883 0.662338 0.489878 -0.477753
N8    N     N_3   0.406637 0.980745 0.575143 -0.443129
N9    N     N_3   0.360221 0.754472 0.204009 -0.505572
O1    O     O_2   0.402610 0.439360 0.314250 -0.397237
O2    O     O_2   0.851853 0.190908 0.498587 -0.480070
O3    O     O_3   0.748920 0.225397 0.637993 -0.577725
O4    O     O_3   0.648560 0.446300 0.404730 -0.507987
O5    O     O_3   0.025080 0.609480 0.556050 -0.515984
O6    O     O_2   0.948320 0.280590 0.426090 -0.479688
O7    O     O_3   0.152718 0.235374 0.303445 -0.650535
O8    O     O_2   0.947909 0.475954 0.750720 -0.479117
O9    O     O_3   0.053003 0.310951 0.715464 -0.560299
O10   O     O_3   0.108870 0.604000 0.387500 -0.489213
O11   O     O_2   0.239822 0.540956 0.249341 -0.501950
O12   O     O_3   0.082030 0.739240 0.693127 -0.622326
O13   O     O_3   0.602617 0.297125 0.282444 -0.618878
O14   O     O_3   0.105625 0.705505 0.294615 -0.609835
O15   O     O_2   0.241370 0.719440 0.573960 -0.414944
O16   O     O_3   0.507090 0.652150 0.432150 -0.471963
O17   O     O_2   0.329813 0.805977 0.498474 -0.446207
O18   O     O_2   0.107853 0.846484 0.888212 -0.583963
O19   O     O_R   0.903668 0.758877 0.842519 -0.784363
O20   O     O_2   0.917258 0.291455 0.171432 -0.611527
O21   O     O_R   0.096836 0.368934 0.257497 -0.701788
O22   O     O_2   0.582073 0.882916 0.288234 -0.608649
O23   O     O_3   0.474428 0.791157 0.371982 -0.611867
O24   O     O_R   0.765747 0.787567 0.200521 -0.762155
O25   O     O_2   0.823902 0.169176 0.809740 -0.573040
O26   O     O_R   0.604508 0.107919 0.744947 -0.784609
O27   O     O_2   0.609300 0.255786 0.110427 -0.566400
O28   O     O_R   0.372079 0.291397 0.176352 -0.690227
O29   O     O_2   0.007281 0.977714 0.725926 -0.569720
O30   O     O_R   0.220113 0.895558 0.650879 -0.699971
O31   O     O_2   0.787080 0.560670 0.685800 -0.461149
O32   O     O_3   0.541120 0.553770 0.595290 -0.486964
O33   O     O_3   0.080800 0.396070 0.612520 -0.471531
O34   O     O_3   0.586942 0.702440 0.725459 -0.634806
O35   O     O_3   0.164600 0.390590 0.443970 -0.448430
O36   O     O_3   0.682580 0.347920 0.567870 -0.446135
P1    P     P_3+3 0.582960 0.413890 0.320860 1.026197
P2    P     P_3+3 0.071690 0.707860 0.593450 1.013072
P3    P     P_3+3 0.492710 0.767320 0.455540 0.995662
P4    P     P_3+3 0.606720 0.586180 0.679160 0.997688
P5    P     P_3+3 0.700258 0.234152 0.550177 0.988264
P6    P     P_3+3 0.087513 0.598372 0.293697 0.941623
P7    P     P_3+3 0.129605 0.277464 0.403822 0.974125
P8    P     P_3+3 0.093886 0.410846 0.709032 0.967502

loop_
_geom_bond_atom_site_label_1
_geom_bond_atom_site_label_2
_ccdc_geom_bond_type
O9    P8    S    
C45   O3    S    
O7    P7    S    
O12   P2    S    
H41   N2    S    
C45   H11   S    
O32   P4    S    
C64   H17   S    
C35   H29   S    
O14   P6    S    
C3    N5    S    
C43   C44   S    
C42   C43   S    
O34   P4    S    
C10   C11   A    
H58   N7    S    
C65   H20   S    
C63   O29   D    
C54   H56   S    
Ba1   O16   S    
C33   C35   A    
C22   C24   A    
Ba1   Ba2   S    
C34   H9    S    
C56   H14   S    
Ba2   O31   S    
H59   N8    S    
C40   H12   S    
Ba1   P2    S    
O6    P7    D    
H43   N3    S    
C55   C57   S    
C19   C31   A    
C12   N2    S    
C41   P7    S    
Ba2   O6    S    
C13   C14   A    
C5    H21   S    
C52   H45   S    
C22   H24   S    
O35   P7    S    
Ba1   O10   S    
C23   O7    S    
C40   H23   S    
Ba2   P4    S    
C62   O27   D    
C1    H6    S    
C7    C11   A    
C34   H8    S    
C15   C17   A    
Ba1   O35   S    
C15   P4    S    
C60   O22   D    
H39   O19   S    
C14   C15   A    
C47   C49   S    
C47   N8    S    
C28   H35   S    
C48   C50   A    
C39   C44   S    
Ba2   O35   S    
O1    P1    D    
C55   H2    S    
O10   P6    S    
H60   N8    S    
C57   H5    S    
H55   O30   S    
C57   H4    S    
C61   O25   D    
C64   C65   S    
C4    O23   S    
C57   C58   S    
C52   H34   S    
C19   C20   A    
C39   C41   D    
C55   H65   S    
Ba1   O4    S    
C9    C13   A    
H44   N3    S    
C4    C16   S    
C34   N3    S    
C28   O34   S    
O13   P1    S    
H46   O24   S    
C20   C21   A    
H57   N7    S    
C46   H32   S    
C13   P8    S    
C52   C54   S    
Ba1   O32   S    
C1    H10   S    
C63   O30   S    
C59   O20   D    
C16   N9    S    
C32   H27   S    
H40   N2    S    
C52   O13   S    
C3    C5    A    
C2    C21   A    
C6    C7    A    
C37   C41   S    
H61   N9    S    
C18   C26   A    
H54   O28   S    
C33   P6    S    
C4    H19   S    
C23   H7    S    
O15   P2    D    
C30   C32   A    
O36   P5    S    
C1    H3    S    
C35   C36   A    
Ba1   O1    S    
Ba2   O33   S    
O5    P2    S    
C37   H31   S    
C29   C30   A    
O11   P6    D    
C26   C30   A    
C9    C10   A    
C38   C53   A    
C58   O19   S    
C53   P3    S    
C48   C49   A    
H52   N6    S    
C23   C59   S    
O17   P3    D    
C42   P5    S    
C54   H64   S    
C1    C12   S    
C21   C62   S    
C60   O24   S    
O31   P4    D    
C4    H28   S    
C24   C25   A    
C12   H1    S    
Ba1   O5    S    
C14   N6    S    
C51   P2    S    
C50   C51   A    
C2    C66   A    
H48   N4    S    
C43   C46   S    
C56   C61   S    
C61   O26   S    
C65   H18   S    
C36   P1    S    
C12   O14   S    
C59   O21   S    
H51   N5    S    
C28   C40   S    
C18   C66   A    
H49   N4    S    
C58   O18   D    
C2    C3    A    
O8    P8    D    
H42   O21   S    
C37   C42   D    
Ba2   O4    S    
C29   H26   S    
C55   O12   S    
O3    P5    S    
C40   N1    S    
O23   P3    S    
H53   N6    S    
Ba1   O15   S    
C17   C22   A    
Ba2   O5    S    
C7    C66   A    
C64   O9    S    
C27   C29   A    
C56   H15   S    
Ba2   O32   S    
C45   C56   S    
C27   H25   S    
Ba1   P1    S    
C46   C47   D    
C38   N7    S    
C10   C17   A    
C31   C33   A    
C31   C32   A    
O4    P1    S    
C49   C53   A    
C45   H13   S    
C62   O28   S    
H62   N9    S    
O16   P3    S    
O2    P5    D    
C54   H63   S    
C5    C6    A    
C8    C9    A    
C23   C34   S    
C64   H16   S    
H38   N1    S    
C18   C19   A    
C8    H22   S    
C24   C27   A    
C6    C8    A    
C38   C51   A    
C28   H36   S    
C25   C26   A    
C39   H30   S    
C11   C25   A    
C16   C60   S    
Ba2   O36   S    
H47   O26   S    
H50   N5    S    
C65   N4    S    
C16   H33   S    
C50   C63   S    
H37   N1    S    
O33   P8    S    
C20   C36   A    
