data_mof_unit_52872.cif
_audit_creation_date              2012-10-26T21:21:07-0400
_audit_creation_method            fapswitch 2.2
_symmetry_space_group_name_H-M    P1
_symmetry_Int_Tables_number       1
_space_group_crystal_system       triclinic
_cell_length_a                    10.789527
_cell_length_b                    10.934254
_cell_length_c                    9.698511
_cell_angle_alpha                 90.309572
_cell_angle_beta                  89.885518
_cell_angle_gamma                 89.766432
_cell_volume                      1144.15745086

loop_
_atom_site_label
_atom_site_type_symbol
_atom_type_description
_atom_site_fract_x
_atom_site_fract_y
_atom_site_fract_z
_atom_type_partial_charge
C1    C     C_R   0.504534 0.265614 0.499604 0.555619
C2    C     C_2   0.520109 0.134487 0.499954 -0.064415
C3    C     C_2   0.426963 0.431461 0.921880 0.003978
C4    C     C_R   0.262570 0.504956 0.500295 0.535635
C5    C     C_2   0.428694 0.429669 0.077546 -0.002039
C6    C     C_R   0.495114 0.734615 0.500534 0.562747
C7    C     C_R   0.737348 0.504288 0.499861 0.533099
C8    C     C_R   0.127005 0.693102 0.658188 -0.074703
C9    C     C_R   0.061637 0.781111 0.734258 0.128431
C10   C     C_R   0.931766 0.782238 0.731008 0.240068
C11   C     C_R   0.868665 0.694939 0.653192 -0.089540
C12   C     C_R   0.064419 0.602554 0.580697 -0.023104
C13   C     C_R   0.933424 0.602997 0.579159 -0.022863
C14   C     C_R   0.128679 0.513702 0.500716 0.013857
C15   C     C_R   0.064483 0.431028 0.417517 -0.130961
C16   C     C_R   0.936672 0.430814 0.417162 -0.129475
C17   C     C_R   0.870987 0.513674 0.499492 0.016606
C18   C     C_2   0.506159 0.933333 0.393107 -0.123476
C19   C     C_2   0.474966 0.865716 0.503207 0.219797
C20   C     C_2   0.492628 0.066272 0.389628 -0.124120
Cl1   Cl    Cl    0.845641 0.893603 0.821809 -0.605240
Cl2   Cl    Cl    0.392949 0.924700 0.647708 -0.596987
Cu1   Cu    Cu3+1 0.500020 0.500020 0.638630 0.997034
Cu2   Cu    Cu3+1 0.499980 0.499980 0.361370 0.961897
H1    H     H_    0.113744 0.364084 0.355090 0.131458
H2    H     H_    0.543055 0.889811 0.300696 0.138077
H3    H     H_    0.464993 0.108266 0.293125 0.152675
H4    H     H_    0.105071 0.956685 0.777965 0.286404
H5    H     H_    0.101817 0.862561 0.916148 0.264553
H6    H     H_    0.556734 0.093617 0.593178 0.186247
H7    H     H_    0.361563 0.371710 0.870318 0.153549
H8    H     H_    0.562488 0.553959 0.894081 0.221382
H9    H     H_    0.366531 0.366627 0.128639 0.140377
H10   H     H_    0.556111 0.560323 0.106293 0.218463
H11   H     H_    0.226933 0.698276 0.659173 0.198062
H12   H     H_    0.768801 0.701907 0.649694 0.170344
H13   H     H_    0.888608 0.363580 0.354743 0.138511
N1    N     N_2   0.498640 0.498660 0.846910 -0.339324
N2    N     N_2   0.498610 0.498630 0.153040 -0.341905
N3    N     N_3   0.129157 0.869530 0.813021 -0.541132
O1    O     O_R   0.500020 0.321960 0.617040 -0.478458
O2    O     O_R   0.499980 0.321920 0.382900 -0.501273
O3    O     O_R   0.319670 0.500020 0.617100 -0.506903
O4    O     O_R   0.319630 0.499980 0.382950 -0.494905
O5    O     O_R   0.500020 0.678080 0.617100 -0.460916
O6    O     O_R   0.499980 0.678040 0.382960 -0.519516
O7    O     O_R   0.680370 0.500020 0.617050 -0.503094
O8    O     O_R   0.680330 0.499980 0.382900 -0.494520

loop_
_geom_bond_atom_site_label_1
_geom_bond_atom_site_label_2
_ccdc_geom_bond_type
Cu1   Cu2   S    
Cu1   O5    S    
C6    O5    A    
H8    N1    S    
Cu1   N1    S    
Cu2   O2    S    
C9    C10   A    
Cu1   O1    S    
C13   C17   A    
C16   H13   S    
C8    C12   A    
Cu2   O6    S    
C7    O8    A    
C19   Cl2   S    
C3    H7    S    
C6    C19   S    
C11   C13   A    
C4    O4    A    
H5    N3    S    
C1    O1    A    
C11   H12   S    
C20   H3    S    
C4    O3    A    
C12   C14   A    
C1    C2    S    
C18   C20   S    
C5    N2    D    
C10   Cl1   S    
C4    C14   S    
Cu2   O4    S    
C7    O7    A    
C15   H1    S    
Cu1   O7    S    
C2    H6    S    
H4    N3    S    
C2    C20   D    
H10   N2    S    
Cu2   O8    S    
C1    O2    A    
Cu2   N2    S    
Cu1   O3    S    
C12   C13   A    
C18   C19   D    
C10   C11   A    
C14   C15   A    
C8    C9    A    
C6    O6    A    
C3    C5    S    
C9    N3    S    
C15   C16   A    
C3    N1    D    
C5    H9    S    
C16   C17   A    
C7    C17   S    
C8    H11   S    
C18   H2    S    
