data_mof_unit_14884.cif
_audit_creation_date              2012-12-10T17:17:50-0500
_audit_creation_method            fapswitch 2.2
_symmetry_space_group_name_H-M    P1
_symmetry_Int_Tables_number       1
_space_group_crystal_system       triclinic
_cell_length_a                    14.806241
_cell_length_b                    15.917215
_cell_length_c                    9.591339
_cell_angle_alpha                 90.319335
_cell_angle_beta                  90.868855
_cell_angle_gamma                 90.060494
_cell_volume                      2260.13391977

loop_
_atom_site_label
_atom_site_type_symbol
_atom_type_description
_atom_site_fract_x
_atom_site_fract_y
_atom_site_fract_z
_atom_type_partial_charge
C1    C     C_R   0.384622 0.878428 0.499189 0.783897
C2    C     C_R   0.385717 0.122706 0.500889 0.792034
C3    C     C_R   0.884631 0.378422 0.499190 0.783903
C4    C     C_R   0.885714 0.622705 0.500892 0.792042
C5    C     C_R   0.285500 0.222446 0.379499 -0.236565
C6    C     C_R   0.260075 0.799851 0.387441 -0.213284
C7    C     C_R   0.785543 0.722484 0.379511 -0.236588
C8    C     C_R   0.760099 0.299829 0.387443 -0.213315
C9    C     C_R   0.716063 0.780423 0.379589 -0.198113
C10   C     C_R   0.691503 0.240865 0.392346 -0.246286
C11   C     C_R   0.216017 0.280383 0.379585 -0.198176
C12   C     C_R   0.191483 0.740879 0.392340 -0.246245
C13   C     C_R   0.677222 0.806073 0.505122 -0.120037
C14   C     C_R   0.679345 0.192606 0.512279 -0.130790
C15   C     C_R   0.177218 0.306068 0.505132 -0.119992
C16   C     C_R   0.179323 0.692621 0.512275 -0.130862
C17   C     C_R   0.672128 0.975933 0.137735 0.475721
C18   C     C_R   0.172142 0.475974 0.137734 0.475717
C19   C     C_R   0.740132 0.939218 0.056075 -0.314823
C20   C     C_R   0.240166 0.439299 0.056062 -0.314819
C21   C     C_R   0.738299 0.949572 0.914780 -0.257576
C22   C     C_R   0.238321 0.449644 0.914768 -0.257635
C23   C     C_R   0.662148 0.982170 0.852537 -0.154006
C24   C     C_R   0.162150 0.482199 0.852529 -0.153994
C25   C     C_R   0.580718 0.990657 0.925041 0.130724
C26   C     C_R   0.080721 0.490672 0.925040 0.130709
C27   C     C_R   0.582716 0.989319 0.075093 0.102583
C28   C     C_R   0.082722 0.489336 0.075093 0.102582
C29   C     C_R   0.423000 0.009246 0.072251 -0.078411
C30   C     C_R   0.922997 0.509228 0.072250 -0.078409
C31   C     C_R   0.615670 0.121848 0.502785 0.816199
C32   C     C_R   0.613801 0.876884 0.501043 0.800867
C33   C     C_R   0.115661 0.621853 0.502784 0.816178
C34   C     C_R   0.113800 0.376883 0.501046 0.800926
C35   C     C_R   0.423036 0.008896 0.924481 -0.056756
C36   C     C_R   0.923034 0.508878 0.924481 -0.056782
C37   C     C_R   0.335419 0.214659 0.764373 -0.170044
C38   C     C_R   0.383976 0.750165 0.718989 -0.159497
C39   C     C_R   0.835331 0.714586 0.764410 -0.170070
C40   C     C_R   0.884005 0.250163 0.719002 -0.159473
C41   C     C_R   0.290356 0.227174 0.889106 -0.171958
C42   C     C_R   0.369304 0.710623 0.845590 -0.144403
C43   C     C_R   0.790230 0.727080 0.889112 -0.171973
C44   C     C_R   0.869329 0.210643 0.845619 -0.144380
C45   C     C_R   0.701020 0.753471 0.886218 -0.125873
C46   C     C_R   0.785000 0.177004 0.872480 -0.154360
C47   C     C_R   0.201140 0.253549 0.886262 -0.125890
C48   C     C_R   0.284972 0.676992 0.872454 -0.154352
C49   C     C_R   0.660774 0.776887 0.760076 -0.153235
C50   C     C_R   0.718521 0.175777 0.767979 -0.186877
C51   C     C_R   0.160850 0.276936 0.760132 -0.153238
C52   C     C_R   0.218486 0.675797 0.767962 -0.186845
C53   C     C_R   0.708196 0.770548 0.633049 0.087152
C54   C     C_R   0.735920 0.206956 0.632416 0.099527
C55   C     C_R   0.208234 0.270576 0.633067 0.087163
C56   C     C_R   0.235892 0.706974 0.632404 0.099581
C57   C     C_R   0.290443 0.226151 0.634078 0.104957
C58   C     C_R   0.314722 0.755265 0.616263 0.092991
C59   C     C_R   0.790400 0.726114 0.634090 0.104992
C60   C     C_R   0.814749 0.255251 0.616271 0.092976
C61   C     C_R   0.323008 0.193987 0.505383 -0.113560
C62   C     C_R   0.321643 0.807876 0.498742 -0.112049
C63   C     C_R   0.823005 0.693984 0.505397 -0.113558
C64   C     C_R   0.821665 0.307860 0.498744 -0.112033
Cu1   Cu    Cu3+1 0.499990 0.000000 0.640660 0.918506
Cu2   Cu    Cu3+1 0.999990 0.500000 0.640660 0.918496
Cu3   Cu    Cu3+1 0.500010 0.000000 0.359340 0.969368
Cu4   Cu    Cu3+1 0.000010 0.500000 0.359340 0.969367
H1    H     H_    0.310180 0.200280 0.280111 0.157330
H2    H     H_    0.264845 0.839390 0.296245 0.162716
H3    H     H_    0.810257 0.700349 0.280129 0.157326
H4    H     H_    0.764871 0.339361 0.296246 0.162730
H5    H     H_    0.797300 0.935138 0.853699 0.182999
H6    H     H_    0.297324 0.435227 0.853681 0.183023
H7    H     H_    0.359780 0.016070 0.867916 0.146838
H8    H     H_    0.859775 0.516036 0.867915 0.146839
H9    H     H_    0.405909 0.197815 0.772413 0.162774
H10   H     H_    0.449955 0.775993 0.701416 0.135540
H11   H     H_    0.905816 0.697737 0.772501 0.162806
H12   H     H_    0.949987 0.275985 0.701419 0.135534
H13   H     H_    0.324276 0.215143 0.987779 0.128151
H14   H     H_    0.422268 0.708940 0.924596 0.129526
H15   H     H_    0.824116 0.715024 0.987799 0.128145
H16   H     H_    0.922287 0.208982 0.924637 0.129518
H17   H     H_    0.664364 0.760026 0.982506 0.130990
H18   H     H_    0.770988 0.151379 0.974230 0.134244
H19   H     H_    0.164513 0.260117 0.982577 0.130984
H20   H     H_    0.270966 0.651352 0.974197 0.134285
H21   H     H_    0.592123 0.798189 0.764891 0.152614
H22   H     H_    0.653093 0.154807 0.800032 0.170451
H23   H     H_    0.092194 0.298227 0.764990 0.152629
H24   H     H_    0.153051 0.654846 0.800006 0.170457
H25   H     H_    0.692407 0.804714 0.280330 0.165540
H26   H     H_    0.647780 0.232777 0.301623 0.162464
H27   H     H_    0.192326 0.304645 0.280324 0.165502
H28   H     H_    0.147762 0.732792 0.301615 0.162466
H29   H     H_    0.801920 0.915645 0.102752 0.155240
H30   H     H_    0.301967 0.415743 0.102722 0.155251
N1    N     N_R   0.501200 0.000000 0.147910 -0.188222
N2    N     N_R   0.001200 0.500000 0.147910 -0.188216
N3    N     N_R   0.501270 0.000000 0.852040 -0.195438
N4    N     N_R   0.001270 0.500000 0.852040 -0.195444
O1    O     O_R   0.409820 0.909830 0.618810 -0.579423
O2    O     O_R   0.409820 0.090170 0.618810 -0.593224
O3    O     O_R   0.909820 0.409830 0.618810 -0.579415
O4    O     O_R   0.909820 0.590170 0.618810 -0.593246
O5    O     O_R   0.409840 0.909830 0.381240 -0.586315
O6    O     O_R   0.409840 0.090170 0.381240 -0.588990
O7    O     O_R   0.909840 0.409830 0.381240 -0.586327
O8    O     O_R   0.909840 0.590170 0.381240 -0.588981
O9    O     O_R   0.590170 0.090170 0.618760 -0.630631
O10   O     O_R   0.590170 0.909830 0.618760 -0.622357
O11   O     O_R   0.090170 0.590170 0.618760 -0.630637
O12   O     O_R   0.090170 0.409830 0.618760 -0.622382
O13   O     O_R   0.590190 0.090180 0.381190 -0.523620
O14   O     O_R   0.590190 0.909820 0.381190 -0.528170
O15   O     O_R   0.090190 0.590180 0.381190 -0.523617
O16   O     O_R   0.090190 0.409820 0.381190 -0.528147
H31   H     H_    0.670085 0.998563 0.746687 0.216735
H32   H     H_    0.170074 0.498573 0.746672 0.216768
H33   H     H_    0.359799 0.016724 0.126030 0.131936
H34   H     H_    0.859794 0.516691 0.126029 0.131939
O17   O     O_3   0.695994 0.000769 0.272205 -0.543060
C65   C     C_3   0.783004 0.039336 0.283905 0.060780
H35   H     H_    0.776388 0.100123 0.338064 0.174697
H36   H     H_    0.813539 0.056937 0.182752 0.080322
C66   C     C_3   0.848570 0.984241 0.368560 -0.377994
H37   H     H_    0.841573 0.917452 0.336453 0.224881
H38   H     H_    0.918990 0.004167 0.347447 0.177801
C67   C     C_3   0.832858 0.991687 0.525055 -0.794790
H39   H     H_    0.849103 0.056224 0.562258 0.240385
H40   H     H_    0.876901 0.946513 0.581779 0.231926
H41   H     H_    0.761628 0.977443 0.548750 0.259336
O18   O     O_3   0.195987 0.500771 0.272231 -0.543063
C68   C     C_3   0.283006 0.539312 0.284023 0.060803
H42   H     H_    0.276397 0.600068 0.338281 0.174730
H43   H     H_    0.313555 0.556971 0.182911 0.080325
C69   C     C_3   0.348541 0.484154 0.368612 -0.378013
H44   H     H_    0.341463 0.417375 0.336491 0.224971
H45   H     H_    0.418976 0.504018 0.347452 0.177824
C70   C     C_3   0.332880 0.491598 0.525116 -0.795179
H46   H     H_    0.349269 0.556087 0.562343 0.240428
H47   H     H_    0.376827 0.446338 0.581786 0.232014
H48   H     H_    0.261638 0.477484 0.548846 0.259357

loop_
_geom_bond_atom_site_label_1
_geom_bond_atom_site_label_2
_ccdc_geom_bond_type
C34   O16   A    
C68   C69   S    
Cu2   Cu4   S    
C58   C62   A    
C40   C60   A    
Cu2   O11   S    
C30   N2    A    
C43   H15   S    
Cu2   N4    S    
C13   C32   S    
C45   H17   S    
C42   H14   S    
Cu1   N3    S    
C14   C31   S    
Cu3   O5    S    
C1    C62   S    
C16   C56   A    
C53   C59   A    
C68   H42   S    
C54   C60   A    
C3    C64   S    
C3    O3    A    
C33   O15   A    
C4    C63   S    
C27   N1    A    
C50   C54   A    
C50   H22   S    
C19   C21   A    
C24   C26   A    
C5    C11   A    
C70   H47   S    
C6    C12   A    
C16   C33   S    
Cu3   O6    S    
C39   H11   S    
C10   H26   S    
C21   H5    S    
C36   N4    A    
C9    C13   A    
Cu1   O9    S    
C5    H1    S    
C36   H8    S    
Cu4   O16   S    
C38   C58   A    
C11   C15   A    
C17   O17   S    
C30   H34   S    
Cu1   Cu3   S    
C29   H33   S    
C40   H12   S    
C45   C49   A    
C20   C22   A    
Cu2   O12   S    
C1    O1    A    
C15   C34   S    
C18   C20   A    
C2    C61   S    
Cu3   N1    S    
C51   H23   S    
C28   N2    A    
C39   C59   A    
C68   H43   S    
Cu2   O4    S    
C31   O13   A    
C44   C46   A    
C46   C50   A    
C13   C53   A    
C19   H29   S    
C24   H32   S    
C8    H4    S    
C29   N1    A    
C17   C27   A    
C12   C16   A    
O17   C65   S    
C18   C28   A    
C10   C14   A    
C70   H48   S    
C39   C43   A    
C38   H10   S    
C35   N3    A    
C37   H9    S    
C47   H19   S    
C42   C48   A    
C67   H40   S    
Cu3   O14   S    
C66   H38   S    
Cu1   O10   S    
Cu4   O15   S    
C2    O2    A    
C41   H13   S    
C48   H20   S    
C41   C47   A    
C5    C61   A    
Cu4   O8    S    
C32   O14   A    
C43   C45   A    
C7    C63   A    
C69   H45   S    
C8    C64   A    
C65   C66   S    
C14   C54   A    
C1    O5    A    
C21   C23   A    
C22   C24   A    
C59   C63   A    
C52   H24   S    
C67   H41   S    
C34   O12   A    
Cu1   O1    S    
Cu2   O3    S    
C40   C44   A    
C66   H37   S    
C9    H25   S    
C65   H36   S    
C11   H27   S    
C6    H2    S    
C4    O8    A    
C32   O10   A    
C26   C28   A    
Cu4   N2    S    
C35   H7    S    
C49   H21   S    
C44   H16   S    
C69   C70   S    
C47   C51   A    
C57   C61   A    
O18   C68   S    
C25   C27   A    
C29   C35   A    
C33   O11   A    
C30   C36   A    
C60   C64   A    
C6    C62   A    
C55   C57   A    
C67   H39   S    
C66   C67   S    
C70   H46   S    
C26   N4    A    
C7    H3    S    
C25   N3    A    
C4    O4    A    
C3    O7    A    
C49   C53   A    
C2    O6    A    
C17   C19   A    
C56   C58   A    
C18   O18   S    
C51   C55   A    
Cu4   O7    S    
C23   C25   A    
C37   C41   A    
Cu3   O13   S    
C69   H44   S    
C38   C42   A    
C7    C9    A    
C48   C52   A    
C20   H30   S    
C22   H6    S    
C8    C10   A    
C31   O9    A    
C12   H28   S    
C23   H31   S    
Cu1   O2    S    
C37   C57   A    
C52   C56   A    
C15   C55   A    
C65   H35   S    
C46   H18   S    
