data_mof_unit_62354.cif
_audit_creation_date              2012-12-11T15:51:22-0500
_audit_creation_method            fapswitch 2.2
_symmetry_space_group_name_H-M    P1
_symmetry_Int_Tables_number       1
_space_group_crystal_system       triclinic
_cell_length_a                    6.947871
_cell_length_b                    17.371487
_cell_length_c                    18.756172
_cell_angle_alpha                 106.204813
_cell_angle_beta                  89.854156
_cell_angle_gamma                 90.561252
_cell_volume                      2173.72988464

loop_
_atom_site_label
_atom_site_type_symbol
_atom_type_description
_atom_site_fract_x
_atom_site_fract_y
_atom_site_fract_z
_atom_type_partial_charge
O1    O     O_R   0.494360 0.415660 0.413760 -0.500152
O2    O     O_R   0.818840 0.432910 0.557230 -0.532449
O3    O     O_R   0.994290 0.584340 0.586240 -0.543599
C1    C     C_R   0.649907 0.415952 0.580632 0.721735
O4    O     O_R   0.823740 0.406430 0.412520 -0.538628
O5    O     O_R   0.999220 0.557660 0.440500 -0.527846
C2    C     C_R   0.654168 0.383527 0.384398 0.767700
O6    O     O_R   0.489430 0.442340 0.559500 -0.524119
O7    O     O_3   0.662490 0.549650 0.509350 -0.363529
V1    V     V_3+5 0.935340 0.490790 0.498270 1.485820
O8    O     O_R   0.329240 0.567090 0.442770 -0.527709
C3    C     C_R   0.161043 0.584061 0.419377 0.730870
O9    O     O_R   0.324340 0.593570 0.587480 -0.503253
C4    C     C_R   0.155670 0.616568 0.615567 0.765071
V2    V     V_3+5 0.435970 0.509210 0.501730 1.540302
O10   O     O_3   0.158950 0.450350 0.490650 -0.355471
C5    C     C_R   0.308595 0.711456 0.729434 0.656145
C6    C     C_R   0.295134 0.775454 0.794056 -0.273044
H1    H     H_    0.422871 0.793595 0.827732 0.223738
C7    C     C_R   0.119524 0.814886 0.815683 -0.286208
C8    C     C_R   0.956537 0.788522 0.770499 0.656097
C9    C     C_R   0.969999 0.724527 0.705881 -0.273004
H2    H     H_    0.842256 0.706390 0.672208 0.223799
C10   C     C_R   0.145598 0.685088 0.684256 -0.286262
C11   C     C_1   0.111773 0.863901 0.132628 -0.200796
C12   C     C_1   0.119213 0.821331 0.176189 0.010186
C13   C     C_1   0.128489 0.771117 0.228078 0.007998
C14   C     C_1   0.136403 0.728832 0.271879 0.008000
C15   C     C_1   0.145677 0.678617 0.323768 0.010195
C16   C     C_1   0.153111 0.636048 0.367330 -0.200813
C17   C     C_1   0.641397 0.364030 0.632674 -0.198554
C18   C     C_1   0.637181 0.321452 0.676250 0.009407
C19   C     C_1   0.633717 0.271218 0.728142 0.007973
C20   C     C_1   0.631120 0.228899 0.771955 0.007972
C21   C     C_1   0.627657 0.178659 0.823842 0.009408
C22   C     C_1   0.623443 0.136068 0.867408 -0.198502
C23   C     C_R   0.805336 0.269004 0.288977 -0.281536
H3    H     H_    0.940858 0.282108 0.318455 0.222576
C24   C     C_R   0.796696 0.204713 0.224472 0.636998
C25   C     C_R   0.622822 0.184850 0.184412 -0.270185
C26   C     C_R   0.459259 0.231034 0.211071 -0.281513
H4    H     H_    0.323742 0.217925 0.181591 0.222579
C27   C     C_R   0.467901 0.295327 0.275580 0.636891
C28   C     C_R   0.641782 0.315191 0.315635 -0.270271
O11   O     O_R   0.775430 0.057750 0.940570 -0.524168
O12   O     O_R   0.440960 0.093590 0.087490 -0.538581
O13   O     O_R   0.265640 0.942320 0.059480 -0.527849
C29   C     C_R   0.610496 0.116519 0.115643 0.767954
O14   O     O_R   0.446010 0.067110 0.942790 -0.532418
O15   O     O_R   0.270710 0.915650 0.913740 -0.543627
C30   C     C_R   0.614943 0.084116 0.919423 0.721686
O16   O     O_R   0.770350 0.084410 0.086310 -0.500223
O17   O     O_3   0.602410 0.950400 0.990690 -0.363605
V3    V     V_3+5 0.329510 0.009200 0.001730 1.485766
O18   O     O_R   0.940670 0.906340 0.912450 -0.503398
C31   C     C_R   0.109381 0.883389 0.884384 0.764937
O19   O     O_R   0.935630 0.932820 0.057160 -0.527765
C32   C     C_R   0.103828 0.915887 0.080580 0.730788
V4    V     V_3+5 0.828890 0.990680 0.998180 1.540385
O20   O     O_3   0.105860 0.049600 0.009310 -0.355450
F1    F     F_    0.480689 0.674582 0.712334 -0.675618
F2    F     F_    0.784437 0.825394 0.787592 -0.675660
F3    F     F_    0.958715 0.161538 0.202329 -0.683554
F4    F     F_    0.305889 0.338504 0.297731 -0.683615

loop_
_geom_bond_atom_site_label_1
_geom_bond_atom_site_label_2
_ccdc_geom_bond_type
O5    V1    S    
C5    F1    S    
O2    C1    A    
O8    C3    A    
C25   C26   A    
C23   H3    S    
O1    V2    S    
O16   V4    S    
O18   V4    S    
C24   F3    S    
C26   H4    S    
C8    F2    S    
C21   C22   T    
C7    C31   S    
C1    O6    A    
C22   C30   S    
C18   C19   S    
O12   V3    S    
C23   C28   A    
C19   C20   T    
O17   V4    S    
V4    O20   S    
C23   C24   A    
O3    V1    S    
V3    O20   S    
O17   V3    S    
O13   C32   A    
C26   C27   A    
O19   C32   A    
C15   C16   T    
O3    C4    A    
O13   V3    S    
O1    C2    A    
C8    C9    A    
C14   C15   S    
C27   F4    S    
C5    C6    A    
O6    V2    S    
C6    C7    A    
O9    V2    S    
C27   C28   A    
O5    C3    A    
C9    C10   A    
O18   C31   A    
O19   V4    S    
C5    C10   A    
C11   C32   S    
O11   C30   A    
C24   C25   A    
O4    V1    S    
O14   V3    S    
C1    C17   S    
O12   C29   A    
O15   V3    S    
C29   O16   A    
C7    C8    A    
C25   C29   S    
C20   C21   S    
O7    V1    S    
C4    C10   S    
C13   C14   T    
O4    C2    A    
C6    H1    S    
C9    H2    S    
O11   V4    S    
C12   C13   S    
V1    O10   S    
O9    C4    A    
C3    C16   S    
C11   C12   T    
C2    C28   S    
O8    V2    S    
C17   C18   T    
O15   C31   A    
V2    O10   S    
O7    V2    S    
O14   C30   A    
O2    V1    S    
