data_mof_unit_60018.cif
_audit_creation_date              2012-12-11T17:17:12-0500
_audit_creation_method            fapswitch 2.2
_symmetry_space_group_name_H-M    P1
_symmetry_Int_Tables_number       1
_space_group_crystal_system       triclinic
_cell_length_a                    8.22871
_cell_length_b                    16.459917
_cell_length_c                    18.83859
_cell_angle_alpha                 96.892891
_cell_angle_beta                  92.546781
_cell_angle_gamma                 93.503191
_cell_volume                      2524.9434672

loop_
_atom_site_label
_atom_site_type_symbol
_atom_type_description
_atom_site_fract_x
_atom_site_fract_y
_atom_site_fract_z
_atom_type_partial_charge
Ba1   Ba    Ba6+2 0.843980 0.537940 0.465850 1.638945
Ba2   Ba    Ba6+2 0.345840 0.462130 0.534150 1.633203
C1    C     C_3   0.596377 0.832436 0.284592 -0.373102
C2    C     C_3   0.430318 0.522669 0.242831 0.004436
C3    C     C_2   0.367011 0.531725 0.167661 -0.134358
C4    C     C_3   0.103907 0.715431 0.272726 0.313607
C5    C     C_2   0.210641 0.504860 0.146558 -0.076760
C6    C     C_2   0.102172 0.475868 0.202791 -0.131524
C7    C     C_1   0.156074 0.481844 0.271477 0.069404
C8    C     C_R   0.043342 0.496440 0.928898 0.459337
C9    C     C_R   0.149829 0.503148 0.069705 0.459799
C10   C     C_R   0.082959 0.524960 0.800310 -0.129191
C11   C     C_R   0.029870 0.516761 0.727233 0.064413
C12   C     C_3   0.605425 0.748151 0.309200 0.342846
C13   C     C_R   0.780423 0.444475 0.754771 0.012032
C14   C     C_R   0.832100 0.451765 0.827461 -0.143133
C15   C     C_R   0.986088 0.490835 0.851355 -0.073936
C16   C     C_3   0.080444 0.738068 0.197262 -0.348174
C17   C     C_R   0.882304 0.473722 0.705140 -0.284732
C18   C     C_R   0.380342 0.732945 0.471781 -0.292690
C19   C     C_R   0.527870 0.759384 0.508663 0.036324
C20   C     C_R   0.581051 0.842811 0.516796 -0.123753
C21   C     C_R   0.484527 0.900574 0.488139 0.245866
C22   C     C_R   0.332564 0.872706 0.453220 -0.166526
C23   C     C_3   0.453316 0.274825 0.313307 0.348944
C24   C     C_R   0.279851 0.789173 0.446167 -0.008874
C25   C     C_R   0.611883 0.150213 0.502625 -0.125684
C26   C     C_R   0.662670 0.233494 0.507181 0.019591
C27   C     C_R   0.712562 0.094324 0.531612 0.248041
C28   C     C_3   0.204129 0.712244 0.620609 0.308090
C29   C     C_R   0.810565 0.262585 0.541943 -0.291317
C30   C     C_R   0.916058 0.208397 0.567391 -0.004741
C31   C     C_R   0.866596 0.124460 0.563507 -0.168206
C32   C     C_3   0.218008 0.804873 0.640281 -0.383401
C33   C     C_3   0.985146 0.289949 0.384236 0.317338
C34   C     C_3   0.430868 0.203407 0.253050 -0.379184
C35   C     C_3   0.935627 0.198238 0.365751 -0.214364
C36   C     C_3   0.708512 0.643815 0.680176 0.309549
C37   C     C_3   0.724311 0.667807 0.760847 -0.383694
C38   C     C_3   0.077082 0.148684 0.340692 -0.426071
C39   C     C_3   0.498513 0.353252 0.281947 -0.294153
C40   C     C_3   0.113289 0.292893 0.733336 0.358301
C41   C     C_3   0.133785 0.270223 0.808960 -0.353660
C42   C     C_3   0.584064 0.246009 0.696290 0.356636
C43   C     C_3   0.565012 0.162602 0.723067 -0.360417
C44   C     C_2   0.293663 0.524348 0.293624 -0.241807
H1    H     H_    0.717092 0.748729 0.344567 0.109145
H2    H     H_    0.621122 0.589245 0.668371 0.067877
H3    H     H_    0.704596 0.846625 0.253933 0.137979
H4    H     H_    0.814467 0.721087 0.774174 0.126130
H5    H     H_    0.765530 0.616120 0.788015 0.067307
H6    H     H_    0.604390 0.684406 0.780999 0.131221
H7    H     H_    0.496314 0.735922 0.339619 -0.037609
H8    H     H_    0.593860 0.879622 0.331824 0.086148
H9    H     H_    0.335895 0.280219 0.339477 0.058154
H10   H     H_    0.403512 0.145204 0.275812 0.109254
H11   H     H_    0.328842 0.213070 0.214986 0.083106
H12   H     H_    0.312931 0.822290 0.684147 0.127056
H13   H     H_    0.544046 0.197305 0.223302 0.124286
H14   H     H_    0.483908 0.834139 0.250086 0.114691
H15   H     H_    0.133707 0.691875 0.158733 0.083580
H16   H     H_    0.178229 0.353703 0.731529 0.086568
H17   H     H_    0.981131 0.297007 0.720954 -0.066966
H18   H     H_    0.264922 0.266682 0.823951 0.155691
H19   H     H_    0.082702 0.317340 0.847298 0.076038
H20   H     H_    0.068263 0.209905 0.812358 0.108990
H21   H     H_    0.715352 0.259680 0.688647 -0.064043
H22   H     H_    0.513821 0.242802 0.644228 0.088662
H23   H     H_    0.251761 0.835712 0.593474 0.063267
H24   H     H_    0.610683 0.115107 0.683366 0.079418
H25   H     H_    0.434620 0.146396 0.730906 0.151994
H26   H     H_    0.042108 0.653770 0.273913 0.083100
H27   H     H_    0.636123 0.163759 0.774727 0.110788
H28   H     H_    0.451768 0.551863 0.129773 0.112368
H29   H     H_    0.979087 0.450590 0.187262 0.112610
H30   H     H_    0.198198 0.558477 0.817140 0.112344
H31   H     H_    0.751814 0.427488 0.864946 0.106638
H32   H     H_    0.298804 0.568829 0.341269 0.047697
H33   H     H_    0.841339 0.467936 0.649289 0.067546
H34   H     H_    0.099278 0.826244 0.658115 0.126354
H35   H     H_    0.498125 0.129012 0.473249 0.108095
H36   H     H_    0.254496 0.916155 0.432775 0.090655
H37   H     H_    0.695187 0.862241 0.546530 0.110733
H38   H     H_    0.236629 0.713285 0.285170 -0.038017
H39   H     H_    0.949006 0.082515 0.583311 0.089960
H40   H     H_    0.339149 0.668717 0.466749 0.074519
H41   H     H_    0.849887 0.326686 0.543003 0.068778
H42   H     H_    0.948379 0.739523 0.182810 0.143031
H43   H     H_    0.142116 0.799293 0.193812 0.114344
H44   H     H_    0.323902 0.691578 0.605022 0.008537
H45   H     H_    0.881466 0.320694 0.408239 0.016281
H46   H     H_    0.112561 0.696645 0.575196 0.065969
H47   H     H_    0.182188 0.159680 0.380515 0.132752
H48   H     H_    0.038106 0.082303 0.333986 0.131505
H49   H     H_    0.113284 0.165422 0.288145 0.142671
H50   H     H_    0.508634 0.405389 0.325400 0.090136
H51   H     H_    0.617367 0.349551 0.256333 0.121427
H52   H     H_    0.402843 0.363002 0.241043 0.026286
H53   H     H_    0.089213 0.298202 0.424347 0.061200
H54   H     H_    0.836702 0.189269 0.322963 0.154794
H55   H     H_    0.889118 0.173493 0.413544 0.060971
H56   H     H_    0.829197 0.629017 0.660782 0.008999
N1    N     N_R   0.195329 0.528863 0.951798 -0.239793
N2    N     N_R   0.247174 0.532068 0.020394 -0.242794
N3    N     N_R   0.997562 0.471042 0.046920 -0.242545
N4    N     N_R   0.945773 0.467720 0.978252 -0.244261
N5    N     N_2   0.531782 0.986500 0.494753 -0.235749
N6    N     N_2   0.667787 0.008036 0.526158 -0.232145
O1    O     O_2   0.875590 0.454550 0.328720 -0.457095
O2    O     O_2   0.251617 0.210299 0.550606 -0.492284
O3    O     O_3   0.179444 0.233159 0.685357 -0.594897
O4    O     O_3   0.127960 0.455900 0.416100 -0.488173
O5    O     O_3   0.560420 0.597610 0.535760 -0.484899
O6    O     O_2   0.379340 0.302240 0.465940 -0.477672
O7    O     O_3   0.582094 0.258451 0.359491 -0.654771
O8    O     O_2   0.445098 0.457255 0.754270 -0.482992
O9    O     O_3   0.523800 0.305346 0.746427 -0.594912
O10   O     O_3   0.634460 0.601950 0.371690 -0.487934
O11   O     O_2   0.770432 0.558055 0.249195 -0.484354
O12   O     O_3   0.653205 0.710246 0.648419 -0.633477
O13   O     O_3   0.026492 0.323433 0.321883 -0.645909
O14   O     O_3   0.610140 0.688961 0.249278 -0.603949
O15   O     O_2   0.810360 0.697790 0.534100 -0.462644
O16   O     O_3   0.049190 0.643760 0.407000 -0.488895
O17   O     O_2   0.941678 0.789938 0.452235 -0.485380
O18   O     O_3   0.035546 0.774006 0.321043 -0.600740
O19   O     O_2   0.314110 0.545480 0.671320 -0.458659
O20   O     O_3   0.061730 0.544170 0.583900 -0.498681
O21   O     O_3   0.555240 0.398120 0.628310 -0.487705
O22   O     O_3   0.157275 0.676183 0.680573 -0.634352
O23   O     O_3   0.629280 0.402460 0.464250 -0.457340
O24   O     O_3   0.140510 0.356300 0.593010 -0.485693
P1    P     P_3+3 0.048660 0.430750 0.339650 0.985101
P2    P     P_3+3 0.638170 0.686040 0.555200 0.989079
P3    P     P_3+3 0.076472 0.750342 0.407899 0.942752
P4    P     P_3+3 0.141040 0.569320 0.660360 0.983778
P5    P     P_3+3 0.122812 0.250526 0.598171 0.953336
P6    P     P_3+3 0.611477 0.591616 0.278135 0.961072
P7    P     P_3+3 0.562972 0.298597 0.449161 0.947698
P8    P     P_3+3 0.575592 0.402330 0.721743 0.953615

loop_
_geom_bond_atom_site_label_1
_geom_bond_atom_site_label_2
_ccdc_geom_bond_type
C37   H5    S    
C12   O14   S    
C43   H25   S    
Ba1   O20   S    
O4    P1    S    
C28   H44   S    
C34   H13   S    
C1    H3    S    
C5    C6    S    
C2    C44   S    
C5    C9    S    
Ba2   O4    S    
C8    N1    A    
C33   C35   S    
C22   C24   A    
C14   H31   S    
C35   C38   S    
O20   P4    S    
Ba1   O4    S    
C36   C37   S    
C1    H8    S    
C33   H53   S    
C39   H50   S    
C25   C27   A    
C7    P1    S    
C8    C15   S    
C13   C14   A    
C27   C31   A    
Ba2   O21   S    
C43   H27   S    
Ba1   Ba2   S    
C3    H28   S    
C31   H39   S    
C22   H36   S    
C24   P3    S    
C32   H34   S    
C14   C15   A    
C18   H40   S    
C10   C15   A    
C9    N3    A    
Ba2   O24   S    
N5    N6    D    
C27   N6    S    
C9    N2    A    
C38   H47   S    
C36   H2    S    
C41   H19   S    
C36   O12   S    
Ba2   O19   S    
O17   P3    D    
C37   H6    S    
C7    C44   D    
C19   C20   A    
O11   P6    D    
C26   P7    S    
Ba1   O5    S    
Ba1   P1    S    
C41   H18   S    
C26   C29   A    
C4    C16   S    
C29   H41   S    
C11   C17   A    
O15   P2    D    
O1    P1    D    
C33   O13   S    
C4    H38   S    
O19   P4    D    
C4    O18   S    
C28   H46   S    
C34   H11   S    
C23   C39   S    
C44   H32   S    
C28   C32   S    
C6    C7    D    
Ba1   O1    S    
O24   P5    S    
C28   O22   S    
C6    H29   S    
C16   H42   S    
C13   C17   A    
C40   O3    S    
Ba1   O15   S    
C34   H10   S    
C29   C30   A    
C25   H35   S    
C21   C22   A    
C21   N5    S    
C37   H4    S    
Ba2   O23   S    
C4    H26   S    
O6    P7    D    
C10   C11   A    
C17   H33   S    
C32   H23   S    
O14   P6    S    
C1    C12   S    
O7    P7    S    
O18   P3    S    
O5    P2    S    
C10   H30   S    
C11   P4    S    
C39   H51   S    
C42   H22   S    
O9    P8    S    
C40   C41   S    
C38   H49   S    
Ba1   P2    S    
C19   P2    S    
C25   C26   A    
C42   C43   S    
O3    P5    S    
C3    C5    D    
C13   P8    S    
C40   H16   S    
O16   P3    S    
C43   H24   S    
C39   H52   S    
C16   H43   S    
O2    P5    D    
O22   P4    S    
C23   H9    S    
C38   H48   S    
C2    C3    S    
Ba1   O23   S    
C16   H15   S    
C12   H1    S    
N3    N4    A    
C30   C31   A    
C23   O7    S    
Ba1   O16   S    
C30   P5    S    
C36   H56   S    
C20   H37   S    
C35   H55   S    
Ba2   O6    S    
O21   P8    S    
C18   C24   A    
C42   O9    S    
C41   H20   S    
Ba2   O5    S    
O12   P2    S    
Ba1   O10   S    
Ba2   P4    S    
O23   P7    S    
C23   C34   S    
C2    P6    S    
C12   H7    S    
C18   C19   A    
N1    N2    A    
C32   H12   S    
C8    N4    A    
C20   C21   A    
C42   H21   S    
O13   P1    S    
O10   P6    S    
C1    H14   S    
C40   H17   S    
C35   H54   S    
Ba2   O20   S    
O8    P8    D    
C33   H45   S    
