data_mof_unit_54503.cif
_audit_creation_date              2013-03-05T15:52:14-0500
_audit_creation_method            fapswitch 2.2
_symmetry_space_group_name_H-M    P1
_symmetry_Int_Tables_number       1
_space_group_crystal_system       triclinic
_cell_length_a                    23.512374
_cell_length_b                    10.848444
_cell_length_c                    9.617875
_cell_angle_alpha                 90.943459
_cell_angle_beta                  90.869925
_cell_angle_gamma                 93.792072
_cell_volume                      2447.2285932

loop_
_atom_site_label
_atom_site_type_symbol
_atom_site_description
_atom_site_fract_x
_atom_site_fract_y
_atom_site_fract_z
_atom_type_partial_charge
O1    O     O_R   0.500000 0.319640 0.618810 -0.576540
O2    O     O_R   0.500000 0.319660 0.381240 -0.579978
C1    C     C_R   0.503598 0.263662 0.498872 0.786919
O3    O     O_R   0.417880 0.499950 0.618810 -0.582994
O4    O     O_R   0.417880 0.499980 0.381240 -0.585955
C2    C     C_R   0.390988 0.498986 0.499085 0.818460
Cu1   Cu    Cu3+1 0.500000 0.499990 0.640660 0.933773
Cu2   Cu    Cu3+1 0.500000 0.500010 0.359340 0.957780
O5    O     O_R   0.500000 0.680340 0.618760 -0.610409
O6    O     O_R   0.500000 0.680360 0.381190 -0.561600
O7    O     O_R   0.582120 0.500020 0.618760 -0.612318
O8    O     O_R   0.582120 0.500050 0.381190 -0.559890
C3    C     C_R   0.500167 0.738245 0.502712 0.809875
C4    C     C_R   0.608837 0.496303 0.500836 0.789805
C5    C     C_R   0.881834 0.583352 0.463641 0.531014
N1    N     N_R   0.851102 0.479009 0.504882 -0.471198
C6    C     C_R   0.877279 0.376071 0.545309 0.534378
C7    C     C_R   0.936941 0.375179 0.544613 -0.015738
C8    C     C_R   0.969196 0.481606 0.501979 -0.016508
C9    C     C_R   0.941545 0.586845 0.461331 -0.013776
C10   C     C_R   0.964985 0.270714 0.584780 -0.161357
C11   C     C_R   0.024349 0.271859 0.582587 -0.163846
C12   C     C_R   0.056912 0.377535 0.540316 -0.013756
C13   C     C_R   0.029242 0.482806 0.499923 -0.017703
C14   C     C_R   0.061474 0.589349 0.457653 -0.025100
C15   C     C_R   0.033455 0.693938 0.417830 -0.161350
C16   C     C_R   0.974104 0.692663 0.419532 -0.160944
C17   C     C_R   0.116625 0.380763 0.536953 0.510481
N2    N     N_R   0.147350 0.484938 0.494970 -0.458248
C18   C     C_R   0.121098 0.588510 0.456761 0.578931
O9    O     O_2   0.854629 0.683536 0.425668 -0.537774
O10   O     O_2   0.845631 0.274748 0.584891 -0.531891
H1    H     H_    0.941180 0.187719 0.617849 0.191223
H2    H     H_    0.044599 0.189706 0.614062 0.189965
O11   O     O_2   0.143814 0.280313 0.574026 -0.540175
O12   O     O_2   0.152665 0.690594 0.419071 -0.528883
H3    H     H_    0.057258 0.777031 0.385037 0.190433
H4    H     H_    0.953862 0.774804 0.387985 0.189771
C19   C     C_R   0.238126 0.491342 0.367292 0.306648
C20   C     C_R   0.297868 0.497118 0.370038 -0.287170
H5    H     H_    0.320399 0.501250 0.272615 0.155075
C21   C     C_R   0.328217 0.495903 0.496962 -0.068252
C22   C     C_R   0.298097 0.490098 0.621883 -0.217940
H6    H     H_    0.320302 0.489033 0.721297 0.162190
C23   C     C_R   0.238780 0.485612 0.620040 -0.161320
H7    H     H_    0.216172 0.482285 0.717326 0.153646
C24   C     C_R   0.208466 0.486344 0.493641 0.337034
C25   C     C_R   0.759711 0.473972 0.378074 -0.105166
H8    H     H_    0.782026 0.469105 0.280670 0.139455
C26   C     C_R   0.700596 0.477647 0.377020 -0.233143
H9    H     H_    0.678128 0.474692 0.277891 0.161275
C27   C     C_R   0.671128 0.487025 0.502514 -0.046898
C28   C     C_R   0.701769 0.486820 0.629137 -0.235749
H10   H     H_    0.680177 0.490444 0.727401 0.164738
C29   C     C_R   0.760935 0.482530 0.630006 -0.101680
H11   H     H_    0.784219 0.484580 0.728111 0.139945
C30   C     C_R   0.790107 0.477600 0.504440 0.364696
H12   H     H_    0.466236 0.103665 0.298015 0.163263
C31   C     C_R   0.571567 0.142409 0.707564 -0.252042
H13   H     H_    0.586936 0.236907 0.689588 0.180621
C32   C     C_R   0.588494 0.089192 0.830576 -0.197259
H14   H     H_    0.614663 0.143049 0.906078 0.166065
C33   C     C_R   0.569363 0.968756 0.858943 0.641705
C34   C     C_R   0.537541 0.898105 0.759094 -0.295640
H15   H     H_    0.520398 0.810382 0.793695 0.192204
C35   C     C_R   0.524944 0.945949 0.626417 0.020407
C36   C     C_R   0.535920 0.074266 0.609670 0.097138
C37   C     C_R   0.510151 0.131445 0.496641 -0.085777
C38   C     C_R   0.485089 0.060548 0.386854 -0.178444
H16   H     H_    0.464176 0.880942 0.303142 0.163752
C39   C     C_R   0.482773 0.933237 0.391448 -0.193022
C40   C     C_R   0.501533 0.873798 0.510156 -0.093669
H17   H     H_    0.423872 0.388277 0.123954 0.131104
C41   C     C_R   0.593591 0.631003 0.142035 0.308006
C42   C     C_R   0.643969 0.649976 0.066134 -0.202446
H18   H     H_    0.683417 0.686086 0.115275 0.167010
C43   C     C_R   0.639999 0.659219 0.923992 -0.211879
H19   H     H_    0.675621 0.699544 0.866425 0.168812
C44   C     C_R   0.588259 0.629593 0.858092 -0.133452
H20   H     H_    0.584129 0.662482 0.754793 0.195584
C45   C     C_R   0.543903 0.563432 0.926734 0.160840
C46   C     C_R   0.545007 0.563710 0.076015 0.123626
N3    N     N_R   0.500540 0.501210 0.147910 -0.192557
C47   C     C_R   0.458144 0.438795 0.071229 -0.063218
H21   H     H_    0.424087 0.387586 0.866581 0.135920
C48   C     C_R   0.458272 0.438520 0.923574 -0.044504
N4    N     N_R   0.500560 0.501290 0.852040 -0.194653
F1    F     F_    0.581514 0.920059 0.984004 -0.696014
N5    N     N_2   0.585276 0.720954 0.247620 -0.361501
H22   H     H_    0.557653 0.784799 0.214193 0.293722
C49   C     C_3   0.633469 0.779793 0.324959 -0.634244
H23   H     H_    0.617912 0.827775 0.418327 0.214595
H24   H     H_    0.656662 0.849763 0.260042 0.246462
H25   H     H_    0.662902 0.710796 0.360140 0.220930
N6    N     N_2   0.208106 0.492867 0.237782 -0.415038
H26   H     H_    0.230314 0.540316 0.161469 0.253535
C50   C     C_3   0.184975 0.372909 0.188586 -0.657983
H27   H     H_    0.160622 0.383378 0.090131 0.231879
H28   H     H_    0.155524 0.329914 0.265659 0.251241
H29   H     H_    0.220005 0.311275 0.168611 0.222662

loop_
_geom_bond_atom_site_label_1
_geom_bond_atom_site_label_2
_geom_bond_distance
_ccdc_geom_bond_type
C29   H11   1.082844 S    
C33   F1    1.355707 S    
C7    C10   1.404947 A    
C28   C29   1.394883 A    
C8    C9    1.408577 A    
C22   H6    1.083034 S    
C45   C46   1.435559 A    
C25   C30   1.399203 A    
C28   H10   1.080950 S    
Cu1   O7    1.945447 S    
C15   C16   1.394977 A    
N2    C24   1.436294 S    
C41   N5    1.421392 S    
C17   N2    1.370423 A    
C1    C37   1.452537 S    
C47   C48   1.420131 A    
H21   C48   1.081552 S    
O4    C2    1.306063 A    
O7    C4    1.306172 A    
C10   H1    1.083170 S    
C16   H4    1.083172 S    
C5    N1    1.369701 A    
Cu2   N3    2.033991 S    
C50   H27   1.110459 S    
C32   C33   1.386193 A    
C7    C8    1.409095 A    
C38   C39   1.380059 A    
O5    C3    1.289677 A    
C31   C36   1.416562 A    
C4    C27   1.474545 S    
N6    H26   1.031928 S    
C17   O11   1.349566 S    
C37   C38   1.395773 A    
C26   C27   1.406382 A    
C12   C13   1.408411 A    
H16   C39   1.083713 S    
N5    C49   1.451835 S    
H17   C47   1.081678 S    
C43   C44   1.379542 A    
C35   C36   1.411182 A    
C31   H13   1.081735 S    
C10   C11   1.395523 A    
C41   C46   1.446867 A    
O3    Cu1   1.939035 S    
C50   H28   1.109418 S    
C6    C7    1.403580 A    
C23   C24   1.400272 A    
C5    C9    1.402470 A    
C11   H2    1.083158 S    
C35   C40   1.435795 A    
C31   C32   1.389257 A    
C41   C42   1.406149 A    
C36   C37   1.409109 A    
Cu1   Cu2   2.705703 S    
C13   C14   1.408727 A    
O3    C2    1.304792 A    
C49   H23   1.109478 S    
C44   C45   1.405764 A    
C48   N4    1.368315 A    
N1    C6    1.369305 A    
C14   C15   1.404852 A    
C43   H19   1.083060 S    
C44   H20   1.066367 S    
O1    C1    1.301272 A    
C34   C35   1.419905 A    
C42   H18   1.081512 S    
N2    C18   1.370030 A    
C49   H24   1.111108 S    
C42   C43   1.374632 A    
N3    C47   1.366744 A    
Cu2   O8    1.939035 S    
C26   H9    1.081934 S    
C15   H3    1.083175 S    
C12   C17   1.402982 A    
C25   C26   1.393022 A    
C22   C23   1.392126 A    
C19   N6    1.423221 S    
C45   N4    1.371149 A    
C25   H8    1.082893 S    
C3    C40   1.469305 S    
O8    C4    1.305155 A    
C29   C30   1.399894 A    
C21   C22   1.404103 A    
C19   C20   1.401759 A    
C50   H29   1.111658 S    
C27   C28   1.405647 A    
C19   C24   1.410292 A    
C14   C18   1.402689 A    
Cu1   O5    1.971268 S    
C20   H5    1.083475 S    
O1    Cu1   1.964326 S    
O2    Cu2   1.971266 S    
O6    C3    1.317487 A    
O4    Cu2   1.945449 S    
N6    C50   1.446199 S    
H12   C38   1.083717 S    
C5    O9    1.349715 S    
C9    C16   1.404916 A    
C18   O12   1.349595 S    
C34   H15   1.068940 S    
O2    C1    1.297196 A    
C39   C40   1.400164 A    
C49   H25   1.106086 S    
C20   C21   1.405309 A    
C8    C13   1.411475 A    
N1    C30   1.433163 S    
C32   H14   1.082681 S    
C33   C34   1.395576 A    
C23   H7    1.083074 S    
Cu1   N4    2.032680 S    
Cu2   O6    1.964327 S    
C46   N3    1.405213 A    
C2    C21   1.473882 S    
C6    O10   1.349469 S    
C11   C12   1.405159 A    
N5    H22   1.032186 S    
