data_mof_unit_56916.cif
_audit_creation_date              2012-12-11T14:52:37-0500
_audit_creation_method            fapswitch 2.2
_symmetry_space_group_name_H-M    P1
_symmetry_Int_Tables_number       1
_space_group_crystal_system       triclinic
_cell_length_a                    18.931619
_cell_length_b                    11.051806
_cell_length_c                    18.684819
_cell_angle_alpha                 89.844759
_cell_angle_beta                  91.172089
_cell_angle_gamma                 90.178263
_cell_volume                      3908.54757503

loop_
_atom_site_label
_atom_site_type_symbol
_atom_type_description
_atom_site_fract_x
_atom_site_fract_y
_atom_site_fract_z
_atom_type_partial_charge
C1    C     C_R   0.271706 0.043543 0.852929 0.568205
C2    C     C_R   0.693767 0.540422 0.038179 -0.159135
C3    C     C_3   0.016530 0.327600 0.066613 0.054507
C4    C     C_3   0.349018 0.329099 0.465740 -0.249910
C5    C     C_3   0.610585 0.387047 0.588947 -0.246935
C6    C     C_3   0.848915 0.828881 0.465890 -0.249377
C7    C     C_3   0.110603 0.886943 0.588859 -0.246860
C8    C     C_3   0.194731 0.426519 0.849219 -0.245020
C9    C     C_3   0.933179 0.696920 0.075527 -0.249464
C10   C     C_3   0.565662 0.195199 0.924961 -0.269754
C11   C     C_3   0.407858 0.281232 0.059902 -0.283541
C12   C     C_3   0.449698 0.535089 0.558088 -0.268318
C13   C     C_R   0.806098 0.041381 0.962111 -0.156167
C14   C     C_3   0.364418 0.736961 0.341463 -0.269910
C15   C     C_3   0.949688 0.034895 0.558177 -0.268699
C16   C     C_3   0.864842 0.235483 0.341413 -0.276886
C17   C     C_R   0.189310 0.059196 0.033601 -0.138601
C18   C     C_R   0.256372 0.698522 0.058167 0.053265
C19   C     C_R   0.697469 0.537050 0.963776 0.053736
C20   C     C_R   0.802576 0.038652 0.036496 0.050643
C21   C     C_R   0.192695 0.044871 0.959873 0.042944
C22   C     C_R   0.247078 0.576720 0.074830 0.011309
C23   C     C_R   0.761933 0.562742 0.931171 0.012075
C24   C     C_R   0.738133 0.063882 0.069020 0.010190
C25   C     C_R   0.726264 0.039195 0.144762 0.566372
C26   C     C_R   0.254568 0.081669 0.924960 -0.020386
C27   C     C_R   0.248984 0.488187 0.021433 -0.174685
C28   C     C_R   0.821787 0.589623 0.974130 -0.119860
C29   C     C_R   0.678243 0.090629 0.026054 -0.119902
C30   C     C_R   0.310592 0.133612 0.964603 -0.179602
C31   C     C_R   0.257376 0.521017 0.950012 0.126078
C32   C     C_R   0.818251 0.594254 0.048165 0.130943
C33   C     C_R   0.681765 0.095461 0.952023 0.132852
C34   C     C_R   0.309478 0.139261 0.037878 0.114532
C35   C     C_R   0.265898 0.644311 0.932940 0.049294
C36   C     C_R   0.773789 0.538841 0.855357 0.590777
C37   C     C_R   0.752307 0.577917 0.080047 0.008908
C38   C     C_R   0.747605 0.078528 0.920203 0.011147
C39   C     C_R   0.247253 0.105379 0.072882 0.046506
C40   C     C_R   0.435475 0.737721 0.515138 0.125582
C41   C     C_R   0.447528 0.751611 0.441638 0.156345
C42   C     C_R   0.935620 0.237542 0.515196 0.125361
C43   C     C_R   0.947735 0.251295 0.441711 0.156117
C44   C     C_R   0.496144 0.838706 0.420364 0.035438
C45   C     C_R   0.461588 0.825636 0.563936 0.021097
C46   C     C_R   0.996183 0.338633 0.420384 0.033692
C47   C     C_R   0.227109 0.539928 0.145931 0.573003
C48   C     C_R   0.961627 0.325603 0.563954 0.021948
C49   C     C_R   0.522669 0.925314 0.468661 -0.184395
C50   C     C_R   0.504289 0.920250 0.539894 -0.182145
C51   C     C_R   0.022590 0.425403 0.468640 -0.185121
C52   C     C_R   0.004242 0.420313 0.539881 -0.182697
C53   C     C_R   0.467346 0.820534 0.856945 0.560472
C54   C     C_R   0.529179 0.821704 0.145230 0.547998
C55   C     C_R   0.972059 0.322073 0.854132 0.552430
C56   C     C_R   0.032570 0.321104 0.143036 0.546251
C57   C     C_R   0.236703 0.681813 0.524506 -0.182461
C58   C     C_3   0.482847 0.712001 0.981670 -0.094753
C59   C     C_R   0.822680 0.543156 0.443985 -0.187513
C60   C     C_R   0.736717 0.181869 0.524475 -0.182268
C61   C     C_R   0.322711 0.043186 0.443972 -0.186826
C62   C     C_R   0.222850 0.651299 0.455235 -0.181038
C63   C     C_R   0.831828 0.531887 0.517327 -0.191423
C64   C     C_R   0.722834 0.151323 0.455218 -0.180775
C65   C     C_R   0.331846 0.031927 0.517319 -0.192711
C66   C     C_R   0.226722 0.530306 0.435374 0.024970
C67   C     C_R   0.773458 0.519520 0.561366 0.006373
C68   C     C_R   0.726708 0.030317 0.435368 0.026393
C69   C     C_3   0.438616 0.782313 0.035728 -0.142302
C70   C     C_R   0.273467 0.019511 0.561346 0.007077
C71   C     C_R   0.244216 0.440038 0.486243 0.102821
C72   C     C_R   0.704590 0.505136 0.530280 0.135083
C73   C     C_R   0.744166 0.940058 0.486251 0.101389
C74   C     C_R   0.204611 0.005057 0.530232 0.133309
C75   C     C_R   0.246774 0.470162 0.558788 0.055382
C76   C     C_R   0.696757 0.509666 0.455860 0.107789
C77   C     C_R   0.746732 0.970226 0.558784 0.055511
C78   C     C_R   0.196804 0.009534 0.455803 0.105276
C79   C     C_R   0.245040 0.591893 0.576325 0.036596
C80   C     C_3   0.952930 0.257354 0.981172 -0.088471
C81   C     C_R   0.754571 0.549560 0.414769 -0.010980
C82   C     C_R   0.745057 0.091965 0.576297 0.036599
C83   C     C_R   0.254609 0.049502 0.414731 -0.006918
C84   C     C_R   0.273943 0.683545 0.859282 0.559941
C85   C     C_R   0.740202 0.632761 0.149859 0.533632
C86   C     C_R   0.759766 0.132871 0.850173 0.552445
C87   C     C_R   0.238474 0.140532 0.147008 0.581547
C88   C     C_R   0.288164 0.001837 0.637542 0.564079
C89   C     C_R   0.710636 0.000495 0.362101 0.577823
C90   C     C_R   0.788168 0.501828 0.637547 0.561439
C91   C     C_3   0.948186 0.368240 0.029999 -0.121810
C92   C     C_R   0.210642 0.500504 0.362102 0.578921
C93   C     C_R   0.441609 0.819497 0.639033 0.565312
C94   C     C_R   0.530302 0.824462 0.352476 0.564458
C95   C     C_R   0.941625 0.319496 0.639035 0.561624
C96   C     C_R   0.030335 0.324452 0.352494 0.561016
C97   C     C_R   0.258087 0.633713 0.646518 0.576593
C98   C     C_R   0.741824 0.627023 0.351978 0.558340
C99   C     C_R   0.758106 0.133784 0.646482 0.577935
C100  C     C_R   0.241842 0.126975 0.351944 0.574151
C101  C     C_3   0.507954 0.941109 0.022594 -0.114561
C102  C     C_R   0.265634 0.732410 0.986976 -0.151352
C103  C     C_3   0.552484 0.869847 0.968446 -0.111129
C104  C     C_3   0.061167 0.401929 0.014280 -0.133928
C105  C     C_3   0.065434 0.290143 0.964745 -0.138845
C106  C     C_3   0.439088 0.894409 0.986037 -0.135220
C107  C     C_3   0.551217 0.758544 0.017742 -0.096841
C108  C     C_3   0.991897 0.442765 0.976181 -0.113114
C109  C     C_3   0.021715 0.216204 0.018281 -0.075685
C110  C     C_3   0.484494 0.824329 0.933107 0.056544
C111  C     C_3   0.506556 0.829108 0.070830 0.051596
C112  C     C_3   0.996675 0.330926 0.928200 0.046057
Cr1   Cr    Cr6+3 0.229630 0.835900 0.747350 1.018018
Cr2   Cr    Cr6+3 0.614200 0.677120 0.250660 1.058142
Cr3   Cr    Cr6+3 0.885800 0.177120 0.749340 1.047046
Cr4   Cr    Cr6+3 0.114200 0.177120 0.250660 1.087014
Cr5   Cr    Cr6+3 0.770370 0.835900 0.252650 1.052462
Cr6   Cr    Cr6+3 0.729630 0.335900 0.747350 1.026355
Cr7   Cr    Cr6+3 0.270370 0.335900 0.252650 1.034417
Cr8   Cr    Cr6+3 0.387410 0.989850 0.750850 1.015664
Cr9   Cr    Cr6+3 0.612590 0.989850 0.249150 1.018741
Cr10  Cr    Cr6+3 0.887410 0.489850 0.750850 1.029698
Cr11  Cr    Cr6+3 0.112590 0.489850 0.249150 1.031914
Cr12  Cr    Cr6+3 0.385800 0.677120 0.749340 1.050618
H1    H     H_    0.392099 0.947028 0.969808 0.126031
H2    H     H_    0.884397 0.539287 0.540264 0.141010
H3    H     H_    0.712570 0.222941 0.416766 0.168321
H4    H     H_    0.384410 0.039360 0.540268 0.141210
H5    H     H_    0.515927 0.034561 0.042256 0.110794
H6    H     H_    0.600827 0.892070 0.939112 0.149390
H7    H     H_    0.104913 0.463633 0.030150 0.135063
H8    H     H_    0.113421 0.259280 0.937399 0.133614
H9    H     H_    0.471084 0.617865 0.964687 0.161411
H10   H     H_    0.394753 0.744483 0.066707 0.149021
H11   H     H_    0.907340 0.200901 0.965556 0.144200
H12   H     H_    0.598707 0.707148 0.033313 0.141864
H13   H     H_    0.898805 0.388546 0.057981 0.144317
H14   H     H_    0.273753 0.826770 0.973915 0.129581
H15   H     H_    0.643318 0.523710 0.062690 0.148237
H16   H     H_    0.856316 0.023957 0.937506 0.159713
H17   H     H_    0.141525 0.033094 0.060450 0.168621
H18   H     H_    0.240177 0.393916 0.034963 0.114008
H19   H     H_    0.872635 0.602315 0.950251 0.145115
H20   H     H_    0.627403 0.102796 0.049940 0.143600
H21   H     H_    0.359321 0.159836 0.939537 0.153592
H22   H     H_    0.560397 0.993265 0.452109 0.148658
H23   H     H_    0.983852 0.536070 0.956006 0.127324
H24   H     H_    0.525516 0.987545 0.576553 0.151607
H25   H     H_    0.060218 0.493495 0.452056 0.148421
H26   H     H_    0.025392 0.487714 0.576515 0.151212
H27   H     H_    0.251292 0.255777 0.490554 0.275105
H28   H     H_    0.370609 0.258112 0.431626 0.171340
H29   H     H_    0.369429 0.315192 0.521198 0.146598
H30   H     H_    0.369567 0.414261 0.443469 0.137699
H31   H     H_    0.639342 0.567750 0.611923 0.285679
H32   H     H_    0.618688 0.364885 0.646378 0.184859
H33   H     H_    0.630178 0.314017 0.554776 0.172078
H34   H     H_    0.032513 0.122319 0.036019 0.172769
H35   H     H_    0.553269 0.389200 0.578752 0.118001
H36   H     H_    0.751093 0.755782 0.490556 0.275247
H37   H     H_    0.870503 0.758093 0.431633 0.171961
H38   H     H_    0.869247 0.814601 0.521345 0.145053
H39   H     H_    0.869555 0.914122 0.443841 0.137697
H40   H     H_    0.139341 0.067641 0.611859 0.283826
H41   H     H_    0.118736 0.864746 0.646273 0.187283
H42   H     H_    0.130156 0.813942 0.554654 0.171531
H43   H     H_    0.053286 0.889100 0.578705 0.117611
H44   H     H_    0.271881 0.346035 0.914087 0.251412
H45   H     H_    0.242941 0.776024 0.537906 0.137777
H46   H     H_    0.179647 0.331184 0.837703 0.135567
H47   H     H_    0.206758 0.470461 0.797437 0.212217
H48   H     H_    0.148913 0.472557 0.873562 0.147952
H49   H     H_    0.882214 0.569141 0.142040 0.259352
H50   H     H_    0.984770 0.654256 0.064721 0.152596
H51   H     H_    0.940356 0.755364 0.123269 0.190490
H52   H     H_    0.916893 0.753786 0.028997 0.176096
H53   H     H_    0.617562 0.070063 0.858146 0.267778
H54   H     H_    0.514499 0.149475 0.934291 0.134910
H55   H     H_    0.558205 0.255251 0.877838 0.186887
H56   H     H_    0.868246 0.559913 0.411231 0.132361
H57   H     H_    0.580637 0.250707 0.972359 0.163386
H58   H     H_    0.406332 0.096074 0.084274 0.253478
H59   H     H_    0.433149 0.276374 0.006997 0.115529
H60   H     H_    0.449665 0.299731 0.100973 0.148605
H61   H     H_    0.369682 0.357059 0.060363 0.175402
H62   H     H_    0.361313 0.602333 0.508575 0.251479
H63   H     H_    0.422931 0.467846 0.592475 0.160572
H64   H     H_    0.467007 0.490954 0.508223 0.146011
H65   H     H_    0.497312 0.568947 0.587253 0.201821
H66   H     H_    0.399763 0.590594 0.403207 0.255271
H67   H     H_    0.742951 0.276085 0.537863 0.137605
H68   H     H_    0.391167 0.807508 0.309355 0.160548
H69   H     H_    0.339891 0.670770 0.303837 0.187871
H70   H     H_    0.322541 0.780388 0.372989 0.141131
H71   H     H_    0.861374 0.102334 0.508606 0.251008
H72   H     H_    0.922814 0.967584 0.592430 0.159981
H73   H     H_    0.967104 0.990869 0.508317 0.144907
H74   H     H_    0.997243 0.068630 0.587491 0.201273
H75   H     H_    0.900553 0.089683 0.403441 0.256093
H76   H     H_    0.891407 0.306334 0.309393 0.145934
H77   H     H_    0.840744 0.168961 0.303724 0.183188
H78   H     H_    0.368280 0.059967 0.411227 0.135574
H79   H     H_    0.822691 0.278421 0.372779 0.133384
H80   H     H_    0.212610 0.722921 0.416780 0.172185
I1    I     I_    0.256591 0.337189 0.640888 -0.398116
I2    I     I_    0.596764 0.454232 0.409689 -0.388460
I3    I     I_    0.756401 0.837297 0.640916 -0.372740
I4    I     I_    0.096881 0.953884 0.409554 -0.366393
I5    I     I_    0.264136 0.826932 0.142052 -0.428330
I6    I     I_    0.602399 0.509477 0.903958 -0.445411
I7    I     I_    0.897912 0.012505 0.096210 -0.429324
I8    I     I_    0.102136 0.967383 0.907953 -0.380354
N1    N     N_2   0.272305 0.328492 0.463867 -0.476565
N2    N     N_2   0.414577 0.676131 0.388632 -0.498776
N3    N     N_2   0.901714 0.132281 0.541114 -0.501440
N4    N     N_2   0.915084 0.175314 0.388778 -0.489710
N5    N     N_2   0.642199 0.503422 0.572214 -0.490321
N6    N     N_2   0.772202 0.828454 0.463906 -0.475284
N7    N     N_2   0.142206 0.003330 0.572141 -0.491809
N8    N     N_2   0.256835 0.430169 0.895951 -0.492243
N9    N     N_2   0.881632 0.604029 0.090771 -0.527320
N10   N     N_2   0.618543 0.105643 0.909143 -0.517704
N11   N     N_2   0.372861 0.168384 0.076902 -0.480780
N12   N     N_2   0.401649 0.632377 0.541046 -0.501638
O1    O     O_R   0.214270 0.709000 0.827470 -0.500409
O2    O     O_R   0.543270 0.717630 0.330160 -0.448001
O3    O     O_R   0.956730 0.217630 0.669840 -0.488957
O4    O     O_R   0.043270 0.217630 0.330160 -0.444418
O5    O     O_R   0.320620 0.625640 0.672920 -0.474101
O6    O     O_R   0.679380 0.625640 0.327080 -0.468571
O7    O     O_R   0.820620 0.125640 0.672920 -0.476550
O8    O     O_R   0.179380 0.125640 0.327080 -0.463371
O9    O     O_3   0.334280 0.834290 0.749180 -0.326126
O10   O     O_3   0.665720 0.834290 0.250820 -0.283407
O11   O     O_3   0.834280 0.334290 0.749180 -0.304576
O12   O     O_R   0.785730 0.709000 0.172530 -0.492230
O13   O     O_3   0.165720 0.334290 0.250820 -0.296953
O14   O     O_R   0.236160 0.958490 0.823130 -0.472436
O15   O     O_R   0.763840 0.958490 0.176870 -0.459449
O16   O     O_R   0.736160 0.458490 0.823130 -0.453805
O17   O     O_R   0.263840 0.458490 0.176870 -0.510101
O18   O     O_R   0.332080 0.075470 0.831280 -0.522551
O19   O     O_R   0.667920 0.075470 0.168720 -0.531100
O20   O     O_R   0.832080 0.575470 0.831280 -0.517432
O21   O     O_R   0.167920 0.575470 0.168720 -0.481616
O22   O     O_R   0.446300 0.918110 0.826620 -0.508225
O23   O     O_R   0.714270 0.209000 0.827470 -0.489589
O24   O     O_R   0.553700 0.918110 0.173380 -0.511399
O25   O     O_R   0.946300 0.418110 0.826620 -0.509600
O26   O     O_R   0.053700 0.418110 0.173380 -0.513377
O27   O     O_R   0.457110 0.716200 0.831760 -0.498318
O28   O     O_R   0.542890 0.716200 0.168240 -0.516290
O29   O     O_R   0.957110 0.216200 0.831760 -0.494200
O30   O     O_R   0.042890 0.216200 0.168240 -0.499507
O31   O     O_R   0.320980 0.624310 0.823030 -0.472876
O32   O     O_R   0.679020 0.624310 0.176970 -0.515756
O33   O     O_R   0.820980 0.124310 0.823030 -0.505715
O34   O     O_R   0.285730 0.209000 0.172530 -0.481023
O35   O     O_R   0.179020 0.124310 0.176970 -0.502378
O36   O     O_R   0.213890 0.710430 0.665540 -0.554215
O37   O     O_R   0.786110 0.710430 0.334460 -0.513382
O38   O     O_R   0.713890 0.210430 0.665540 -0.557577
O39   O     O_R   0.286110 0.210430 0.334460 -0.510891
O40   O     O_R   0.235810 0.959820 0.673020 -0.497374
O41   O     O_R   0.764190 0.959820 0.326980 -0.487231
O42   O     O_R   0.735810 0.459820 0.673020 -0.496837
O43   O     O_R   0.264190 0.459820 0.326980 -0.490040
O44   O     O_R   0.331700 0.076900 0.669350 -0.481566
O45   O     O_R   0.445950 0.919440 0.676520 -0.525078
O46   O     O_R   0.668300 0.076900 0.330650 -0.524124
O47   O     O_R   0.831700 0.576900 0.669350 -0.482348
O48   O     O_R   0.168300 0.576900 0.330650 -0.513373
O49   O     O_R   0.554050 0.919440 0.323480 -0.534833
O50   O     O_R   0.945950 0.419440 0.676520 -0.529225
O51   O     O_R   0.054050 0.419440 0.323480 -0.538311
O52   O     O_R   0.456730 0.717630 0.669840 -0.484201

loop_
_geom_bond_atom_site_label_1
_geom_bond_atom_site_label_2
_ccdc_geom_bond_type
C44   C49   A    
C3    C104  S    
C100  O39   A    
C4    H30   S    
C21   C26   A    
Cr11  O48   S    
C36   O16   A    
C69   H10   S    
Cr8   O44   S    
C48   C95   S    
C56   O30   A    
C55   C112  S    
C19   I6    S    
C75   I1    S    
C82   C99   S    
C57   C79   A    
C90   O47   A    
C98   O37   A    
C39   C87   S    
C72   C76   A    
C35   C102  A    
C45   C93   S    
C49   C50   A    
C94   O49   A    
Cr3   O11   S    
C32   N9    S    
C57   C62   A    
Cr2   O10   S    
Cr4   O30   S    
Cr1   O9    S    
C72   N5    S    
C106  H1    S    
H58   N11   S    
C86   O23   A    
C95   O50   A    
H62   N12   S    
C40   N12   S    
C103  C110  S    
C33   C38   A    
C2    H15   S    
C96   O4    A    
C37   C85   S    
C59   H56   S    
C90   O42   A    
Cr5   O10   S    
C58   C107  S    
Cr12  O27   S    
C77   I3    S    
C102  H14   S    
C15   H73   S    
Cr11  O13   S    
C12   H65   S    
C81   C98   S    
C25   O15   A    
Cr6   O16   S    
C65   C70   A    
C12   H64   S    
C29   C33   A    
C27   H18   S    
C41   N2    S    
C14   N2    S    
C9    H52   S    
C3    C91   S    
C67   C72   A    
C18   C102  A    
C20   I7    S    
C16   N4    S    
C17   C39   A    
C24   C29   A    
C12   N12   S    
C7    H43   S    
C42   N3    S    
C98   O6    A    
C92   O43   A    
C60   C82   A    
Cr6   O11   S    
Cr9   O24   S    
C97   O5    A    
C20   C24   A    
C99   O38   A    
C8    H46   S    
C5    H35   S    
C104  H7    S    
C56   O26   A    
C80   C109  S    
C70   C74   A    
C55   O25   A    
H31   N5    S    
Cr1   O36   S    
C54   O24   A    
H53   N10   S    
C38   C86   S    
C16   H79   S    
Cr3   O7    S    
Cr12  O5    S    
C16   H76   S    
C8    H47   S    
Cr7   O39   S    
C108  H23   S    
C14   H68   S    
C33   N10   S    
C64   H3    S    
Cr6   O38   S    
C22   C47   S    
C7    H41   S    
H49   N9    S    
C101  C103  S    
Cr6   O42   S    
C108  C112  S    
Cr4   O8    S    
Cr10  O11   S    
C47   O21   A    
C94   O2    A    
Cr8   O22   S    
Cr12  O31   S    
C53   O22   A    
C43   N4    S    
C78   C83   A    
C87   O34   A    
C104  C105  S    
C43   C46   A    
C76   I2    S    
C105  H8    S    
C57   H45   S    
C25   O19   A    
C58   H9    S    
C40   C45   A    
C4    H28   S    
C63   C67   A    
C84   O1    A    
C30   C34   A    
C27   C31   A    
H75   N4    S    
C10   H54   S    
C13   H16   S    
C6    H38   S    
C100  O8    A    
C18   I5    S    
C11   H59   S    
C24   C25   S    
C93   O52   A    
C15   N3    S    
C61   C83   A    
C87   O35   A    
Cr11  O21   S    
C15   H74   S    
C62   C66   A    
Cr6   O23   S    
C88   O44   A    
C91   H13   S    
C66   C92   S    
Cr5   O15   S    
Cr5   O12   S    
C68   C73   A    
C23   C28   A    
C12   H63   S    
C46   C51   A    
C67   C90   S    
C17   C21   A    
Cr8   O45   S    
C34   C39   A    
Cr1   O40   S    
C36   O20   A    
C74   N7    S    
C19   C23   A    
C65   H4    S    
C86   O33   A    
Cr3   O3    S    
C107  H12   S    
C8    N8    S    
C9    N9    S    
C61   H78   S    
Cr2   O2    S    
Cr7   O17   S    
C3    C56   S    
Cr1   O1    S    
C66   C71   A    
Cr3   O29   S    
C6    H37   S    
C28   C32   A    
C69   C106  S    
C85   O12   A    
Cr2   O28   S    
C80   C112  S    
C84   O31   A    
C68   C89   S    
C28   H19   S    
C9    H50   S    
C89   O46   A    
C42   C48   A    
C32   C37   A    
H44   N8    S    
Cr12  O9    S    
C80   H11   S    
C107  C111  S    
C62   H80   S    
C13   C38   A    
Cr4   O35   S    
Cr8   O18   S    
Cr10  O47   S    
Cr11  O26   S    
C61   C65   A    
C15   H72   S    
H40   N7    S    
Cr1   O14   S    
C7    H42   S    
Cr4   O4    S    
C105  C112  S    
C26   C30   A    
C6    N6    S    
C5    H33   S    
C22   C27   A    
H66   N2    S    
Cr3   O33   S    
C1    C26   S    
C41   C44   A    
C31   C35   A    
C95   O3    A    
C42   C43   A    
C10   H55   S    
C11   N11   S    
C16   H77   S    
C78   I4    S    
C64   C68   A    
C104  C108  S    
C34   N11   S    
C88   O40   A    
C30   H21   S    
C47   O17   A    
C31   N8    S    
C106  C110  S    
C50   H24   S    
C101  C106  S    
Cr9   O19   S    
Cr10  O50   S    
C105  C109  S    
C40   C41   A    
C85   O32   A    
C54   O28   A    
C4    N1    S    
C13   C20   A    
C2    C19   A    
C58   C110  S    
H71   N3    S    
C91   C108  S    
C79   C97   S    
Cr7   O13   S    
C4    H29   S    
C59   C81   A    
C76   C81   A    
Cr2   O6    S    
Cr10  O20   S    
C35   C84   S    
C58   C69   S    
H36   N6    S    
C1    O14   A    
C101  C111  S    
C5    H32   S    
Cr2   O32   S    
C74   C78   A    
C59   C63   A    
C49   H22   S    
Cr9   O10   S    
C21   I8    S    
C60   C64   A    
C17   H17   S    
C83   C100  S    
C99   O7    A    
C80   C91   S    
C18   C22   A    
Cr5   O37   S    
C51   C52   A    
C71   N1    S    
Cr10  O25   S    
C71   C75   A    
C53   O27   A    
C69   C111  S    
C2    C37   A    
C75   C79   A    
C77   C82   A    
C3    C109  S    
C60   H67   S    
C92   O48   A    
Cr4   O13   S    
C10   H57   S    
C5    N5    S    
C93   O45   A    
C11   H61   S    
C73   N6    S    
C9    H51   S    
C89   O41   A    
Cr8   O9    S    
C14   H70   S    
Cr12  O52   S    
C103  H6    S    
Cr9   O49   S    
C63   H2    S    
C44   C94   S    
C1    O18   A    
C10   N10   S    
C53   C110  S    
C55   O29   A    
C109  H34   S    
C48   C52   A    
Cr7   O34   S    
C46   C96   S    
C6    H39   S    
C51   H25   S    
C29   H20   S    
C52   H26   S    
C23   C36   S    
H27   N1    S    
C7    N7    S    
C96   O51   A    
C73   C77   A    
C11   H60   S    
C103  C107  S    
C45   C50   A    
C54   C111  S    
C70   C88   S    
C14   H69   S    
Cr9   O46   S    
Cr7   O43   S    
Cr5   O41   S    
C8    H48   S    
C97   O36   A    
Cr11  O51   S    
C101  H5    S    
