data_mof_unit_37528.cif
_audit_creation_date              2013-03-05T16:44:16-0500
_audit_creation_method            fapswitch 2.2
_symmetry_space_group_name_H-M    P1
_symmetry_Int_Tables_number       1
_space_group_crystal_system       triclinic
_cell_length_a                    23.425005
_cell_length_b                    10.69068
_cell_length_c                    9.909888
_cell_angle_alpha                 89.961181
_cell_angle_beta                  90.047183
_cell_angle_gamma                 90.995418
_cell_volume                      2481.34973524

loop_
_atom_site_label
_atom_site_type_symbol
_atom_site_description
_atom_site_fract_x
_atom_site_fract_y
_atom_site_fract_z
_atom_type_partial_charge
O1    O     O_R   0.500010 0.316790 0.614690 -0.633101
O2    O     O_R   0.500000 0.316760 0.385350 -0.602761
C1    C     C_R   0.501930 0.260305 0.500112 0.894031
O3    O     O_R   0.416160 0.499980 0.614700 -0.580918
O4    O     O_R   0.416150 0.499940 0.385360 -0.616192
C2    C     C_R   0.389477 0.500583 0.499730 0.917372
Zn1   Zn    Zn3+2 0.500000 0.500020 0.653130 1.033848
Zn2   Zn    Zn3+2 0.500000 0.499980 0.346870 0.999999
O5    O     O_R   0.500000 0.683240 0.614650 -0.605781
O6    O     O_R   0.499990 0.683210 0.385310 -0.624173
O7    O     O_R   0.583850 0.500060 0.614640 -0.580939
O8    O     O_R   0.583840 0.500020 0.385300 -0.637094
C3    C     C_R   0.501005 0.739842 0.499820 0.921026
C4    C     C_R   0.610634 0.500202 0.499893 0.905094
C5    C     C_R   0.881529 0.624627 0.498363 0.584281
N1    N     N_R   0.852513 0.512626 0.499263 -0.343166
C6    C     C_R   0.879784 0.400763 0.504007 0.571648
C7    C     C_R   0.939342 0.398372 0.505225 -0.018167
C8    C     C_R   0.970161 0.512713 0.501347 -0.013229
C9    C     C_R   0.941154 0.627084 0.498350 -0.019577
C10   C     C_R   0.968612 0.285000 0.509284 -0.135306
C11   C     C_R   0.028022 0.284993 0.508822 -0.136504
C12   C     C_R   0.059115 0.398346 0.503728 -0.020575
C13   C     C_R   0.030130 0.512649 0.500004 -0.014962
C14   C     C_R   0.060965 0.626854 0.494552 -0.019864
C15   C     C_R   0.031677 0.740303 0.491823 -0.134530
C16   C     C_R   0.972253 0.740424 0.494083 -0.137621
C17   C     C_R   0.118721 0.400641 0.502521 0.524806
N2    N     N_R   0.147943 0.512388 0.495864 -0.360104
C18   C     C_R   0.120549 0.624296 0.491571 0.520822
O9    O     O_2   0.852604 0.732703 0.495752 -0.523287
O10   O     O_2   0.849182 0.292636 0.507001 -0.525330
H1    H     H_    0.945765 0.196082 0.512541 0.197422
H2    H     H_    0.049438 0.196042 0.511877 0.197606
O11   O     O_2   0.147401 0.292356 0.509089 -0.514887
O12   O     O_2   0.150984 0.732420 0.483486 -0.513273
H3    H     H_    0.054523 0.829198 0.487903 0.199000
H4    H     H_    0.950826 0.829377 0.491670 0.195897
C19   C     C_R   0.239069 0.562920 0.604138 -0.050906
H5    H     H_    0.216692 0.604197 0.688207 0.171752
C20   C     C_R   0.298239 0.559817 0.605087 -0.058145
H6    H     H_    0.321132 0.600831 0.689082 0.246573
C21   C     C_R   0.327419 0.504418 0.498076 -0.081870
C22   C     C_R   0.296923 0.454849 0.388068 -0.152945
H7    H     H_    0.318675 0.411604 0.304510 0.185036
C23   C     C_R   0.237722 0.458813 0.386542 -0.059250
H8    H     H_    0.214262 0.419763 0.301826 0.167625
C24   C     C_R   0.208759 0.512042 0.495084 0.258675
C25   C     C_R   0.761994 0.494218 0.373001 0.363164
C26   C     C_R   0.702371 0.489436 0.376596 -0.276492
H9    H     H_    0.678870 0.476370 0.283363 0.205682
C27   C     C_R   0.672956 0.502447 0.498971 -0.105381
C28   C     C_R   0.703373 0.519408 0.619422 -0.148784
H10   H     H_    0.681620 0.529085 0.715097 0.207512
C29   C     C_R   0.762488 0.524600 0.617388 -0.138877
H11   H     H_    0.785823 0.537204 0.710942 0.179889
C30   C     C_R   0.791833 0.512289 0.495566 0.192184
C31   C     C_R   0.502556 0.063769 0.621876 0.048841
C32   C     C_R   0.510138 0.129091 0.501694 -0.057497
C33   C     C_R   0.526421 0.065797 0.384336 -0.117824
H12   H     H_    0.536669 0.115563 0.292007 0.197428
C34   C     C_R   0.525442 0.936153 0.383819 -0.145155
H13   H     H_    0.535380 0.887267 0.291264 0.184261
C35   C     C_R   0.507804 0.871763 0.500422 -0.058291
C36   C     C_R   0.500055 0.936219 0.620493 0.006097
C37   C     C_3   0.451996 0.931991 0.720705 0.154262
C38   C     C_3   0.456305 0.073594 0.724675 -0.478521
H14   H     H_    0.462906 0.886909 0.818054 0.181505
H15   H     H_    0.418069 0.122539 0.686039 0.236123
H16   H     H_    0.473625 0.109208 0.821884 0.213485
C39   C     C_R   0.478463 0.399834 0.071774 0.112074
N3    N     N_R   0.499610 0.499140 0.142800 -0.128487
C40   C     C_R   0.526125 0.592847 0.073763 -0.103582
H17   H     H_    0.546744 0.667534 0.130394 0.172777
C41   C     C_R   0.527225 0.593269 0.930569 0.030961
N4    N     N_R   0.499610 0.499180 0.857150 -0.119354
C42   C     C_R   0.476733 0.401518 0.929538 0.050586
C43   C     C_3   0.415825 0.353256 0.930721 0.030541
C44   C     C_3   0.419508 0.347582 0.084036 0.040024
H18   H     H_    0.409645 0.261173 0.881297 0.143584
H19   H     H_    0.390102 0.410776 0.138043 0.154068
N5    N     N_R   0.397742 0.886632 0.663986 0.226666
O13   O     O_R   0.363994 0.817376 0.737835 -0.345106
O14   O     O_R   0.380443 0.923363 0.545708 -0.334115
C45   C     C_2   0.558715 0.699421 0.868024 0.905157
O15   O     O_2   0.591400 0.682788 0.774544 -0.606648
O16   O     O_R   0.555147 0.818464 0.925581 -0.832482
H20   H     H_    0.579556 0.883341 0.876756 0.350119
N6    N     N_R   0.373866 0.444450 0.887069 0.216651
O17   O     O_R   0.323831 0.403615 0.848693 -0.379699
O18   O     O_R   0.380766 0.562729 0.915284 -0.365931
N7    N     N_R   0.418757 0.219900 0.137515 0.225350
O19   O     O_R   0.452579 0.135472 0.089448 -0.409060
O20   O     O_R   0.385031 0.190998 0.237375 -0.337337
N8    N     N_R   0.791106 0.479837 0.245789 0.220967
O21   O     O_R   0.842713 0.523637 0.228050 -0.368733
O22   O     O_R   0.764654 0.429195 0.143397 -0.370667

loop_
_geom_bond_atom_site_label_1
_geom_bond_atom_site_label_2
_geom_bond_distance
_ccdc_geom_bond_type
C37   H14   1.109737 S    
C29   H11   1.083179 S    
C7    C10   1.403392 A    
C40   C41   1.419294 A    
C20   H6    1.079025 S    
C8    C9    1.409382 A    
C21   C22   1.402125 A    
C39   C44   1.485733 S    
C19   C20   1.387052 A    
C42   C43   1.508804 S    
C22   H7    1.080939 S    
Zn1   O7    2.001180 S    
C15   C16   1.392225 A    
C34   H13   1.083431 S    
C17   N2    1.368093 A    
O4    C2    1.294736 A    
O7    C4    1.299183 A    
C43   H18   1.107047 S    
C10   H1    1.083247 S    
C16   H4    1.083233 S    
C5    N1    1.366557 A    
C25   C30   1.412577 A    
C33   C34   1.385792 A    
C7    C8    1.409329 A    
C40   H17   1.082824 S    
O5    C3    1.288511 A    
C34   C35   1.403432 A    
C41   C45   1.478794 S    
C4    C27   1.459698 S    
N8    O21   1.300827 A    
C17   O11   1.350020 S    
N1    C6    1.366334 A    
C26   C27   1.403485 A    
C12   C13   1.408651 A    
N6    O18   1.302512 A    
C45   O16   1.398834 S    
C37   C38   1.515983 S    
C32   C33   1.402388 A    
C10   C11   1.391704 A    
C20   C21   1.399530 A    
O3    Zn1   2.000221 S    
C22   C23   1.388229 A    
C26   H9    1.082996 S    
C28   C29   1.385082 A    
C43   N6    1.461391 S    
C5    C9    1.396493 A    
C11   H2    1.083231 S    
C23   C24   1.398776 A    
Zn2   N3    2.022349 S    
N2    C24   1.424719 S    
C13   C14   1.408779 A    
O3    C2    1.299142 A    
C19   H5    1.082968 S    
C44   H19   1.111142 S    
C43   C44   1.522937 S    
C14   C15   1.404013 A    
C45   O15   1.217429 D    
C25   N8    1.443347 S    
C33   H12   1.083106 S    
O1    C1    1.287595 A    
C41   N4    1.391845 A    
N2    C18   1.368007 A    
C37   N5    1.464268 S    
C31   C36   1.363916 A    
Zn2   O8    2.000219 S    
N7    O20   1.300501 A    
C6    C7    1.395857 A    
C12   C17   1.396133 A    
N4    C42   1.368225 A    
C5    O9    1.349767 S    
C44   N7    1.463769 S    
O8    C4    1.297053 A    
C25   C26   1.397206 A    
N5    O14   1.302450 A    
C2    C21   1.455087 S    
C29   C30   1.397150 A    
C39   C42   1.410204 A    
C27   C28   1.399917 A    
C14   C18   1.396829 A    
Zn1   O5    1.995268 S    
C23   H8    1.082980 S    
O1    Zn1   1.995807 S    
O2    Zn2   1.995266 S    
N3    C40   1.354841 A    
O6    C3    1.286556 A    
O4    Zn2   2.001181 S    
N8    O22   1.301819 A    
C15   H3    1.083225 S    
C28   H10   1.082614 S    
Zn1   N4    2.021857 S    
C9    C16   1.403569 A    
C18   O12   1.349888 S    
C38   H16   1.109976 S    
C35   C36   1.389039 A    
O2    C1    1.288271 A    
C31   C32   1.390175 A    
C39   N3    1.360172 A    
C3    C35   1.416558 S    
N7    O19   1.302059 A    
C8    C13   1.404877 A    
N1    C30   1.421827 S    
C36   C37   1.501893 S    
C31   C38   1.492836 S    
O16   H20   1.014059 S    
Zn2   O6    1.995808 S    
N5    O13   1.299458 A    
C6    O10   1.349884 S    
C11   C12   1.403874 A    
C38   H15   1.112698 S    
N6    O17   1.300260 A    
C19   C24   1.397861 A    
C1    C32   1.419259 S    
