data_mof_unit_18744.cif
_audit_creation_date              2012-12-11T14:08:16-0500
_audit_creation_method            fapswitch 2.2
_symmetry_space_group_name_H-M    P1
_symmetry_Int_Tables_number       1
_space_group_crystal_system       triclinic
_cell_length_a                    28.218313
_cell_length_b                    7.179048
_cell_length_c                    17.350893
_cell_angle_alpha                 89.999954
_cell_angle_beta                  102.0142
_cell_angle_gamma                 89.999988
_cell_volume                      3437.9633036

loop_
_atom_site_label
_atom_site_type_symbol
_atom_type_description
_atom_site_fract_x
_atom_site_fract_y
_atom_site_fract_z
_atom_type_partial_charge
O1    O     O_R   0.000700 0.436510 0.857920 -0.535340
O2    O     O_R   0.999300 0.563490 0.142080 -0.535332
O3    O     O_R   0.999300 0.936510 0.642080 -0.535332
O4    O     O_R   0.000700 0.063490 0.357920 -0.535340
O5    O     O_R   0.930080 0.766380 0.721890 -0.544928
O6    O     O_R   0.069920 0.233620 0.278110 -0.545015
O7    O     O_R   0.069920 0.266380 0.778110 -0.545015
O8    O     O_R   0.930080 0.733620 0.221890 -0.544928
C1    C     C_R   0.910554 0.597596 0.708840 0.750466
C2    C     C_R   0.089452 0.402335 0.291157 0.750670
C3    C     C_R   0.089452 0.097665 0.791157 0.750671
C4    C     C_R   0.910554 0.902404 0.208840 0.750466
O9    O     O_R   0.996180 0.766230 0.862310 -0.531500
O10   O     O_R   0.003820 0.233770 0.137690 -0.531564
O11   O     O_R   0.003820 0.266230 0.637690 -0.531564
O12   O     O_R   0.996180 0.733770 0.362310 -0.531499
O13   O     O_R   0.065870 0.936460 0.783500 -0.539970
O14   O     O_R   0.934130 0.063540 0.216500 -0.539972
O15   O     O_R   0.934130 0.436460 0.716500 -0.539972
O16   O     O_R   0.065870 0.563540 0.283500 -0.539970
C5    C     C_R   0.998201 0.595829 0.894128 0.709188
C6    C     C_R   0.001798 0.404171 0.105872 0.708826
C7    C     C_R   0.001798 0.095829 0.605872 0.708826
C8    C     C_R   0.998202 0.904170 0.394128 0.709189
O17   O     O_3   0.022790 0.603020 0.723980 -0.376092
O18   O     O_3   0.977210 0.396980 0.276020 -0.375951
O19   O     O_3   0.977210 0.103020 0.776020 -0.375951
O20   O     O_3   0.022790 0.896980 0.223980 -0.376093
V1    V     V_3+5 0.995770 0.877900 0.754830 1.484180
V2    V     V_3+5 0.004230 0.122100 0.245170 1.483986
V3    V     V_3+5 0.004230 0.377900 0.745170 1.483987
V4    V     V_3+5 0.995770 0.622100 0.254830 1.484180
C9    C     C_2   0.006429 0.079361 0.522387 -0.263001
C10   C     C_2   0.993571 0.920637 0.477613 -0.262931
C11   C     C_2   0.993571 0.579362 0.977613 -0.262931
C12   C     C_2   0.006429 0.420639 0.022387 -0.263002
C13   C     C_R   0.684146 0.956567 0.025195 0.624226
C14   C     C_R   0.315577 0.021880 0.974365 0.621020
C15   C     C_R   0.315577 0.478112 0.474368 0.621034
C16   C     C_R   0.684145 0.543436 0.525198 0.624224
O21   O     O_2   0.714637 0.954614 0.974810 -0.497426
O22   O     O_2   0.284732 0.001017 0.023561 -0.497706
O23   O     O_2   0.284732 0.498970 0.523564 -0.497701
O24   O     O_2   0.714637 0.545395 0.474814 -0.497426
N1    N     N_R   0.703198 0.944408 0.104247 -0.550261
N2    N     N_R   0.296917 0.059106 0.896618 -0.550514
N3    N     N_R   0.296917 0.440893 0.396620 -0.550512
N4    N     N_R   0.703198 0.555591 0.604250 -0.550260
C17   C     C_R   0.674177 0.945887 0.158157 0.736739
C18   C     C_R   0.326437 0.084315 0.844273 0.741925
C19   C     C_R   0.326436 0.415691 0.344276 0.741913
C20   C     C_R   0.674177 0.554107 0.658161 0.736738
C21   C     C_R   0.777501 0.761743 0.154661 0.691298
C22   C     C_R   0.222164 0.241406 0.848386 0.692226
C23   C     C_R   0.222164 0.258591 0.348396 0.692227
C24   C     C_R   0.777501 0.738256 0.654664 0.691297
C25   C     C_R   0.827950 0.751478 0.179964 -0.267705
C26   C     C_R   0.171735 0.250655 0.822788 -0.266618
C27   C     C_R   0.171735 0.249342 0.322798 -0.266613
C28   C     C_R   0.827950 0.748521 0.679966 -0.267705
C29   C     C_R   0.833853 0.083883 0.159654 -0.172836
C30   C     C_R   0.166511 0.916265 0.837848 -0.174079
C31   C     C_R   0.166511 0.583736 0.337841 -0.174078
C32   C     C_R   0.833853 0.416117 0.659656 -0.172836
C33   C     C_R   0.783534 0.093624 0.134007 -0.145832
C34   C     C_R   0.216838 0.907424 0.863679 -0.143787
C35   C     C_R   0.216839 0.592577 0.363672 -0.143800
C36   C     C_R   0.783534 0.406375 0.634010 -0.145833
C37   C     C_R   0.755056 0.932996 0.131315 0.250426
C38   C     C_R   0.245015 0.069566 0.869191 0.245589
C39   C     C_R   0.245015 0.430433 0.369194 0.245598
C40   C     C_R   0.755056 0.567003 0.631319 0.250430
C41   C     C_R   0.602637 0.972871 0.052033 -0.123075
C42   C     C_R   0.397533 0.032310 0.949163 -0.124171
C43   C     C_R   0.397533 0.467689 0.449166 -0.124171
C44   C     C_R   0.602637 0.527128 0.552036 -0.123074
C45   C     C_R   0.633242 0.970863 0.996703 -0.048085
C46   C     C_R   0.366463 0.006837 0.002908 -0.048030
C47   C     C_R   0.366463 0.493153 0.502911 -0.048035
C48   C     C_R   0.633241 0.529140 0.496706 -0.048087
C49   C     C_R   0.611724 0.981968 0.915372 -0.055242
C50   C     C_R   0.387472 0.965923 0.082636 -0.050363
C51   C     C_R   0.387472 0.534059 0.582640 -0.050365
C52   C     C_R   0.611723 0.518040 0.415375 -0.055246
C53   C     C_R   0.623428 0.960130 0.133424 -0.175687
C54   C     C_R   0.377207 0.072036 0.869254 -0.178246
C55   C     C_R   0.377207 0.427971 0.369256 -0.178242
C56   C     C_R   0.623428 0.539863 0.633427 -0.175689
C57   C     C_R   0.856849 0.912519 0.182817 -0.135121
C58   C     C_R   0.143171 0.088156 0.817215 -0.135524
C59   C     C_R   0.143171 0.411843 0.317215 -0.135523
C60   C     C_R   0.856849 0.587481 0.682818 -0.135122
H1    H     H_    0.854689 0.210864 0.160720 0.155903
H2    H     H_    0.145946 0.788131 0.834601 0.156471
H3    H     H_    0.145947 0.711873 0.334586 0.156472
H4    H     H_    0.854689 0.289136 0.660721 0.155903
H5    H     H_    0.766591 0.226418 0.116086 0.205057
H6    H     H_    0.234031 0.774104 0.879572 0.211070
H7    H     H_    0.234032 0.725899 0.379559 0.211079
H8    H     H_    0.766591 0.273581 0.616089 0.205057
C61   C     C_R   0.479520 0.035709 0.919914 -0.044036
C62   C     C_R   0.520871 0.982598 0.082074 -0.043500
C63   C     C_R   0.520870 0.517394 0.582077 -0.043499
C64   C     C_R   0.479520 0.464297 0.419916 -0.044037
C65   C     C_R   0.469440 0.986026 0.055707 0.085620
C66   C     C_R   0.530551 0.008920 0.944984 0.087172
C67   C     C_R   0.530550 0.491085 0.444987 0.087172
C68   C     C_R   0.469440 0.513965 0.555710 0.085619
C69   C     C_R   0.448955 0.017992 0.975041 0.073264
C70   C     C_R   0.551228 0.988091 0.026254 0.074142
C71   C     C_R   0.551227 0.511908 0.526257 0.074142
C72   C     C_R   0.448955 0.482007 0.475044 0.073264
C73   C     C_R   0.457942 0.082204 0.841302 -0.264786
C74   C     C_R   0.543136 0.976032 0.162905 -0.267375
C75   C     C_R   0.543136 0.523954 0.662908 -0.267376
C76   C     C_R   0.457942 0.417811 0.341304 -0.264788
C77   C     C_R   0.408068 0.099342 0.816355 0.660179
C78   C     C_R   0.593104 0.964446 0.188112 0.656163
C79   C     C_R   0.593103 0.535542 0.688116 0.656162
C80   C     C_R   0.408068 0.400673 0.316356 0.660182
O25   O     O_2   0.306500 0.119423 0.768020 -0.436545
O26   O     O_2   0.694602 0.934614 0.235567 -0.438148
O27   O     O_2   0.694602 0.565375 0.735570 -0.438148
O28   O     O_2   0.306499 0.380589 0.268022 -0.436551
C81   C     C_R   0.561590 0.999620 0.890955 -0.175859
C82   C     C_R   0.437720 0.955667 0.107531 -0.172012
C83   C     C_R   0.437719 0.544315 0.607535 -0.172008
C84   C     C_R   0.561590 0.500390 0.390958 -0.175860
H9    H     H_    0.155168 0.385390 0.807546 0.157378
H10   H     H_    0.844264 0.617302 0.197304 0.158480
H11   H     H_    0.844263 0.882698 0.697306 0.158480
H12   H     H_    0.155168 0.114605 0.307562 0.157373
H13   H     H_    0.478823 0.111661 0.797364 0.153800
H14   H     H_    0.522924 0.984929 0.209028 0.154908
H15   H     H_    0.522924 0.515053 0.709031 0.154907
H16   H     H_    0.478822 0.388362 0.297365 0.153801
H17   H     H_    0.547583 0.000513 0.828191 0.119002
H18   H     H_    0.451074 0.917535 0.168283 0.119270
H19   H     H_    0.451074 0.582440 0.668288 0.119269
H20   H     H_    0.547583 0.499501 0.328194 0.119002
C85   C     C_1   0.029365 0.237649 0.492904 0.382126
N5    N     N_1   0.047724 0.364190 0.469837 -0.345309
C86   C     C_1   0.970637 0.762346 0.507096 0.382212
N6    N     N_1   0.952279 0.635802 0.530163 -0.345608
C87   C     C_1   0.970636 0.737654 0.007096 0.382212
N7    N     N_1   0.952278 0.864198 0.030163 -0.345608
C88   C     C_1   0.029365 0.262351 0.992905 0.382125
N8    N     N_1   0.047725 0.135810 0.969838 -0.345310
C89   C     C_1   0.639325 0.975433 0.853817 0.513363
N9    N     N_1   0.661142 0.970430 0.804257 -0.204805
C90   C     C_1   0.359197 0.931377 0.141877 0.515084
N10   N     N_1   0.336850 0.903598 0.189594 -0.219994
C91   C     C_1   0.359196 0.568594 0.641882 0.515098
N11   N     N_1   0.336850 0.596363 0.689600 -0.219981
C92   C     C_1   0.639325 0.524579 0.353821 0.513365
N12   N     N_1   0.661141 0.529584 0.304260 -0.204799
F1    F     F_    0.248777 0.400037 0.853756 -0.670914
F2    F     F_    0.750459 0.604783 0.152282 -0.669194
F3    F     F_    0.750459 0.895216 0.652286 -0.669193
F4    F     F_    0.248777 0.099958 0.353775 -0.670925
F5    F     F_    0.390471 0.143814 0.739625 -0.645818
F6    F     F_    0.611356 0.958775 0.266968 -0.645641
F7    F     F_    0.611356 0.541208 0.766972 -0.645640
F8    F     F_    0.390470 0.356210 0.239626 -0.645812

loop_
_geom_bond_atom_site_label_1
_geom_bond_atom_site_label_2
_ccdc_geom_bond_type
C52   C84   A    
O1    C5    A    
C23   C27   A    
O19   V1    S    
O13   V1    S    
O3    C7    A    
C11   C12   D    
C48   C52   A    
C21   C37   A    
C42   C69   A    
C87   N7    T    
C41   C70   A    
O7    C3    A    
C66   C81   A    
C21   F2    S    
C25   C57   A    
C65   C82   A    
C32   C36   A    
C63   C71   A    
O10   V2    S    
C67   C84   A    
C14   O22   S    
C24   F3    S    
C22   C26   A    
O4    C8    A    
C20   O27   S    
C33   C37   A    
C26   H9    S    
C61   C69   A    
C86   N6    T    
C31   H3    S    
O1    V3    S    
C61   C73   A    
C28   H11   S    
C62   C65   A    
O2    V4    S    
C11   C87   S    
O3    V1    S    
C46   C50   A    
C50   C82   A    
C64   C76   A    
C85   N5    T    
C1    O15   A    
C78   F6    S    
C88   N8    T    
C2    O16   A    
C7    C9    S    
O2    C6    A    
C90   N10   T    
C16   C48   A    
C63   C68   A    
O14   V2    S    
C45   C49   A    
C44   C56   A    
C50   C90   S    
C35   H7    S    
C68   C72   A    
O11   C7    A    
O15   V3    S    
O12   C8    A    
C73   H13   S    
C19   O28   S    
C31   C59   A    
C18   O25   S    
C83   H19   S    
N4    C40   S    
C1    C60   S    
C29   C57   A    
O5    V1    S    
C28   C60   A    
C74   H14   S    
C10   C86   S    
C31   C35   A    
C27   H12   S    
O7    V3    S    
C30   C34   A    
N1    C37   S    
O8    V4    S    
C17   C53   A    
C4    C57   S    
C20   C56   A    
C32   H4    S    
C19   C55   A    
C64   C72   A    
C21   C25   A    
O18   V4    S    
N3    C19   A    
C14   C46   A    
C24   C40   A    
C13   C45   A    
C8    C10   S    
C76   C80   A    
C36   C40   A    
C15   C47   A    
C18   C54   A    
C63   C75   A    
C36   H8    S    
O5    C1    A    
C62   C74   A    
C25   H10   S    
C12   C88   S    
C22   C38   A    
N1    C17   A    
O8    C4    A    
N3    C39   S    
C9    C10   D    
C43   C72   A    
O9    C5    A    
C27   C59   A    
C42   C54   A    
C56   C79   A    
C81   H17   S    
C26   C58   A    
C41   C53   A    
C74   C78   A    
C73   C77   A    
C43   C55   A    
C23   F4    S    
O6    V2    S    
C77   F5    S    
C2    C59   S    
C75   C79   A    
C30   H2    S    
C62   C70   A    
C32   C60   A    
C13   N1    A    
N2    C38   S    
C15   N3    A    
O16   V4    S    
O9    V1    S    
C61   C66   A    
C16   N4    A    
C65   C69   A    
C82   H18   S    
C49   C81   A    
C67   C71   A    
O17   V3    S    
C44   C48   A    
C51   C83   A    
C3    O13   A    
O6    C2    A    
C15   O23   S    
O11   V3    S    
C76   H16   S    
O12   V4    S    
C6    C12   S    
N2    C18   A    
C79   F7    S    
C9    C85   S    
O10   C6    A    
O20   V2    S    
C5    C11   S    
C84   H20   S    
C33   H5    S    
C55   C80   A    
C89   N9    T    
C22   F1    S    
C47   C51   A    
C3    C58   S    
C34   H6    S    
C51   C91   S    
C34   C38   A    
C75   H15   S    
C44   C71   A    
C49   C89   S    
C17   O26   S    
C30   C58   A    
C52   C92   S    
C54   C77   A    
C35   C39   A    
C68   C83   A    
C13   O21   S    
C53   C78   A    
O4    V2    S    
C14   N2    A    
C80   F8    S    
C29   C33   A    
C16   O24   S    
C24   C28   A    
C66   C70   A    
C42   C46   A    
C4    O14   A    
C92   N12   T    
C41   C45   A    
C91   N11   T    
N4    C20   A    
C29   H1    S    
C43   C47   A    
C64   C67   A    
C23   C39   A    
