data_mof_unit_41821.cif
_audit_creation_date              2012-12-10T18:44:16-0500
_audit_creation_method            fapswitch 2.2
_symmetry_space_group_name_H-M    P1
_symmetry_Int_Tables_number       1
_space_group_crystal_system       triclinic
_cell_length_a                    18.089769
_cell_length_b                    18.239652
_cell_length_c                    21.985681
_cell_angle_alpha                 114.126743
_cell_angle_beta                  113.930789
_cell_angle_gamma                 90.031234
_cell_volume                      5929.83253637

loop_
_atom_site_label
_atom_site_type_symbol
_atom_type_description
_atom_site_fract_x
_atom_site_fract_y
_atom_site_fract_z
_atom_type_partial_charge
C1    C     C_R   0.349670 0.349391 0.699205 0.821630
C2    C     C_R   0.650397 0.650667 0.300777 0.823919
C3    C     C_3   0.543673 0.557531 0.575198 0.251534
C4    C     C_3   0.461995 0.442093 0.431708 0.270842
C5    C     C_3   0.025393 0.048250 0.975366 -0.502854
C6    C     C_3   0.975690 0.949593 0.024132 -0.532276
C7    C     C_3   0.980088 0.071479 0.025549 0.441821
C8    C     C_3   0.021118 0.926922 0.974280 0.477319
C9    C     C_1   0.111291 0.109016 0.221392 -0.096761
C10   C     C_1   0.888938 0.890845 0.778646 -0.076165
C11   C     C_3   0.081774 0.009742 0.023753 0.460414
C12   C     C_3   0.919342 0.988900 0.976271 0.455566
C13   C     C_3   0.037195 0.033477 0.073673 -0.094805
C14   C     C_3   0.963949 0.964687 0.926368 -0.041750
C15   C     C_1   0.077893 0.074425 0.154692 0.058151
C16   C     C_1   0.922652 0.924392 0.845365 0.102749
C17   C     C_3   0.037687 0.501304 0.569132 -0.517385
C18   C     C_3   0.962885 0.498479 0.432392 -0.490294
C19   C     C_3   0.943526 0.479879 0.517838 0.461069
C20   C     C_3   0.057167 0.520286 0.483985 0.432503
C21   C     C_3   0.949988 0.552827 0.501299 -0.248856
C22   C     C_3   0.050213 0.447190 0.500104 -0.244486
C23   C     C_R   0.150518 0.150126 0.300622 0.842675
C24   C     C_R   0.849536 0.850759 0.699382 0.827724
C25   C     C_3   0.044051 0.574655 0.551859 0.381872
C26   C     C_3   0.956489 0.425371 0.449772 0.476302
C27   C     C_3   0.576736 0.540833 0.023932 0.275710
C28   C     C_3   0.424555 0.462398 0.975948 0.275596
C29   C     C_3   0.544591 0.447503 0.975674 0.271278
C30   C     C_3   0.456531 0.555898 0.024244 0.252983
C31   C     C_1   0.389507 0.388807 0.778432 -0.032317
C32   C     C_1   0.611051 0.611728 0.221513 -0.027529
C33   C     C_3   0.496358 0.558129 0.974472 0.263259
C34   C     C_3   0.504845 0.445211 0.025211 0.276168
C35   C     C_3   0.464098 0.464402 0.926148 -0.287182
C36   C     C_3   0.537183 0.538654 0.073721 -0.288452
C37   C     C_1   0.423117 0.422723 0.845121 0.269952
C38   C     C_1   0.577877 0.578948 0.154795 0.267249
C39   C     C_3   0.076014 0.005112 0.549927 0.272565
C40   C     C_3   0.922875 0.996026 0.450519 0.271072
C41   C     C_3   0.018409 0.926511 0.480979 0.263647
C42   C     C_3   0.980383 0.074730 0.519309 0.263551
C43   C     C_3   0.946276 0.950726 0.499981 -0.409791
C44   C     C_3   0.052711 0.050498 0.500453 -0.409009
C45   C     C_R   0.394697 0.111324 0.501907 1.008018
C46   C     C_R   0.606657 0.889567 0.498587 1.038793
C47   C     C_3   0.003637 0.029863 0.568812 0.243270
C48   C     C_3   0.995222 0.971492 0.431743 0.266886
C49   C     C_3   0.511122 0.043141 0.569713 0.241938
C50   C     C_3   0.493778 0.957759 0.430206 0.294285
C51   C     C_3   0.580245 0.038703 0.545134 0.237875
C52   C     C_3   0.423574 0.961744 0.453849 0.207927
C53   C     C_3   0.549950 0.946262 0.498469 -0.363853
C54   C     C_3   0.454233 0.056489 0.501499 -0.506235
C55   C     C_3   0.480431 0.949768 0.522178 0.296214
C56   C     C_3   0.524526 0.051269 0.476641 0.287520
C57   C     C_R   0.108100 0.391123 0.499994 0.882285
C58   C     C_R   0.891909 0.608821 0.500414 0.850464
C59   C     C_R   0.108780 0.107937 0.499892 1.010158
C60   C     C_R   0.890981 0.892491 0.500386 1.011959
C61   C     C_R   0.390744 0.390953 0.498706 0.980171
C62   C     C_R   0.611874 0.608824 0.503711 0.960534
C63   C     C_3   0.449463 0.537865 0.525626 0.338351
C64   C     C_3   0.556358 0.461316 0.481239 0.338097
C65   C     C_3   0.462365 0.534929 0.459263 0.260252
C66   C     C_3   0.543390 0.464941 0.547425 0.293285
C67   C     C_3   0.556833 0.554311 0.508475 -0.422483
C68   C     C_3   0.449439 0.445627 0.498399 -0.382040
H1    H     H_    0.044659 0.086286 0.953799 0.183582
H2    H     H_    0.957202 0.911315 0.045892 0.181752
H3    H     H_    0.069629 0.502930 0.624829 0.193372
H4    H     H_    0.930156 0.496629 0.376614 0.207445
O1    O     O_3   0.250010 0.250010 0.500010 -0.549247
O2    O     O_3   0.749990 0.749990 0.499990 -0.568310
O3    O     O_R   0.376520 0.141930 0.456900 -0.674826
O4    O     O_R   0.623480 0.858070 0.543100 -0.587757
O5    O     O_R   0.184990 0.419580 0.543110 -0.628226
O6    O     O_R   0.815010 0.580420 0.456890 -0.613019
O7    O     O_R   0.332220 0.270690 0.664420 -0.589653
O8    O     O_R   0.667780 0.729310 0.335580 -0.590295
O9    O     O_R   0.106290 0.167820 0.335630 -0.588266
O10   O     O_R   0.893710 0.832180 0.664370 -0.593404
O11   O     O_R   0.332200 0.393690 0.664400 -0.637195
O12   O     O_R   0.667800 0.606310 0.335600 -0.618082
O13   O     O_R   0.229300 0.167820 0.335610 -0.670949
O14   O     O_R   0.770700 0.832180 0.664390 -0.652215
O15   O     O_R   0.358130 0.123520 0.543120 -0.559294
O16   O     O_R   0.641870 0.876480 0.456880 -0.572639
O17   O     O_R   0.080390 0.314990 0.456920 -0.594772
O18   O     O_R   0.919610 0.685010 0.543080 -0.598702
O19   O     O_R   0.185040 0.123520 0.543150 -0.589656
O20   O     O_R   0.814960 0.876480 0.456850 -0.598379
O21   O     O_R   0.358080 0.419590 0.543080 -0.607587
O22   O     O_R   0.641920 0.580410 0.456920 -0.575727
O23   O     O_R   0.080420 0.141920 0.456950 -0.574680
O24   O     O_R   0.919580 0.858080 0.543050 -0.573868
O25   O     O_R   0.376490 0.315000 0.456880 -0.667864
O26   O     O_R   0.623510 0.685000 0.543120 -0.658719
Zn1   Zn    Zn3+2 0.307090 0.219220 0.438420 0.972893
Zn2   Zn    Zn3+2 0.692910 0.780780 0.561580 1.040070
Zn3   Zn    Zn3+2 0.280820 0.192930 0.561610 1.145934
Zn4   Zn    Zn3+2 0.719180 0.807070 0.438390 1.152475
Zn5   Zn    Zn3+2 0.131340 0.219220 0.438450 1.106560
Zn6   Zn    Zn3+2 0.868660 0.780780 0.561550 1.093023
Zn7   Zn    Zn3+2 0.280790 0.368660 0.561580 1.014462
Zn8   Zn    Zn3+2 0.719210 0.631340 0.438420 1.049837
S1    S     S_3+6 0.412099 0.594906 0.413106 0.036555
O27   O     O_2   0.438015 0.683951 0.468424 -0.266109
O28   O     O_2   0.436327 0.582613 0.352308 -0.297396
O29   O     O_3   0.309198 0.566369 0.377053 -0.577234
H5    H     H_    0.285775 0.597519 0.348229 0.383194
S2    S     S_3+6 0.594516 0.418314 0.606823 0.014001
O30   O     O_2   0.589405 0.462106 0.679186 -0.234339
O31   O     O_2   0.553253 0.329991 0.570168 -0.369061
O32   O     O_3   0.694118 0.424003 0.623343 -0.613237
H6    H     H_    0.717279 0.395677 0.654890 0.389884
S3    S     S_3+6 0.601328 0.374887 0.941224 0.100749
O33   O     O_2   0.555304 0.289582 0.910808 -0.192474
O34   O     O_2   0.611553 0.384842 0.880346 -0.294649
O35   O     O_3   0.694615 0.390755 0.011125 -0.509855
H7    H     H_    0.723439 0.350500 0.987928 0.375270
S4    S     S_3+6 0.403670 0.631832 0.060940 0.070889
O36   O     O_2   0.385962 0.618133 0.117018 -0.308381
O37   O     O_2   0.457375 0.715183 0.098355 -0.208280
O38   O     O_3   0.314557 0.626084 0.991116 -0.533098
H8    H     H_    0.304385 0.682731 0.006676 0.386061
O39   O     O_3   0.659564 0.581503 0.057135 -0.586202
C69   C     C_3   0.678768 0.592405 0.004913 0.219058
H9    H     H_    0.664579 0.651687 0.005134 0.197532
H10   H     H_    0.644236 0.542194 0.947409 0.187410
C70   C     C_3   0.771022 0.595892 0.028039 -0.341217
H11   H     H_    0.806696 0.645931 0.085335 0.239800
H12   H     H_    0.786386 0.536887 0.028026 0.262224
C71   C     C_3   0.796056 0.611307 0.975148 -0.921756
H13   H     H_    0.762107 0.561276 0.917653 0.295969
H14   H     H_    0.863274 0.613371 0.993358 0.267036
H15   H     H_    0.782637 0.670815 0.975340 0.263320
O40   O     O_3   0.344507 0.415371 0.942890 -0.587187
C72   C     C_3   0.313504 0.432472 0.995663 0.213843
H16   H     H_    0.276970 0.481211 0.994439 0.197989
H17   H     H_    0.362719 0.453011 0.053422 0.185024
C73   C     C_3   0.256550 0.355148 0.974294 -0.314828
H18   H     H_    0.205624 0.334916 0.917427 0.239506
H19   H     H_    0.291972 0.305343 0.973919 0.265571
C74   C     C_3   0.219811 0.370134 0.028760 -0.967424
H20   H     H_    0.269602 0.388455 0.085740 0.290075
H21   H     H_    0.178520 0.312938 0.011318 0.270900
H22   H     H_    0.183206 0.419091 0.029440 0.273711
S5    S     S_3+6 0.512022 0.371751 0.060721 0.081538
O41   O     O_2   0.599974 0.361471 0.091946 -0.208253
O42   O     O_2   0.484539 0.400752 0.121228 -0.332077
O43   O     O_3   0.451478 0.281544 0.991307 -0.497561
H23   H     H_    0.453906 0.245631 0.015537 0.374621
S6    S     S_3+6 0.484718 0.628957 0.935548 0.046007
O44   O     O_2   0.518117 0.602559 0.879069 -0.357310
O45   O     O_2   0.394766 0.630367 0.898078 -0.231972
O46   O     O_3   0.536256 0.723190 0.003581 -0.503240
H24   H     H_    0.532862 0.757257 0.977507 0.375383
O47   O     O_3   0.027385 0.844044 0.458295 -0.596740
C75   C     C_3   0.103341 0.834454 0.455461 0.245017
H25   H     H_    0.148074 0.835159 0.508354 0.202188
H26   H     H_    0.129620 0.882959 0.447339 0.195951
C76   C     C_3   0.090545 0.751476 0.391149 -0.374904
H27   H     H_    0.058670 0.703323 0.395556 0.224952
H28   H     H_    0.050659 0.752329 0.337562 0.271361
C77   C     C_3   0.172193 0.730646 0.391497 -0.879647
H29   H     H_    0.203511 0.777335 0.385323 0.343303
H30   H     H_    0.160508 0.670018 0.344133 0.258253
H31   H     H_    0.212953 0.728436 0.444221 0.259750
O48   O     O_3   0.966731 0.155491 0.536707 -0.596224
C78   C     C_3   0.904984 0.169556 0.561464 0.219159
H32   H     H_    0.935282 0.202231 0.623223 0.193887
H33   H     H_    0.863054 0.112589 0.543787 0.207241
C79   C     C_3   0.853552 0.224049 0.531398 -0.324200
H34   H     H_    0.894730 0.281956 0.550292 0.243508
H35   H     H_    0.824138 0.192614 0.469656 0.289311
C80   C     C_3   0.786445 0.243474 0.557461 -0.903372
H36   H     H_    0.739185 0.187254 0.531052 0.329405
H37   H     H_    0.755795 0.289400 0.540865 0.265505
H38   H     H_    0.813251 0.268991 0.618968 0.287016
S7    S     S_3+6 0.177212 0.012459 0.617077 0.079659
O49   O     O_2   0.235288 0.995740 0.582021 -0.322291
O50   O     O_2   0.207097 0.097409 0.680530 -0.210410
O51   O     O_3   0.173428 0.943321 0.648619 -0.494411
H39   H     H_    0.218662 0.967096 0.699917 0.390312
S8    S     S_3+6 0.821962 0.990351 0.383381 0.120464
O52   O     O_2   0.791712 0.906394 0.318576 -0.195493
O53   O     O_2   0.762912 0.006369 0.417447 -0.261872
O54   O     O_3   0.827108 0.060878 0.353677 -0.480886
H40   H     H_    0.768990 0.059911 0.322482 0.378001
S9    S     S_3+6 0.007001 0.065086 0.658903 0.067063
O55   O     O_2   0.921123 0.066551 0.652405 -0.310749
O56   O     O_2   0.043750 0.008224 0.691606 -0.210646
O57   O     O_3   0.065388 0.159969 0.714425 -0.524794
H41   H     H_    0.064822 0.175343 0.762948 0.376250
S10   S     S_3+6 0.991845 0.934443 0.341546 0.080789
O58   O     O_2   0.953868 0.989619 0.307170 -0.207472
O59   O     O_2   0.077746 0.933507 0.348038 -0.305059
O60   O     O_3   0.934547 0.838982 0.287680 -0.519686
H42   H     H_    0.936013 0.821994 0.239311 0.372029
S11   S     S_3+6 0.686630 0.086484 0.605023 0.123283
O61   O     O_2   0.719404 0.057944 0.664428 -0.207211
O62   O     O_2   0.734799 0.062446 0.560439 -0.270881
O63   O     O_3   0.697291 0.189054 0.645299 -0.471560
H43   H     H_    0.656815 0.201910 0.606333 0.369620
S12   S     S_3+6 0.318011 0.913164 0.392021 0.057384
O64   O     O_2   0.267985 0.932307 0.434941 -0.312093
O65   O     O_2   0.284745 0.944680 0.334684 -0.261671
O66   O     O_3   0.311178 0.811216 0.350009 -0.521319
H44   H     H_    0.312046 0.799371 0.302183 0.411949
S13   S     S_3+6 0.527510 0.101229 0.663967 0.105921
O67   O     O_2   0.565906 0.188668 0.691750 -0.212621
O68   O     O_2   0.447280 0.098989 0.669070 -0.260175
O69   O     O_3   0.591267 0.061070 0.716777 -0.498883
H45   H     H_    0.599441 0.096915 0.768016 0.394048
S14   S     S_3+6 0.484594 0.895989 0.338654 0.089561
O70   O     O_2   0.559150 0.924000 0.333625 -0.201038
O71   O     O_2   0.479799 0.807905 0.324768 -0.261569
O72   O     O_3   0.399165 0.903485 0.273521 -0.561212
H46   H     H_    0.398960 0.866913 0.225489 0.399060
O73   O     O_3   0.468774 0.890352 0.544765 -0.572188
C81   C     C_3   0.399167 0.893968 0.558644 0.260813
H47   H     H_    0.345833 0.848649 0.507771 0.191230
H48   H     H_    0.382514 0.955402 0.574354 0.198960
C82   C     C_3   0.417532 0.869979 0.621518 -0.392281
H49   H     H_    0.431833 0.807599 0.604669 0.233057
H50   H     H_    0.472582 0.913388 0.672082 0.268120
C83   C     C_3   0.345131 0.870651 0.640250 -0.821392
H51   H     H_    0.335251 0.934205 0.663810 0.316086
H52   H     H_    0.359043 0.847775 0.682573 0.261509
H53   H     H_    0.288256 0.830545 0.589909 0.270126
O74   O     O_3   0.566628 0.095863 0.456346 -0.592940
C84   C     C_3   0.520215 0.145285 0.426990 0.109169
H54   H     H_    0.563185 0.185451 0.424226 0.151920
H55   H     H_    0.498624 0.188240 0.465505 0.202660
C85   C     C_3   0.452235 0.094678 0.347595 -0.279417
H56   H     H_    0.479869 0.053970 0.312752 0.271828
H57   H     H_    0.405339 0.056147 0.348098 0.284423
C86   C     C_3   0.409510 0.149130 0.312459 -0.892537
H58   H     H_    0.385041 0.193630 0.347925 0.311180
H59   H     H_    0.357315 0.110461 0.257326 0.262724
H60   H     H_    0.453140 0.182822 0.304523 0.248442
O75   O     O_3   0.382365 0.568496 0.538257 -0.579721
C87   C     C_3   0.408148 0.643174 0.603301 0.188437
H61   H     H_    0.359848 0.680116 0.592943 0.174693
H62   H     H_    0.465998 0.681067 0.616903 0.146114
C88   C     C_3   0.414031 0.626881 0.668064 -0.270385
H63   H     H_    0.351720 0.599072 0.655464 0.251123
H64   H     H_    0.454825 0.582514 0.674926 0.280042
C89   C     C_3   0.447299 0.705705 0.740805 -0.855502
H65   H     H_    0.510042 0.734023 0.754890 0.257738
H66   H     H_    0.451030 0.691667 0.786465 0.308034
H67   H     H_    0.405610 0.749810 0.736053 0.267531
O76   O     O_3   0.619437 0.431827 0.461122 -0.584672
C90   C     C_3   0.610371 0.346106 0.433858 0.103095
H68   H     H_    0.547295 0.313736 0.389852 0.188463
H69   H     H_    0.625072 0.328860 0.479688 0.187844
C91   C     C_3   0.670797 0.318826 0.400292 -0.274217
H70   H     H_    0.660103 0.341760 0.358301 0.278092
H71   H     H_    0.735043 0.346113 0.444751 0.288148
C92   C     C_3   0.660906 0.225753 0.362547 -0.932898
H72   H     H_    0.675275 0.201024 0.403549 0.276264
H73   H     H_    0.704411 0.209311 0.337433 0.302375
H74   H     H_    0.597101 0.196884 0.317789 0.264000
O77   O     O_3   0.577523 0.607511 0.653179 -0.617864
C93   C     C_3   0.652594 0.661195 0.683358 0.114683
H75   H     H_    0.667677 0.701959 0.742369 0.157284
H76   H     H_    0.645852 0.703385 0.658159 0.177707
C94   C     C_3   0.724509 0.616533 0.683514 -0.313777
H77   H     H_    0.736084 0.586862 0.720855 0.272355
H78   H     H_    0.709652 0.568636 0.626782 0.243827
C95   C     C_3   0.802683 0.676055 0.710571 -0.993666
H79   H     H_    0.796492 0.693885 0.666509 0.247866
H80   H     H_    0.856720 0.646357 0.721614 0.269832
H81   H     H_    0.814117 0.731245 0.762710 0.276566
O78   O     O_3   0.429003 0.372552 0.361232 -0.650115
C96   C     C_3   0.355708 0.378531 0.308135 0.165541
H82   H     H_    0.350604 0.335880 0.252694 0.162868
H83   H     H_    0.357145 0.439287 0.309011 0.214778
C97   C     C_3   0.279978 0.351312 0.314147 -0.364842
H84   H     H_    0.283956 0.292451 0.317867 0.243992
H85   H     H_    0.278205 0.398305 0.365052 0.229925
C98   C     C_3   0.200443 0.338672 0.246220 -0.976485
H86   H     H_    0.193856 0.396984 0.241669 0.294372
H87   H     H_    0.146735 0.317446 0.251399 0.270575
H88   H     H_    0.200556 0.291277 0.194710 0.254444
O79   O     O_3   0.957750 0.146564 0.058798 -0.628091
C99   C     C_3   0.936425 0.186736 0.012886 0.154335
H89   H     H_    0.883637 0.215739 0.017242 0.181151
H90   H     H_    0.914814 0.144566 0.952630 0.152368
C100  C     C_3   0.009130 0.254346 0.041047 -0.407093
H91   H     H_    0.025516 0.298310 0.099607 0.241224
H92   H     H_    0.063931 0.227516 0.039929 0.216182
C101  C     C_3   0.987874 0.300479 0.993787 -0.895500
H93   H     H_    0.974634 0.258246 0.935570 0.279574
H94   H     H_    0.040843 0.350391 0.016809 0.266765
H95   H     H_    0.933250 0.328079 0.994215 0.274122
O80   O     O_3   0.042197 0.850990 0.941322 -0.614364
C102  C     C_3   0.076313 0.819998 0.993799 0.120156
H96   H     H_    0.029165 0.805763 0.009865 0.134417
H97   H     H_    0.130860 0.864756 0.044310 0.182376
C103  C     C_3   0.103598 0.740550 0.958683 -0.327923
H98   H     H_    0.050042 0.696331 0.907025 0.232949
H99   H     H_    0.152156 0.753485 0.943641 0.253307
C104  C     C_3   0.137354 0.701897 0.011826 -0.898975
H100  H     H_    0.193019 0.743669 0.062704 0.283335
H101  H     H_    0.154495 0.643306 0.983997 0.287481
H102  H     H_    0.089834 0.688730 0.027815 0.263293
O81   O     O_3   0.832618 0.980650 0.945238 -0.632895
C105  C     C_3   0.801687 0.971626 0.991896 0.153908
H103  H     H_    0.750502 0.005668 0.989650 0.179182
H104  H     H_    0.847689 0.998798 0.051694 0.157434
C106  C     C_3   0.766770 0.880906 0.962633 -0.409991
H105  H     H_    0.715819 0.857819 0.905382 0.238117
H106  H     H_    0.815429 0.844404 0.959822 0.225486
C107  C     C_3   0.733893 0.868256 0.012247 -0.869079
H107  H     H_    0.784445 0.888717 0.069266 0.281996
H108  H     H_    0.708156 0.802167 0.988978 0.267408
H109  H     H_    0.684168 0.903257 0.015060 0.273886
O82   O     O_3   0.167812 0.015956 0.048888 -0.619323
C108  C     C_3   0.208800 0.099087 0.087984 0.088876
H110  H     H_    0.259943 0.107942 0.141603 0.166527
H111  H     H_    0.169491 0.143997 0.102184 0.118310
C109  C     C_3   0.245154 0.118417 0.043136 -0.318917
H112  H     H_    0.285282 0.074438 0.029958 0.254422
H113  H     H_    0.194446 0.111538 0.989961 0.228245
C110  C     C_3   0.296053 0.205512 0.086253 -0.938335
H114  H     H_    0.348931 0.212867 0.138466 0.273053
H115  H     H_    0.320437 0.218153 0.051850 0.288135
H116  H     H_    0.257189 0.250597 0.100055 0.254645
O83   O     O_3   0.879393 0.455429 0.530755 -0.613429
C111  C     C_3   0.891076 0.506500 0.603976 0.086375
H117  H     H_    0.830226 0.520331 0.600774 0.187212
H118  H     H_    0.933423 0.566856 0.631038 0.137318
C112  C     C_3   0.921417 0.460734 0.651638 -0.338478
H119  H     H_    0.873316 0.406395 0.628485 0.245132
H120  H     H_    0.978329 0.439355 0.650026 0.224990
C113  C     C_3   0.939127 0.513939 0.732371 -0.921577
H121  H     H_    0.982907 0.572082 0.756246 0.269353
H122  H     H_    0.967096 0.480418 0.765709 0.274979
H123  H     H_    0.880834 0.527462 0.736007 0.276857
O84   O     O_3   0.125573 0.541284 0.474361 -0.588726
C114  C     C_3   0.099998 0.548252 0.407647 0.139569
H124  H     H_    0.151828 0.587758 0.413939 0.202648
H125  H     H_    0.046553 0.579327 0.396940 0.121637
C115  C     C_3   0.082075 0.464370 0.341970 -0.380953
H126  H     H_    0.138730 0.438135 0.352911 0.242854
H127  H     H_    0.032752 0.421737 0.335709 0.246734
C116  C     C_3   0.054852 0.471704 0.269650 -0.906350
H128  H     H_    0.998845 0.499039 0.258553 0.272294
H129  H     H_    0.039963 0.409938 0.222678 0.271583
H130  H     H_    0.105018 0.510559 0.272994 0.265715
S15   S     S_3+6 0.106070 0.673863 0.619076 0.096118
O85   O     O_2   0.097510 0.728549 0.581755 -0.215553
O86   O     O_2   0.078458 0.710023 0.679254 -0.272730
O87   O     O_3   0.205555 0.666358 0.656589 -0.510413
H131  H     H_    0.206012 0.625034 0.675075 0.355094
S16   S     S_3+6 0.894918 0.326954 0.380003 0.065521
O88   O     O_2   0.930511 0.289851 0.325747 -0.287840
O89   O     O_2   0.893401 0.272314 0.415491 -0.267732
O90   O     O_3   0.798585 0.338060 0.334965 -0.543025
H132  H     H_    0.770964 0.284406 0.290701 0.383635

loop_
_geom_bond_atom_site_label_1
_geom_bond_atom_site_label_2
_ccdc_geom_bond_type
C63   C65   S    
O46   H24   S    
C18   C21   S    
C100  H91   S    
S14   O72   S    
C90   H69   S    
C74   H20   S    
C39   C41   S    
C78   H33   S    
C76   H28   S    
S3    O34   D    
C72   C73   S    
C89   H66   S    
C82   C83   S    
C87   H61   S    
S16   O90   S    
O29   H5    S    
C42   O48   S    
C40   C43   S    
C30   S4    S    
C109  H112  S    
C49   C51   S    
C50   C52   S    
C97   C98   S    
C64   O76   S    
O20   Zn4   S    
C89   H67   S    
O1    Zn3   S    
O60   H42   S    
C41   C43   S    
C42   C44   S    
C83   H51   S    
S15   O86   D    
C34   S5    S    
S7    O50   D    
C105  H104  S    
C50   C53   S    
S9    O55   D    
C99   C100  S    
C112  H120  S    
S12   O64   D    
O2    Zn2   S    
C31   C37   T    
C107  H107  S    
C64   C66   S    
C59   O19   A    
C111  H117  S    
C79   C80   S    
O18   Zn6   S    
S6    O44   D    
C8    O80   S    
C94   H78   S    
C1    O7    A    
S1    O29   S    
C73   H19   S    
O80   C102  S    
C74   H22   S    
C39   C47   S    
C88   C89   S    
C40   C48   S    
O24   Zn6   S    
C45   O15   A    
O69   H45   S    
S10   O58   D    
C20   O84   S    
O16   Zn4   S    
C72   H16   S    
O4    Zn2   S    
C29   C35   S    
C87   C88   S    
C30   C36   S    
O6    Zn8   S    
C17   C25   S    
C9    C15   T    
S9    O57   S    
C10   C16   T    
O78   C96   S    
C11   C13   S    
C109  C110  S    
C46   C53   S    
O5    Zn7   S    
C61   O21   A    
C102  C103  S    
C112  H119  S    
O1    Zn5   S    
C11   O82   S    
O10   Zn6   S    
S8    O52   D    
C43   C47   S    
C83   H53   S    
C44   C48   S    
C99   H90   S    
C116  H128  S    
C27   C29   S    
C69   H9    S    
S2    O31   D    
C27   C33   S    
C107  H109  S    
C100  H92   S    
S14   O71   D    
S5    O42   D    
C92   H72   S    
C106  H106  S    
C40   S8    S    
O48   C78   S    
C44   C59   S    
O32   H6    S    
C1    C31   S    
C85   H56   S    
C2    C32   S    
C79   H34   S    
O15   Zn3   S    
O1    Zn7   S    
C28   C35   S    
C104  H101  S    
S1    O27   D    
C84   H54   S    
C80   H38   S    
C40   C42   S    
C96   H82   S    
O17   Zn5   S    
C98   H88   S    
C77   H30   S    
S11   O62   D    
O19   Zn3   S    
S10   O60   S    
O23   Zn5   S    
C60   O20   A    
C7    C12   S    
C82   H50   S    
C103  H99   S    
C97   H84   S    
C4    C68   S    
C9    C23   S    
C81   C82   S    
C10   C24   S    
C49   C55   S    
C50   C56   S    
O8    Zn4   S    
C51   C53   S    
C75   H26   S    
S16   O89   D    
O73   C81   S    
O13   Zn1   S    
C84   H55   S    
C115  H127  S    
C7    C13   S    
C108  C109  S    
O3    Zn1   S    
O66   H44   S    
C86   H59   S    
C81   H48   S    
C93   H76   S    
C80   H36   S    
C116  H130  S    
C113  H122  S    
C114  H125  S    
S4    O37   D    
C69   C70   S    
O35   H7    S    
C115  C116  S    
O2    Zn6   S    
O9    Zn5   S    
C21   C25   S    
C63   C68   S    
C93   C94   S    
C92   H74   S    
C17   H3    S    
C39   C44   S    
C113  H123  S    
C85   C86   S    
S4    O38   S    
C96   H83   S    
C91   H70   S    
C21   C58   S    
S3    O33   D    
C72   H17   S    
C33   C35   S    
C87   H62   S    
C34   C36   S    
C84   C85   S    
C7    O79   S    
S13   O69   S    
O63   H43   S    
C109  H113  S    
C96   C97   S    
C98   H86   S    
O7    Zn3   S    
C24   O14   A    
C65   S1    S    
C2    O12   A    
C86   H58   S    
C18   C26   S    
C111  C112  S    
C78   H32   S    
C70   C71   S    
C71   H15   S    
C83   H52   S    
S15   O85   D    
S7    O49   D    
C57   O17   A    
C5    C11   S    
C6    C12   S    
C101  H93   S    
S12   O65   D    
C20   C25   S    
O75   C87   S    
C107  H108  S    
C19   C26   S    
C95   H81   S    
C5    H1    S    
C27   O39   S    
C65   C67   S    
O12   Zn8   S    
O14   Zn2   S    
S6    O45   D    
C52   C55   S    
O2    Zn4   S    
O57   H41   S    
C90   C91   S    
C28   C34   S    
C94   H77   S    
C26   S16   S    
S1    O28   D    
C73   C74   S    
C74   H21   S    
C88   H64   S    
C18   H4    S    
C78   C79   S    
C57   O5    A    
C76   C77   S    
C28   O40   S    
C101  H95   S    
S10   O59   D    
C75   C76   S    
S3    O35   S    
O72   H46   S    
C5    C7    S    
C6    C8    S    
C89   H65   S    
C29   C34   S    
C102  H96   S    
S9    O56   D    
O76   C90   S    
O47   C75   S    
C50   S14   S    
C58   O18   A    
C5    C14   S    
C71   H13   S    
S6    O46   S    
C60   O24   A    
C20   C22   S    
O26   Zn2   S    
C62   O22   A    
O38   H8    S    
C3    C66   S    
S8    O53   D    
C70   H11   S    
S15   O87   S    
S7    O51   S    
C6    H2    S    
C105  H103  S    
C23   O9    A    
C19   C21   S    
O84   C114  S    
C61   O25   A    
C111  H118  S    
C69   H10   S    
C112  C113  S    
C3    C63   S    
C27   C36   S    
C1    O11   A    
C4    C64   S    
C17   C22   S    
C108  H110  S    
S8    O54   S    
C36   C38   S    
C110  H114  S    
S5    O41   D    
O82   C108  S    
C106  H105  S    
O74   C84   S    
C85   H57   S    
C47   S9    S    
O54   H40   S    
C79   H35   S    
O40   C72   S    
C58   O6    A    
O11   Zn7   S    
C104  H100  S    
C22   C26   S    
C94   C95   S    
C73   H18   S    
C51   S11   S    
C105  C106  S    
C66   C68   S    
C114  H124  S    
C3    O77   S    
C98   H87   S    
S11   O61   D    
C76   H27   S    
C61   C68   S    
O83   C111  S    
C22   C57   S    
C46   O4    A    
O81   C105  S    
O51   H39   S    
C103  C104  S    
C62   C67   S    
C52   S12   S    
C25   S15   S    
C35   C37   S    
C97   H85   S    
C4    C65   S    
C49   C54   S    
C56   O74   S    
C51   C56   S    
C24   O10   A    
O21   Zn7   S    
C41   O47   S    
S13   O67   D    
C108  H111  S    
C32   C38   T    
O77   C93   S    
C55   O73   S    
C116  H129  S    
C62   O26   A    
C48   S10   S    
S16   O88   D    
C59   O23   A    
S2    O30   D    
O25   Zn1   S    
C52   C54   S    
C46   O16   A    
C53   C55   S    
C54   C56   S    
C4    O78   S    
C64   C67   S    
C100  C101  S    
S14   O70   D    
S5    O43   S    
C92   H73   S    
C33   S6    S    
C106  C107  S    
C71   H14   S    
C80   H37   S    
C29   S3    S    
C91   H71   S    
O2    Zn8   S    
C104  H102  S    
C63   O75   S    
C49   S13   S    
C82   H49   S    
O43   H23   S    
C102  H97   S    
C39   S7    S    
C43   C60   S    
C95   H80   S    
S13   O68   D    
C12   C14   S    
C45   C54   S    
C13   C15   S    
O79   C99   S    
C77   H29   S    
S11   O63   S    
C14   C16   S    
C91   C92   S    
C95   H79   S    
C90   H68   S    
O1    Zn1   S    
C103  H98   S    
O22   Zn8   S    
C8    C14   S    
C30   C33   S    
C3    C67   S    
C70   H12   S    
C110  H116  S    
C88   H63   S    
O90   H132  S    
C12   O81   S    
C45   O3    A    
C99   H89   S    
C28   C30   S    
C6    C13   S    
C101  H94   S    
S12   O66   S    
C115  H126  S    
C110  H115  S    
C8    C11   S    
C19   O83   S    
O87   H131  S    
C17   C19   S    
C41   C48   S    
C86   H60   S    
C18   C20   S    
C42   C47   S    
C81   H47   S    
C75   H25   S    
C2    O8    A    
C93   H75   S    
C77   H31   S    
C113  H121  S    
C23   O13   A    
C114  C115  S    
C66   S2    S    
S4    O36   D    
S2    O32   S    
O39   C69   S    
