data_mof_unit_32436.cif
_audit_creation_date              2013-03-05T16:33:13-0500
_audit_creation_method            fapswitch 2.2
_symmetry_space_group_name_H-M    P1
_symmetry_Int_Tables_number       1
_space_group_crystal_system       triclinic
_cell_length_a                    27.734209
_cell_length_b                    10.842554
_cell_length_c                    9.545778
_cell_angle_alpha                 90.109074
_cell_angle_beta                  90.310646
_cell_angle_gamma                 90.054647
_cell_volume                      2870.45891882

loop_
_atom_site_label
_atom_site_type_symbol
_atom_site_description
_atom_site_fract_x
_atom_site_fract_y
_atom_site_fract_z
_atom_type_partial_charge
O1    O     O_R   0.500000 0.319640 0.618810 -0.568869
O2    O     O_R   0.500010 0.319680 0.381230 -0.569739
C1    C     C_R   0.500415 0.262591 0.499843 0.838783
O3    O     O_R   0.430260 0.500000 0.618780 -0.598088
O4    O     O_R   0.430270 0.500040 0.381190 -0.608255
C2    C     C_R   0.407416 0.500771 0.499530 0.778635
Cu1   Cu    Cu3+1 0.500000 0.499980 0.640670 1.031444
Cu2   Cu    Cu3+1 0.500000 0.500020 0.359330 1.030407
O5    O     O_R   0.499990 0.680320 0.618770 -0.552618
O6    O     O_R   0.500000 0.680360 0.381190 -0.523352
O7    O     O_R   0.569730 0.499960 0.618810 -0.558247
O8    O     O_R   0.569740 0.500000 0.381220 -0.574292
C3    C     C_R   0.498844 0.737633 0.499816 0.893756
C4    C     C_R   0.592360 0.501237 0.500287 0.941609
C5    C     C_R   0.176373 0.431047 0.409054 0.554635
O9    O     O_2   0.200344 0.342144 0.339024 -0.523280
N1    N     N_R   0.201305 0.514655 0.489279 -0.468612
C6    C     C_R   0.177796 0.604191 0.563748 0.576157
C7    C     C_R   0.277747 0.488240 0.618582 -0.083145
C8    C     C_R   0.328060 0.485395 0.621388 -0.189381
C9    C     C_R   0.329445 0.525381 0.371483 -0.216894
C10   C     C_R   0.279239 0.529144 0.369140 -0.089043
C11   C     C_R   0.253095 0.510289 0.492450 0.333362
C12   C     C_R   0.101130 0.528022 0.475984 -0.050113
C13   C     C_R   0.125905 0.436953 0.399704 -0.012670
C14   C     C_R   0.099748 0.352775 0.317903 -0.123638
C15   C     C_R   0.127245 0.611700 0.559655 -0.081303
C16   C     C_R   0.354340 0.503588 0.497658 -0.026429
H1    H     H_    0.348723 0.540606 0.274670 0.151223
H2    H     H_    0.260568 0.547254 0.271400 0.155240
H3    H     H_    0.117723 0.279058 0.262063 0.202129
C17   C     C_R   0.645173 0.506354 0.500560 -0.289328
C18   C     C_R   0.973648 0.471352 0.362094 -0.082795
C19   C     C_R   0.974775 0.601332 0.572548 0.035692
C20   C     C_R   0.948710 0.533145 0.470487 0.055921
C21   C     C_R   0.946982 0.424737 0.246078 0.224766
C22   C     C_R   0.896335 0.419163 0.251746 0.278529
C23   C     C_R   0.871390 0.467155 0.369112 -0.178633
C24   C     C_R   0.897767 0.525469 0.478177 -0.107532
C25   C     C_R   0.873323 0.575397 0.595659 -0.113395
C26   C     C_R   0.822966 0.559060 0.604107 0.597618
N2    N     N_R   0.797948 0.509620 0.494197 -0.448533
C27   C     C_R   0.820561 0.464042 0.378620 0.682380
C28   C     C_R   0.721877 0.415677 0.567494 -0.188488
C29   C     C_R   0.671531 0.412066 0.567464 0.394549
C30   C     C_R   0.669633 0.601867 0.429076 0.169058
C31   C     C_R   0.720454 0.603974 0.429869 0.458323
C32   C     C_R   0.746252 0.509781 0.497700 0.120424
O10   O     O_2   0.793504 0.416230 0.273969 -0.410319
C33   C     C_R   0.024397 0.456694 0.376245 0.099017
C34   C     C_R   0.050207 0.534668 0.469363 0.051852
C35   C     C_R   0.025285 0.617951 0.557177 -0.033252
C36   C     C_R   0.049828 0.361972 0.307062 -0.101406
H4    H     H_    0.742134 0.343588 0.619601 0.205659
H5    H     H_    0.031409 0.290577 0.248683 0.195400
O11   O     O_2   0.203287 0.686639 0.640161 -0.517150
C37   C     C_R   0.102616 0.704125 0.632513 -0.167183
H6    H     H_    0.346321 0.468300 0.720024 0.157174
H7    H     H_    0.257876 0.473200 0.714392 0.156241
H8    H     H_    0.122643 0.774484 0.688809 0.225283
C38   C     C_R   0.950165 0.645083 0.690755 -0.133790
C39   C     C_R   0.900212 0.636496 0.701849 0.352844
O12   O     O_2   0.798835 0.590982 0.720924 -0.436440
C40   C     C_R   0.052213 0.711034 0.628761 0.294282
H9    H     H_    0.969562 0.685893 0.777672 0.213015
C41   C     C_R   0.516039 0.063768 0.617175 -0.027588
C42   C     C_R   0.502691 0.129729 0.497877 -0.185934
C43   C     C_R   0.491984 0.065633 0.373763 -0.192336
H10   H     H_    0.482706 0.114669 0.278578 0.212999
C44   C     C_R   0.488792 0.937258 0.373839 0.521452
C45   C     C_R   0.499753 0.871240 0.497725 -0.159113
C46   C     C_R   0.514371 0.936522 0.616940 -0.051343
C47   C     C_3   0.496112 0.932489 0.765256 0.474862
C48   C     C_3   0.497984 0.073831 0.764881 0.051002
H11   H     H_    0.462358 0.120625 0.771357 0.128685
C49   C     C_R   0.536321 0.445424 0.074062 0.247401
N3    N     N_R   0.500300 0.500930 0.147930 -0.219762
C50   C     C_R   0.461852 0.546324 0.073846 -0.004993
H12   H     H_    0.431532 0.585603 0.128760 0.135106
C51   C     C_R   0.461699 0.545312 0.925133 -0.000782
H13   H     H_    0.431038 0.582625 0.869385 0.173570
N4    N     N_R   0.500310 0.500890 0.852020 -0.201079
C52   C     C_R   0.536495 0.446462 0.926648 0.249061
C53   C     C_3   0.588668 0.479377 0.920981 -0.438929
C54   C     C_3   0.588769 0.478198 0.079814 0.088266
H14   H     H_    0.610541 0.404834 0.872959 0.279587
H15   H     H_    0.595024 0.572742 0.876935 0.233506
H16   H     H_    0.595938 0.569527 0.128628 0.187432
N5    N     N_R   0.643373 0.698050 0.358619 0.128874
O13   O     O_R   0.608510 0.755081 0.422180 -0.370398
O14   O     O_R   0.657580 0.738224 0.237266 -0.247780
N6    N     N_R   0.877678 0.698125 0.817444 0.189631
O15   O     O_R   0.894569 0.682726 0.943637 -0.257786
O16   O     O_R   0.849140 0.790951 0.793114 -0.264825
O17   O     O_3   0.745391 0.695002 0.359198 -0.517758
C55   C     C_3   0.749760 0.799074 0.447297 -0.123919
H17   H     H_    0.769914 0.776973 0.545016 0.171788
H18   H     H_    0.713939 0.838779 0.473334 0.179261
H19   H     H_    0.770459 0.871060 0.391149 0.214058
N7    N     N_R   0.029871 0.821172 0.681775 0.118308
O18   O     O_R   0.047538 0.876555 0.791745 -0.300979
O19   O     O_R   0.996371 0.875977 0.609013 -0.300083
O20   O     O_3   0.473250 0.877893 0.253571 -0.505880
C56   C     C_3   0.422461 0.871208 0.256344 -0.198489
H20   H     H_    0.409442 0.820444 0.350188 0.131031
H21   H     H_    0.409898 0.819489 0.162758 0.213276
H22   H     H_    0.406059 0.964773 0.251970 0.159632
N8    N     N_R   0.446660 0.884608 0.776983 0.089647
O21   O     O_R   0.433668 0.823069 0.887277 -0.353398
O22   O     O_R   0.413772 0.916123 0.686002 -0.406588
N9    N     N_R   0.530223 0.872751 0.862319 0.162851
O23   O     O_R   0.567088 0.811302 0.815401 -0.333225
O24   O     O_R   0.523663 0.879806 0.996862 -0.217073
N10   N     N_R   0.533427 0.126073 0.862754 0.170114
O25   O     O_R   0.575823 0.161246 0.820868 -0.296321
O26   O     O_R   0.521048 0.145870 0.992064 -0.310240
N11   N     N_R   0.619094 0.379530 0.136512 0.157101
O27   O     O_R   0.665591 0.394621 0.142092 -0.273193
O28   O     O_R   0.600379 0.277309 0.182643 -0.302893
O29   O     O_3   0.648242 0.316051 0.634062 -0.560669
C57   C     C_3   0.643314 0.217613 0.538167 -0.119000
H23   H     H_    0.678704 0.188583 0.494488 0.166414
H24   H     H_    0.617876 0.242112 0.452345 0.172691
H25   H     H_    0.628040 0.136878 0.593500 0.222088
N12   N     N_R   0.870679 0.366147 0.135662 0.201512
O30   O     O_R   0.864623 0.429028 0.021022 -0.221958
O31   O     O_R   0.857778 0.250819 0.139496 -0.242892
N13   N     N_R   0.970371 0.397892 0.115340 0.129594
O32   O     O_R   0.961576 0.295370 0.048786 -0.265727
O33   O     O_R   0.999631 0.478060 0.060408 -0.317057

loop_
_geom_bond_atom_site_label_1
_geom_bond_atom_site_label_2
_geom_bond_distance
_ccdc_geom_bond_type
C12   C13   1.407589 A    
C26   N2    1.363387 A    
C47   C48   1.533351 S    
C7    C11   1.402408 A    
O17   C55   1.410761 S    
C12   C15   1.405488 A    
N13   O32   1.301487 A    
C56   H21   1.108268 S    
N10   O25   1.301040 A    
Cu1   Cu2   2.685609 S    
C30   N5    1.438462 S    
N3    C50   1.368781 A    
C28   C29   1.396822 A    
Cu1   O7    1.946256 S    
N1    C11   1.437358 S    
C21   C22   1.407226 A    
C53   H14   1.110814 S    
N11   O28   1.301915 A    
O4    C2    1.298335 A    
C51   H13   1.080057 S    
O7    C4    1.296871 A    
C50   C51   1.419587 A    
C5    C13   1.403572 A    
C5    O9    1.349677 S    
C48   N10   1.465240 S    
C55   H19   1.109095 S    
C18   C21   1.420272 A    
C25   C39   1.418023 A    
N8    O21   1.299941 A    
Cu1   O5    1.966884 S    
C19   C20   1.416670 A    
C17   C29   1.409341 A    
O5    C3    1.295719 A    
N6    O15   1.301236 A    
C57   H25   1.108243 S    
C33   C34   1.416455 A    
C2    C16   1.472360 S    
C52   C53   1.491299 S    
C43   H10   1.083532 S    
C39   N6    1.435312 S    
C53   H15   1.111173 S    
C44   C45   1.415286 A    
N5    O14   1.301315 A    
Cu2   N3    2.018084 S    
C6    O11   1.349704 S    
C12   C34   1.415291 A    
C41   C42   1.394423 A    
C14   H3    1.083307 S    
C9    C10   1.393125 A    
C21   N13   1.439003 S    
O3    Cu1   1.944315 S    
C49   C52   1.407285 A    
N7    O19   1.301702 A    
C56   H20   1.113919 S    
C47   N9    1.472065 S    
C22   N12   1.432792 S    
C36   H5    1.079471 S    
C41   C46   1.380406 A    
C33   C36   1.411474 A    
C48   H11   1.113115 S    
C42   C43   1.402672 A    
C49   N3    1.365500 A    
C51   N4    1.368802 A    
C15   C37   1.399401 A    
C24   C25   1.420183 A    
C50   H12   1.080688 S    
C27   O10   1.348696 S    
C47   N8    1.470918 S    
C3    C45   1.449014 S    
C7    H7    1.082871 S    
C18   C33   1.422312 A    
C9    H1    1.083032 S    
C19   C38   1.403945 A    
C34   C35   1.414358 A    
C55   H18   1.112290 S    
O1    C1    1.292240 A    
C20   C24   1.417536 A    
C22   C23   1.418258 A    
C28   H4    1.083173 S    
C31   C32   1.404678 A    
C40   N7    1.438266 S    
Cu2   O8    1.944309 S    
C55   H17   1.111491 S    
N6    O16   1.301456 A    
N1    C6    1.369837 A    
N9    O24   1.300235 A    
N2    C32   1.434341 S    
C53   C54   1.516254 S    
C54   N11   1.464170 S    
C57   H23   1.113916 S    
C29   O29   1.382318 S    
O3    C2    1.299809 A    
C25   C26   1.410389 A    
C9    C16   1.405565 A    
O8    C4    1.295286 A    
C35   C40   1.426073 A    
N12   O30   1.300641 A    
N2    C27   1.364095 A    
C26   O12   1.348424 S    
C8    H6    1.083085 S    
C14   C36   1.391458 A    
O29   C57   1.410829 S    
C37   C40   1.400224 A    
C54   H16   1.110894 S    
C5    N1    1.369958 A    
C30   C31   1.409600 A    
C10   H2    1.082974 S    
N9    O23   1.301900 A    
O1    Cu1   1.966054 S    
C17   C30   1.415878 A    
Cu2   O6    1.966053 S    
O2    Cu2   1.966887 S    
C6    C15   1.404781 A    
C4    C17   1.465720 S    
C46   C47   1.506907 S    
C37   H8    1.083366 S    
O6    C3    1.291003 A    
N13   O33   1.301571 A    
O4    Cu2   1.946259 S    
N10   O26   1.300501 A    
C8    C16   1.405384 A    
C19   C35   1.420651 A    
C7    C8    1.395880 A    
O2    C1    1.291443 A    
C13   C14   1.399620 A    
C23   C27   1.413484 A    
N11   O27   1.300519 A    
C23   C24   1.416757 A    
C1    C42   1.442090 S    
N7    O18   1.301575 A    
C18   C20   1.415580 A    
N8    O22   1.302356 A    
C38   C39   1.393069 A    
C57   H24   1.111019 S    
C38   H9    1.080219 S    
C45   C46   1.397060 A    
Cu1   N4    2.017478 S    
C43   C44   1.394643 A    
N4    C52   1.363048 A    
O20   C56   1.410784 S    
N12   O31   1.300935 A    
C31   O17   1.383412 S    
C10   C11   1.401044 A    
N5    O13   1.300564 A    
C49   C54   1.497740 S    
C56   H22   1.112956 S    
C28   C32   1.395743 A    
C44   O20   1.381826 S    
C41   C48   1.502607 S    
