data_mof_unit_35734.cif
_audit_creation_date              2012-12-11T15:17:34-0500
_audit_creation_method            fapswitch 2.2
_symmetry_space_group_name_H-M    P1
_symmetry_Int_Tables_number       1
_space_group_crystal_system       triclinic
_cell_length_a                    6.929835
_cell_length_b                    20.065725
_cell_length_c                    22.382861
_cell_angle_alpha                 90.016491
_cell_angle_beta                  90.027319
_cell_angle_gamma                 90.003728
_cell_volume                      3112.38475593

loop_
_atom_site_label
_atom_site_type_symbol
_atom_type_description
_atom_site_fract_x
_atom_site_fract_y
_atom_site_fract_z
_atom_type_partial_charge
O1    O     O_R   0.620180 0.810610 0.187990 -0.541863
O2    O     O_R   0.379820 0.189390 0.812010 -0.541897
O3    O     O_R   0.379820 0.189390 0.687990 -0.537728
O4    O     O_R   0.620180 0.810610 0.312010 -0.537635
O5    O     O_R   0.120180 0.689390 0.312010 -0.539379
O6    O     O_R   0.879820 0.310610 0.687990 -0.539452
O7    O     O_R   0.879820 0.310610 0.812010 -0.536863
O8    O     O_R   0.120180 0.689390 0.187990 -0.537177
O9    O     O_R   0.290420 0.818570 0.311590 -0.543558
O10   O     O_R   0.709580 0.181430 0.688410 -0.543677
O11   O     O_R   0.709580 0.181430 0.811590 -0.539719
O12   O     O_R   0.290420 0.818570 0.188410 -0.539800
O13   O     O_R   0.790420 0.681430 0.188410 -0.543622
O14   O     O_R   0.209580 0.318570 0.811590 -0.543966
O15   O     O_R   0.209580 0.318570 0.688410 -0.542758
O16   O     O_R   0.790420 0.681430 0.311590 -0.542668
H1    H     H_    0.595893 0.518049 0.599093 0.125385
H2    H     H_    0.404107 0.481951 0.400907 0.125362
H3    H     H_    0.410994 0.484487 0.096716 0.127609
H4    H     H_    0.585708 0.513613 0.904031 0.128148
H5    H     H_    0.941020 0.978343 0.917975 0.127533
H6    H     H_    0.058956 0.021634 0.082008 0.127836
H7    H     H_    0.918949 0.011085 0.406112 0.122935
H8    H     H_    0.081051 0.988915 0.593887 0.122855
C1    C     C_R   0.459385 0.834710 0.332214 0.710517
C2    C     C_R   0.540615 0.165290 0.667786 0.710049
C3    C     C_R   0.540599 0.165477 0.832385 0.711894
C4    C     C_R   0.459399 0.834519 0.167611 0.710392
C5    C     C_R   0.959298 0.665296 0.167777 0.708984
C6    C     C_R   0.040696 0.334715 0.832205 0.710299
C7    C     C_R   0.040606 0.334694 0.667782 0.709712
C8    C     C_R   0.959394 0.665306 0.332218 0.709938
H9    H     H_    0.760627 0.426497 0.648088 0.123939
H10   H     H_    0.239373 0.573503 0.351912 0.123932
H11   H     H_    0.245477 0.576447 0.145872 0.122778
H12   H     H_    0.755417 0.424043 0.853565 0.124274
H13   H     H_    0.805759 0.071533 0.863292 0.128024
H14   H     H_    0.194233 0.928454 0.136699 0.128206
H15   H     H_    0.749280 0.921720 0.355556 0.123850
H16   H     H_    0.250720 0.078280 0.644444 0.123754
H17   H     H_    0.295126 0.352063 0.578138 0.149872
H18   H     H_    0.704874 0.647937 0.421861 0.149874
H19   H     H_    0.696240 0.643954 0.080792 0.153968
H20   H     H_    0.301121 0.354881 0.920307 0.162416
H21   H     H_    0.251125 0.150388 0.911727 0.157231
H22   H     H_    0.748853 0.849592 0.088258 0.156533
H23   H     H_    0.193898 0.857482 0.418102 0.156076
H24   H     H_    0.806102 0.142518 0.581898 0.156074
O17   O     O_3   0.453640 0.707610 0.250000 -0.370524
O18   O     O_3   0.546360 0.292390 0.750000 -0.370665
O19   O     O_3   0.953640 0.792390 0.250000 -0.369616
O20   O     O_3   0.046360 0.207610 0.750000 -0.369776
V1    V     V_3+5 0.178800 0.757860 0.250000 1.411711
V2    V     V_3+5 0.821200 0.242140 0.750000 1.412489
V3    V     V_3+5 0.678800 0.742140 0.250000 1.406805
V4    V     V_3+5 0.321200 0.257860 0.750000 1.407511
C9    C     C_R   0.175945 0.386792 0.574985 -0.199617
C10   C     C_R   0.824055 0.613208 0.425015 -0.199607
C11   C     C_R   0.819646 0.611195 0.076367 -0.204067
C12   C     C_R   0.178926 0.388308 0.924031 -0.192816
C13   C     C_R   0.366659 0.115099 0.919542 -0.197882
C14   C     C_R   0.633321 0.884881 0.080443 -0.202211
C15   C     C_R   0.318515 0.889619 0.422983 -0.199460
C16   C     C_R   0.681485 0.110381 0.577017 -0.199464
C17   C     C_R   0.030315 0.384183 0.618596 -0.095358
C18   C     C_R   0.969685 0.615816 0.381404 -0.095421
C19   C     C_R   0.969435 0.615801 0.118572 -0.105904
C20   C     C_R   0.030537 0.384306 0.881311 -0.110242
C21   C     C_R   0.529346 0.116439 0.881968 -0.108422
C22   C     C_R   0.470645 0.883548 0.118022 -0.108607
C23   C     C_R   0.469741 0.884198 0.381418 -0.105852
C24   C     C_R   0.530259 0.115802 0.618582 -0.105747
C25   C     C_R   0.873245 0.428177 0.614498 -0.204652
C26   C     C_R   0.126755 0.571823 0.385501 -0.204739
C27   C     C_R   0.130265 0.573613 0.113165 -0.177025
C28   C     C_R   0.870407 0.426896 0.886345 -0.179322
C29   C     C_R   0.680060 0.071034 0.892117 -0.165287
C30   C     C_R   0.319927 0.928950 0.107871 -0.164891
C31   C     C_R   0.632419 0.925415 0.387592 -0.176580
C32   C     C_R   0.367580 0.074584 0.612408 -0.176736
C33   C     C_R   0.861860 0.474929 0.567917 0.063109
C34   C     C_R   0.138140 0.525071 0.432083 0.063128
C35   C     C_R   0.141568 0.526828 0.066648 0.095501
C36   C     C_R   0.858732 0.473692 0.932877 0.070135
C37   C     C_R   0.668060 0.024119 0.938532 0.082406
C38   C     C_R   0.331918 0.975860 0.061452 0.082388
C39   C     C_R   0.643897 0.972200 0.434115 0.088439
C40   C     C_R   0.356103 0.027800 0.565885 0.088462
C41   C     C_R   0.007013 0.476859 0.523752 0.001616
C42   C     C_R   0.992987 0.523140 0.476248 0.001631
C43   C     C_R   0.993237 0.523467 0.023491 -0.009907
C44   C     C_R   0.007011 0.477151 0.975993 -0.017746
C45   C     C_R   0.505351 0.023417 0.976461 -0.012530
C46   C     C_R   0.494625 0.976560 0.023522 -0.012277
C47   C     C_R   0.493284 0.976763 0.476323 -0.010564
C48   C     C_R   0.506716 0.023237 0.523677 -0.010561
C49   C     C_R   0.165451 0.432322 0.526992 0.089487
C50   C     C_R   0.834549 0.567677 0.473008 0.089489
C51   C     C_R   0.830948 0.566106 0.028067 0.087865
C52   C     C_R   0.167680 0.433720 0.972029 0.105981
C53   C     C_R   0.353690 0.069580 0.967332 0.084972
C54   C     C_R   0.646285 0.930396 0.032650 0.084951
C55   C     C_R   0.329684 0.934783 0.471207 0.085865
C56   C     C_R   0.670316 0.065217 0.528793 0.085841
C57   C     C_R   0.706512 0.519565 0.564888 -0.233244
C58   C     C_R   0.293488 0.480434 0.435112 -0.233281
C59   C     C_R   0.298352 0.482862 0.063108 -0.203750
C60   C     C_R   0.699416 0.516497 0.937213 -0.223366
C61   C     C_R   0.816767 0.977837 0.947385 -0.198074
C62   C     C_R   0.183208 0.022139 0.052597 -0.197236
C63   C     C_R   0.804170 0.014494 0.438868 -0.184308
C64   C     C_R   0.195830 0.985506 0.561132 -0.184446
C65   C     C_R   0.691380 0.566058 0.518065 0.203863
C66   C     C_R   0.308620 0.433941 0.481935 0.203884
C67   C     C_R   0.311479 0.435964 0.016709 0.182608
C68   C     C_R   0.683679 0.562582 0.984375 0.189814
C69   C     C_R   0.807429 0.930796 0.993871 0.182654
C70   C     C_R   0.192543 0.069179 0.006111 0.182635
C71   C     C_R   0.818639 0.061195 0.485551 0.190193
C72   C     C_R   0.181361 0.938805 0.514448 0.190189
N1    N     N_3   0.533418 0.612577 0.517007 -0.670258
H25   H     H_    0.445459 0.606369 0.554541 0.232507
H26   H     H_    0.447771 0.601358 0.479969 0.230934
N2    N     N_3   0.466582 0.387423 0.482992 -0.670225
H27   H     H_    0.554541 0.393632 0.445459 0.232516
H28   H     H_    0.552228 0.398642 0.520031 0.230922
N3    N     N_3   0.468337 0.389398 0.016211 -0.683637
H29   H     H_    0.458993 0.360644 0.055044 0.227745
H30   H     H_    0.597567 0.416057 0.018426 0.244264
N4    N     N_3   0.517952 0.605494 0.988168 -0.671642
H31   H     H_    0.413607 0.591570 0.956783 0.233472
H32   H     H_    0.562977 0.653547 0.976723 0.219879
N5    N     N_3   0.961352 0.883539 0.001816 -0.675301
H33   H     H_    0.076359 0.894355 0.973180 0.234672
H34   H     H_    0.908784 0.836800 0.989103 0.219325
N6    N     N_3   0.038617 0.116435 0.998166 -0.674174
H35   H     H_    0.923615 0.105620 0.026802 0.235258
H36   H     H_    0.091180 0.163174 0.010878 0.223202
N7    N     N_3   0.983624 0.104496 0.489125 -0.670852
H37   H     H_    0.087839 0.090761 0.457667 0.234075
H38   H     H_    0.937605 0.152413 0.477603 0.225950
N8    N     N_3   0.016376 0.895504 0.510875 -0.670886
H39   H     H_    0.912161 0.909238 0.542333 0.234018
H40   H     H_    0.062395 0.847587 0.522397 0.225901

loop_
_geom_bond_atom_site_label_1
_geom_bond_atom_site_label_2
_ccdc_geom_bond_type
O14   V4    S    
C40   C48   A    
C45   C46   A    
C14   C54   A    
C22   C30   A    
C11   C51   A    
C49   C66   A    
C21   C29   A    
C47   C48   A    
H8    C64   S    
C60   C68   A    
C69   N5    S    
C62   C70   A    
C31   C39   A    
O4    C1    A    
C61   C69   A    
H11   C27   S    
O18   V2    S    
H22   C14   S    
C53   C70   A    
H9    C25   S    
C57   C65   A    
C38   C62   A    
C26   C34   A    
N2    H28   S    
C37   C61   A    
H23   C15   S    
H24   C16   S    
C39   C63   A    
C13   C21   A    
C18   C26   A    
C67   N3    S    
C14   C22   A    
C63   C71   A    
O16   C8    A    
H18   C10   S    
C38   C46   A    
C43   C51   A    
C11   C19   A    
C5    C19   S    
C37   C45   A    
C10   C18   A    
C55   C72   A    
C47   C55   A    
H6    C62   S    
C10   C50   A    
O1    C4    A    
H16   C32   S    
O2    C3    A    
C1    C23   S    
H12   C28   S    
O12   V1    S    
C3    C21   S    
H19   C11   S    
C56   C71   A    
C66   N2    S    
C30   C38   A    
C34   C58   A    
O6    C7    A    
C29   C37   A    
O7    C6    A    
C28   C36   A    
C52   C67   A    
O6    V2    S    
C25   C33   A    
O20   V2    S    
C23   C31   A    
C33   C57   A    
O9    C1    A    
C27   C35   A    
C72   N8    S    
N6    H36   S    
C17   C25   A    
C45   C53   A    
C51   C68   A    
C64   C72   A    
C7    C17   S    
C50   C65   A    
H14   C30   S    
O17   V3    S    
H13   C29   S    
O18   V4    S    
C13   C53   A    
C41   C49   A    
O19   V1    S    
H15   C31   S    
N4    H32   S    
N3    H30   S    
O9    V1    S    
H1    C57   S    
O3    V4    S    
O11   C3    A    
C9    C49   A    
C65   N1    S    
C2    C24   S    
O11   V2    S    
C59   C67   A    
N1    H25   S    
C54   C69   A    
H10   C26   S    
C15   C55   A    
C58   C66   A    
C48   C56   A    
O4    V3    S    
N5    H33   S    
N8    H40   S    
C19   C27   A    
O8    C5    A    
N3    H29   S    
C43   C44   A    
C70   N6    S    
C44   C52   A    
C8    C18   S    
O13   C5    A    
C16   C56   A    
C39   C47   A    
O3    C2    A    
C4    C22   S    
C15   C23   A    
N6    H35   S    
C12   C52   A    
O8    V1    S    
H5    C61   S    
N7    H37   S    
O15   C7    A    
C20   C28   A    
H7    C63   S    
C34   C42   A    
C12   C20   A    
C71   N7    S    
O15   V4    S    
O5    C8    A    
N4    H31   S    
O5    V1    S    
O16   V3    S    
C33   C41   A    
C32   C40   A    
O2    V4    S    
N7    H38   S    
O10   C2    A    
H2    C58   S    
H20   C12   S    
O17   V1    S    
C35   C43   A    
H21   C13   S    
C36   C60   A    
C35   C59   A    
O19   V3    S    
C16   C24   A    
O1    V3    S    
O10   V2    S    
C6    C20   S    
N1    H26   S    
H17   C9    S    
C40   C64   A    
C68   N4    S    
O12   C4    A    
C24   C32   A    
N5    H34   S    
N8    H39   S    
C36   C44   A    
O7    V2    S    
O13   V3    S    
C41   C42   A    
C42   C50   A    
O14   C6    A    
O20   V4    S    
C46   C54   A    
H4    C60   S    
N2    H27   S    
C9    C17   A    
H3    C59   S    
