data_mof_unit_9612.cif
_audit_creation_date              2012-12-10T20:50:58-0500
_audit_creation_method            fapswitch 2.2
_symmetry_space_group_name_H-M    P1
_symmetry_Int_Tables_number       1
_space_group_crystal_system       triclinic
_cell_length_a                    18.421405
_cell_length_b                    18.466183
_cell_length_c                    18.463063
_cell_angle_alpha                 120.156512
_cell_angle_beta                  89.947373
_cell_angle_gamma                 120.09683
_cell_volume                      4426.07767762

loop_
_atom_site_label
_atom_site_type_symbol
_atom_type_description
_atom_site_fract_x
_atom_site_fract_y
_atom_site_fract_z
_atom_type_partial_charge
C1    C     C_R   0.359169 0.503602 0.364159 0.819213
C2    C     C_2   0.303879 0.502175 0.693716 -0.267956
C3    C     C_R   0.574051 0.812285 0.415980 -0.232068
C4    C     C_R   0.638912 0.498739 0.639179 0.854358
C5    C     C_R   0.481907 0.742494 0.388941 -0.087831
C6    C     C_R   0.436824 0.645337 0.307493 0.154121
C7    C     C_R   0.484607 0.619164 0.252663 -0.186238
C8    C     C_R   0.576984 0.688769 0.280012 -0.108313
C9    C     C_R   0.622450 0.785812 0.362170 0.079590
C10   C     C_R   0.284304 0.564187 0.224776 -0.248353
C11   C     C_R   0.191940 0.500151 0.200545 -0.057736
C12   C     C_2   0.303716 0.112077 0.302887 -0.309780
C13   C     C_R   0.153396 0.442801 0.236520 -0.097490
C14   C     C_R   0.209023 0.453735 0.298576 -0.079050
C15   C     C_R   0.302455 0.510751 0.315459 -0.089528
C16   C     C_R   0.639358 0.499560 0.360719 0.795790
C17   C     C_R   0.339860 0.570391 0.281402 -0.025582
C18   C     C_R   0.011581 0.407943 0.266460 -0.079768
C19   C     C_R   0.919755 0.343922 0.245656 -0.214685
C20   C     C_R   0.869414 0.242686 0.169152 0.009460
C21   C     C_R   0.912237 0.205870 0.113581 -0.079954
C22   C     C_R   0.004961 0.269291 0.134040 -0.000886
C23   C     C_2   0.774452 0.556490 0.836616 -0.189149
C24   C     C_R   0.054980 0.371744 0.211447 0.015446
C25   C     C_R   0.588129 0.839414 0.911613 0.081907
C26   C     C_R   0.614543 0.883010 0.863937 -0.053115
C27   C     C_R   0.690940 0.900005 0.840069 0.082820
C28   C     C_R   0.360775 0.500388 0.639399 0.864568
C29   C     C_R   0.741571 0.874184 0.864564 -0.085505
C30   C     C_R   0.715264 0.830301 0.911439 -0.111443
C31   C     C_R   0.638874 0.812832 0.934810 -0.200825
C32   C     C_R   0.772131 0.055250 0.843738 -0.196726
C33   C     C_R   0.802334 0.108375 0.804690 -0.043659
C34   C     C_2   0.824334 0.520600 0.809043 -0.137142
C35   C     C_R   0.778818 0.051867 0.710577 0.075841
C36   C     C_R   0.726698 0.944834 0.658896 -0.202714
C37   C     C_R   0.696059 0.891670 0.697940 -0.059456
C38   C     C_R   0.719622 0.948270 0.792051 -0.003043
C39   C     C_R   0.755996 0.121668 0.630487 0.036734
C40   C     C_R   0.639735 0.778304 0.639168 0.801563
C41   C     C_R   0.788939 0.169066 0.586430 -0.237441
C42   C     C_R   0.871179 0.195339 0.574467 -0.078460
C43   C     C_R   0.921723 0.174413 0.605992 -0.112930
C44   C     C_R   0.890277 0.127186 0.649695 -0.179795
C45   C     C_2   0.725283 0.563749 0.781847 -0.113262
C46   C     C_R   0.807963 0.100840 0.662864 0.104108
C47   C     C_R   0.702480 0.295251 0.383899 -0.101586
C48   C     C_R   0.736173 0.373289 0.369148 0.002749
C49   C     C_R   0.689994 0.350316 0.290803 0.065730
C50   C     C_R   0.612155 0.252385 0.229682 -0.234509
C51   C     C_R   0.579078 0.176638 0.244441 -0.091167
C52   C     C_R   0.360733 0.222989 0.361705 0.847140
C53   C     C_R   0.623341 0.196113 0.320562 -0.017443
C54   C     C_R   0.771763 0.430866 0.218751 -0.188230
C55   C     C_R   0.804566 0.504085 0.200268 -0.059492
C56   C     C_2   0.686338 0.491534 0.694190 -0.226671
C57   C     C_R   0.783811 0.576845 0.236095 -0.019099
C58   C     C_R   0.728740 0.572210 0.287155 -0.235438
C59   C     C_R   0.696098 0.499103 0.305780 -0.050083
C60   C     C_R   0.719177 0.428439 0.272287 0.078462
C61   C     C_R   0.907501 0.746623 0.270739 -0.073855
C62   C     C_R   0.940705 0.824202 0.257591 -0.095600
C63   C     C_R   0.885418 0.815903 0.197800 -0.057720
C64   C     C_2   0.279840 0.943644 0.221228 -0.120338
C65   C     C_R   0.796752 0.730162 0.151248 -0.088379
C66   C     C_R   0.763299 0.652371 0.164148 -0.122473
C67   C     C_2   0.279660 0.557721 0.838572 -0.132259
C68   C     C_R   0.818757 0.659852 0.223457 0.164541
C69   C     C_R   0.136369 0.499259 0.863040 0.859024
C70   C     C_R   0.858842 0.501290 0.142829 0.793664
C71   C     C_R   0.859418 0.502311 0.863322 0.771174
C72   C     C_R   0.137618 0.499361 0.141924 0.804572
C73   C     C_R   0.857809 0.221676 0.863452 0.803097
C74   C     C_R   0.136449 0.776972 0.140879 0.858032
C75   C     C_2   0.190985 0.887921 0.199622 -0.313833
C76   C     C_2   0.336496 0.056253 0.280530 -0.146208
C77   C     C_2   0.720098 0.860131 0.392966 0.354048
C78   C     C_2   0.190335 0.494465 0.805720 -0.290177
C79   C     C_2   0.167523 0.409285 0.348139 0.470999
C80   C     C_2   0.772275 0.176197 0.148555 0.377824
C81   C     C_2   0.048610 0.228327 0.074274 0.358950
C82   C     C_2   0.508603 0.822266 0.938508 0.410622
C83   C     C_2   0.668280 0.096907 0.641250 0.340870
C84   C     C_2   0.587721 0.110562 0.330725 0.362319
C85   C     C_2   0.749523 0.316226 0.464719 0.319482
C86   C     C_2   0.815632 0.479455 0.438164 0.445753
C87   C     C_2   0.855568 0.510112 0.731889 0.407967
C88   C     C_2   0.336123 0.554440 0.782198 -0.154241
H1    H     H_    0.313150 0.905956 0.195892 0.208756
H2    H     H_    0.155643 0.922366 0.226110 0.144499
H3    H     H_    0.049247 0.486117 0.325802 0.162255
H4    H     H_    0.873279 0.127438 0.054500 0.194738
H5    H     H_    0.619647 0.779090 0.971458 0.116838
H6    H     H_    0.576314 0.904256 0.845662 0.167699
H7    H     H_    0.801136 0.887905 0.847197 0.148412
H8    H     H_    0.754359 0.810204 0.930059 0.130911
H9    H     H_    0.789222 0.097174 0.915408 0.184672
H10   H     H_    0.750952 0.186185 0.561317 0.122475
H11   H     H_    0.895747 0.232048 0.540636 0.159828
H12   H     H_    0.154115 0.435346 0.735387 0.146726
H13   H     H_    0.985469 0.194919 0.596637 0.133273
H14   H     H_    0.930419 0.111592 0.673933 0.133874
H15   H     H_    0.233727 0.077715 0.276942 0.152909
H16   H     H_    0.576358 0.234758 0.170189 0.154169
H17   H     H_    0.518721 0.101686 0.195134 0.189883
H18   H     H_    0.787311 0.374970 0.191760 0.155705
H19   H     H_    0.712691 0.627719 0.313729 0.190784
H20   H     H_    0.950892 0.753510 0.316942 0.117911
H21   H     H_    0.009324 0.890629 0.293591 0.115534
H22   H     H_    0.911242 0.875961 0.187634 0.120340
H23   H     H_    0.406972 0.598018 0.815450 0.156742
H24   H     H_    0.764538 0.575750 0.900166 0.155878
H25   H     H_    0.717312 0.626006 0.814880 0.160468
H26   H     H_    0.689091 0.425396 0.661866 0.131724
H27   H     H_    0.313657 0.613582 0.909929 0.175486
H28   H     H_    0.753557 0.934933 0.456210 0.073476
H29   H     H_    0.109131 0.330456 0.312650 0.050750
H30   H     H_    0.887933 0.373553 0.289440 0.167362
H31   H     H_    0.741089 0.205201 0.193836 0.082688
H32   H     H_    0.120154 0.275669 0.089924 0.072418
H33   H     H_    0.489839 0.789312 0.975939 0.047510
H34   H     H_    0.234149 0.459948 0.658372 0.159973
H35   H     H_    0.407677 0.093932 0.305303 0.203049
H36   H     H_    0.710061 0.902960 0.587313 0.148814
H37   H     H_    0.632141 0.114678 0.614445 0.062589
H38   H     H_    0.623193 0.120164 0.385121 0.053899
H39   H     H_    0.712055 0.288728 0.501128 0.044471
H40   H     H_    0.830666 0.507797 0.507626 0.138165
H41   H     H_    0.753982 0.723947 0.105124 0.114561
H42   H     H_    0.694609 0.586089 0.127574 0.107251
H43   H     H_    0.871893 0.455277 0.697468 0.103000
H44   H     H_    0.607645 0.886744 0.479251 0.134153
H45   H     H_    0.445738 0.763635 0.431858 0.141960
H46   H     H_    0.450557 0.544326 0.189674 0.128142
H47   H     H_    0.612806 0.666563 0.237230 0.153037
H48   H     H_    0.314092 0.610546 0.199645 0.180227
O1    O     O_3   0.500000 0.500000 0.500000 -0.490307
O2    O     O_R   0.053310 0.439870 0.118130 -0.634923
O3    O     O_R   0.881750 0.270770 0.828220 -0.633329
O4    O     O_R   0.323160 0.439910 0.385120 -0.616991
O5    O     O_R   0.173180 0.729110 0.116590 -0.635452
O6    O     O_R   0.882410 0.270770 0.949030 -0.640970
O7    O     O_R   0.051730 0.729120 0.116590 -0.644962
O8    O     O_R   0.880830 0.560020 0.947500 -0.629149
O9    O     O_R   0.174110 0.560030 0.117490 -0.649401
O10   O     O_R   0.051730 0.439850 0.827330 -0.641007
O11   O     O_R   0.882410 0.439870 0.118130 -0.639201
O12   O     O_R   0.615510 0.439910 0.385120 -0.645019
O13   O     O_R   0.616440 0.439920 0.555110 -0.656806
O14   O     O_R   0.614860 0.560070 0.384480 -0.645234
O15   O     O_R   0.445540 0.560090 0.675280 -0.648158
O16   O     O_R   0.614860 0.729170 0.553580 -0.637356
O17   O     O_R   0.324090 0.270830 0.386020 -0.648139
O18   O     O_R   0.615510 0.729180 0.674390 -0.640068
O19   O     O_R   0.445540 0.270830 0.386020 -0.643623
O20   O     O_2   0.764404 0.838915 0.348478 -0.579441
O21   O     O_2   0.195552 0.462533 0.429326 -0.540551
O22   O     O_2   0.725993 0.088501 0.081137 -0.577626
O23   O     O_R   0.324090 0.439920 0.555110 -0.620152
O24   O     O_2   0.005070 0.140838 0.006410 -0.581511
O25   O     O_2   0.463027 0.844454 0.919248 -0.552095
O26   O     O_2   0.635035 0.056991 0.679562 -0.564176
O27   O     O_2   0.518015 0.026803 0.277262 -0.589424
O28   O     O_2   0.830341 0.362151 0.490029 -0.565950
O29   O     O_2   0.865810 0.536110 0.418559 -0.584322
O30   O     O_2   0.868094 0.566160 0.709317 -0.540916
O31   O     O_R   0.443960 0.560080 0.384480 -0.638958
O32   O     O_R   0.616440 0.560090 0.675280 -0.649401
O33   O     O_3   0.997270 0.499940 0.002610 -0.488076
O34   O     O_R   0.173180 0.560020 0.947500 -0.640321
O35   O     O_R   0.881750 0.560030 0.117490 -0.645589
O36   O     O_R   0.880830 0.439850 0.827330 -0.657566
Zn1   Zn    Zn3+2 0.543620 0.414150 0.457300 0.962217
Zn2   Zn    Zn3+2 0.542680 0.585840 0.456390 0.983806
Zn3   Zn    Zn3+2 0.543620 0.585850 0.629000 0.975839
Zn4   Zn    Zn3+2 0.370090 0.414160 0.457300 1.002632
Zn5   Zn    Zn3+2 0.953650 0.585790 0.045310 0.978670
Zn6   Zn    Zn3+2 0.953650 0.414090 0.873610 0.985858
Zn7   Zn    Zn3+2 0.954590 0.414100 0.046220 0.983882
Zn8   Zn    Zn3+2 0.127180 0.585790 0.045310 0.979424

loop_
_geom_bond_atom_site_label_1
_geom_bond_atom_site_label_2
_ccdc_geom_bond_type
C25   C31   A    
O32   Zn3   S    
C66   C68   A    
C74   O7    A    
C63   C65   A    
C50   H16   S    
C23   C45   S    
C27   C29   A    
O5    Zn8   S    
C41   C42   A    
C35   C36   A    
C64   C76   S    
C70   O35   A    
C7    C8    A    
C39   C41   A    
C54   C60   A    
C52   O19   A    
C5    H45   S    
C4    O13   A    
C67   C78   D    
C81   H32   S    
C40   O16   A    
C26   C27   A    
C37   C38   A    
C49   C60   S    
O18   Zn3   S    
C53   C84   S    
C18   C24   A    
C18   H3    S    
C47   C85   S    
C36   C37   A    
C36   H36   S    
C10   H48   S    
O1    Zn3   S    
C37   C40   S    
C77   O20   D    
C30   C31   A    
C87   O30   D    
C1    O31   A    
C27   C38   S    
C72   O9    A    
C32   H9    S    
O10   Zn6   S    
C58   H19   S    
C87   H43   S    
C61   H20   S    
C67   H27   S    
C30   H8    S    
C75   H2    S    
C16   O14   A    
C88   H23   S    
C71   O36   A    
O6    Zn7   S    
C45   C56   D    
C8    C9    A    
C2    C88   D    
C1    C15   S    
C32   C38   A    
C77   H28   S    
O33   Zn8   S    
O13   Zn1   S    
C51   H17   S    
C47   C53   A    
O16   Zn2   S    
O19   Zn1   S    
C72   O2    A    
C80   H31   S    
C59   C60   A    
C81   O24   D    
C13   C14   A    
C4    C56   S    
C8    H47   S    
C69   O10   A    
C40   O18   A    
C69   C78   S    
C86   O29   D    
C64   H1    S    
C83   H37   S    
O2    Zn7   S    
O33   Zn5   S    
C12   C52   S    
C44   C46   A    
C73   O6    A    
C2    H34   S    
C84   H38   S    
O15   Zn3   S    
C74   C75   S    
C20   C80   S    
C86   H40   S    
C3    H44   S    
C22   C81   S    
C19   H30   S    
C7    H46   S    
C29   H7    S    
C54   H18   S    
C11   C72   S    
C18   C19   A    
C73   O3    A    
C52   O17   A    
C31   H5    S    
C28   O23   A    
C4    O32   A    
C13   C24   S    
O34   Zn8   S    
C51   C53   A    
C16   C59   S    
C43   C44   A    
C43   H13   S    
O1    Zn1   S    
C62   C63   A    
C23   H24   S    
C45   H25   S    
C80   O22   D    
C47   C48   A    
O17   Zn4   S    
O4    Zn4   S    
C23   C34   D    
C50   C51   A    
C67   C88   S    
C9    C77   S    
C14   C79   S    
O8    Zn5   S    
C3    C9    A    
C84   O27   D    
C69   O34   A    
C1    O4    A    
C12   H15   S    
O31   Zn2   S    
C33   C73   S    
C48   C49   A    
O14   Zn2   S    
C83   O26   D    
O1    Zn4   S    
C49   C50   A    
C26   H6    S    
C39   C46   A    
C12   C76   D    
C78   H12   S    
C25   C82   S    
C22   C24   A    
C85   H39   S    
C42   C43   A    
C57   C68   S    
O33   Zn6   S    
O36   Zn6   S    
C15   C17   A    
C6    C17   S    
C54   C55   A    
C44   H14   S    
C82   H33   S    
C14   C15   A    
C76   H35   S    
C74   O5    A    
C3    C5    A    
C79   O21   D    
C65   H41   S    
C6    C7    A    
C82   O25   D    
O12   Zn1   S    
C16   O12   A    
O23   Zn4   S    
C32   C33   A    
C19   C20   A    
C55   C57   A    
C25   C26   A    
C39   C83   S    
O1    Zn2   S    
O3    Zn6   S    
C42   H11   S    
C11   C13   A    
C61   C68   A    
C57   C58   A    
C5    C6    A    
C62   H21   S    
C63   H22   S    
C79   H29   S    
O9    Zn8   S    
C33   C35   A    
C64   C75   D    
C48   C86   S    
C34   C87   S    
O7    Zn5   S    
C61   C62   A    
C58   C59   A    
C55   C70   S    
C10   C11   A    
C29   C30   A    
O11   Zn7   S    
C20   C21   A    
C28   O15   A    
C65   C66   A    
C85   O28   D    
C56   H26   S    
C41   H10   S    
O35   Zn5   S    
C2    C28   S    
C70   O11   A    
C10   C17   A    
C21   C22   A    
C35   C46   S    
C34   C71   S    
O33   Zn7   S    
C71   O8    A    
C66   H42   S    
C21   H4    S    
