data_mof_unit_67845.cif
_audit_creation_date              2012-12-10T16:55:44-0500
_audit_creation_method            fapswitch 2.2
_symmetry_space_group_name_H-M    P1
_symmetry_Int_Tables_number       1
_space_group_crystal_system       triclinic
_cell_length_a                    7.842913
_cell_length_b                    8.590516
_cell_length_c                    10.505297
_cell_angle_alpha                 92.482533
_cell_angle_beta                  85.611567
_cell_angle_gamma                 92.839517
_cell_volume                      704.293986042

loop_
_atom_site_label
_atom_site_type_symbol
_atom_type_description
_atom_site_fract_x
_atom_site_fract_y
_atom_site_fract_z
_atom_type_partial_charge
C1    C     C_R   0.544269 0.793981 0.497601 0.891947
C2    C     C_R   0.455740 0.205954 0.501768 0.878970
C3    C     C_R   0.501883 0.504690 0.742013 1.005591
C4    C     C_R   0.498133 0.495080 0.257978 1.016646
C5    C     C_3   0.345692 0.542188 0.969258 0.463227
C6    C     C_3   0.655010 0.457272 0.031451 0.437437
C7    C     C_3   0.466901 0.641102 0.051465 0.270503
C8    C     C_3   0.534142 0.358202 0.948181 0.262931
C9    C     C_3   0.497930 0.494573 0.123393 -0.403247
C10   C     C_3   0.502440 0.504908 0.876511 -0.433109
C11   C     C_3   0.378206 0.395389 0.040109 0.367193
C12   C     C_3   0.623150 0.604287 0.959985 0.316723
C13   C     C_2   0.565463 0.956452 0.510379 0.262701
C14   C     C_2   0.434841 0.043429 0.487801 0.281743
N1    N     N_2   0.950320 0.457950 0.465730 0.176505
N2    N     N_2   0.049680 0.542050 0.534270 0.178591
O1    O     O_R   0.389250 0.738570 0.508410 -0.641521
O2    O     O_R   0.610750 0.261430 0.491590 -0.645730
O3    O     O_R   0.678390 0.711620 0.486450 -0.579417
O4    O     O_R   0.321610 0.288380 0.513550 -0.587967
O5    O     O_R   0.355460 0.513510 0.697030 -0.623348
O6    O     O_R   0.644540 0.486490 0.302970 -0.619070
O7    O     O_R   0.644600 0.486560 0.675070 -0.554524
O8    O     O_R   0.355400 0.513440 0.324930 -0.530006
Zn1   Zn    Zn3+2 0.306940 0.517990 0.514670 1.090189
Zn2   Zn    Zn3+2 0.693060 0.482010 0.485330 1.081890
O9    O     O_3   0.435123 0.783344 0.118973 -0.588588
C15   C     C_3   0.389410 0.893345 0.033851 -0.167330
H1    H     H_    0.254785 0.870422 0.010009 0.179003
H2    H     H_    0.476200 0.896628 0.944982 0.179056
H3    H     H_    0.399182 0.010286 0.082169 0.228414
O10   O     O_3   0.552876 0.210579 0.885206 -0.635287
C16   C     C_3   0.726664 0.176155 0.868304 -0.196427
H4    H     H_    0.775308 0.150817 0.961349 0.165575
H5    H     H_    0.805391 0.271348 0.820554 0.210765
H6    H     H_    0.738746 0.068918 0.806337 0.218229
F1    F     F_    0.189777 0.586577 0.933363 -0.648296
F2    F     F_    0.810576 0.416225 0.070279 -0.654411
O11   O     O_3   0.254466 0.287462 0.093341 -0.567969
C17   C     C_3   0.155147 0.221956 0.996509 -0.197375
H7    H     H_    0.062087 0.134176 0.039273 0.134470
H8    H     H_    0.234301 0.160560 0.919793 0.157239
H9    H     H_    0.081312 0.311316 0.954734 0.257337
O12   O     O_3   0.747641 0.711179 0.906017 -0.577060
C18   C     C_3   0.839131 0.785650 0.003629 -0.152489
H10   H     H_    0.904908 0.700836 0.057418 0.260977
H11   H     H_    0.755093 0.857317 0.070015 0.155475
H12   H     H_    0.939260 0.865967 0.959245 0.127439
O13   O     O_3   0.035573 0.383545 0.366922 -0.494595
C19   C     C_3   0.946665 0.241122 0.343125 0.046085
H13   H     H_    0.826669 0.258295 0.297585 0.169522
H14   H     H_    0.923319 0.175061 0.431708 0.188418
H15   H     H_    0.027831 0.168643 0.275694 0.174696
O14   O     O_3   0.964366 0.616884 0.632832 -0.500994
C20   C     C_3   0.053836 0.758999 0.656826 0.031835
H16   H     H_    0.078511 0.824857 0.568212 0.194767
H17   H     H_    0.173151 0.741367 0.703132 0.165885
H18   H     H_    0.972473 0.832032 0.723667 0.157267
F3    F     F_    0.712346 0.015848 0.558879 -0.709272
F4    F     F_    0.288745 0.983990 0.437991 -0.677204

loop_
_geom_bond_atom_site_label_1
_geom_bond_atom_site_label_2
_ccdc_geom_bond_type
O7    Zn2   S    
C19   H14   S    
C20   H16   S    
C6    F2    S    
C13   F3    S    
C5    F1    S    
C2    O2    A    
C14   F4    S    
C1    O1    A    
O2    Zn2   S    
C15   H3    S    
O1    Zn1   S    
O10   C16   S    
C6    C9    S    
C20   H17   S    
C16   H4    S    
C7    O9    S    
C5    C10   S    
C12   O12   S    
C3    C10   S    
C13   C14   D    
O12   C18   S    
C11   O11   S    
C9    C11   S    
C20   H18   S    
C10   C12   S    
C8    C11   S    
C2    C14   S    
C15   H2    S    
C15   H1    S    
C16   H5    S    
C5    C11   S    
N1    O13   S    
C6    C12   S    
C7    C12   S    
C4    O8    A    
N2    O14   S    
C3    O5    A    
C19   H15   S    
C1    C13   S    
O4    Zn1   S    
C2    O4    A    
N1    N2    D    
C8    O10   S    
C7    C9    S    
N2    Zn1   S    
C16   H6    S    
C4    O6    A    
O8    Zn1   S    
C8    C10   S    
O13   C19   S    
O6    Zn2   S    
C18   H11   S    
O11   C17   S    
C5    C7    S    
O3    Zn2   S    
O5    Zn1   S    
O14   C20   S    
C17   H7    S    
N1    Zn2   S    
C6    C8    S    
C18   H12   S    
C19   H13   S    
C4    C9    S    
C18   H10   S    
C1    O3    A    
C3    O7    A    
C17   H9    S    
C17   H8    S    
O9    C15   S    
