data_mof_unit_45295.cif
_audit_creation_date              2012-10-26T19:20:37-0400
_audit_creation_method            fapswitch 2.2
_symmetry_space_group_name_H-M    P1
_symmetry_Int_Tables_number       1
_space_group_crystal_system       triclinic
_cell_length_a                    10.854301
_cell_length_b                    11.046781
_cell_length_c                    9.873299
_cell_angle_alpha                 111.342165
_cell_angle_beta                  100.85308
_cell_angle_gamma                 90.265483
_cell_volume                      1079.48181552

loop_
_atom_site_label
_atom_site_type_symbol
_atom_type_description
_atom_site_fract_x
_atom_site_fract_y
_atom_site_fract_z
_atom_type_partial_charge
C1    C     C_R   0.490802 0.253858 0.440321 0.554239
C2    C     C_R   0.737671 0.486904 0.499401 0.529834
C3    C     C_R   0.163838 0.652935 0.768559 -0.067392
C4    C     C_R   0.836163 0.347067 0.231441 -0.067393
C5    C     C_R   0.131510 0.675048 0.904892 -0.100894
C6    C     C_R   0.868490 0.324955 0.095108 -0.100895
C7    C     C_R   0.021174 0.614518 0.909835 -0.090308
C8    C     C_R   0.978825 0.385485 0.090165 -0.090315
C9    C     C_R   0.938099 0.540934 0.778229 -0.039646
C10   C     C_R   0.061901 0.459069 0.221772 -0.039652
C11   C     C_R   0.963673 0.527735 0.637957 0.011982
C12   C     C_R   0.509198 0.746142 0.559679 0.554238
C13   C     C_R   0.036327 0.472267 0.362043 0.011983
C14   C     C_R   0.085437 0.569473 0.634330 0.015059
C15   C     C_R   0.914563 0.430529 0.365670 0.015060
C16   C     C_R   0.873744 0.472604 0.502120 -0.039898
C17   C     C_R   0.126256 0.527397 0.497881 -0.039897
C18   C     C_2   0.485840 0.114353 0.406501 -0.108567
C19   C     C_2   0.514160 0.885647 0.593499 -0.108568
C20   C     C_2   0.502279 0.069605 0.516534 -0.147120
C21   C     C_2   0.497721 0.930394 0.483466 -0.147120
C22   C     C_2   0.508220 0.510939 0.082451 0.076349
C23   C     C_2   0.491780 0.489061 0.917549 0.076349
C24   C     C_R   0.262329 0.513096 0.500599 0.529834
Cu1   Cu    Cu3+1 0.521920 0.521810 0.644910 1.071435
Cu2   Cu    Cu3+1 0.478080 0.478190 0.355090 1.071435
H1    H     H_    0.000619 0.374283 0.983980 0.155751
H2    H     H_    0.519298 0.135920 0.632131 0.179208
H3    H     H_    0.531224 0.952171 0.708932 0.144111
H4    H     H_    0.468776 0.047829 0.291068 0.144112
H5    H     H_    0.423076 0.413734 0.837653 0.186221
H6    H     H_    0.576924 0.586265 0.162347 0.186221
H7    H     H_    0.800922 0.811487 0.956863 0.347675
H8    H     H_    0.199065 0.188530 0.043142 0.347678
H9    H     H_    0.999380 0.625721 0.016021 0.155753
H10   H     H_    0.250107 0.702736 0.769084 0.143849
H11   H     H_    0.749893 0.297265 0.230915 0.143848
H12   H     H_    0.193903 0.736154 0.006848 0.124908
H13   H     H_    0.806097 0.263850 0.993151 0.124907
H14   H     H_    0.857600 0.490326 0.789181 0.172800
H15   H     H_    0.142400 0.509676 0.210820 0.172799
H16   H     H_    0.480702 0.864080 0.367869 0.179208
N1    N     N_2   0.445130 0.445420 0.137360 -0.075770
N2    N     N_2   0.554870 0.554580 0.862640 -0.075770
O1    O     O_R   0.511700 0.332340 0.577400 -0.534242
O2    O     O_2   0.764931 0.626513 0.067829 -0.347011
O3    O     O_3   0.736040 0.745366 0.882134 -0.475694
O4    O     O_2   0.235069 0.373487 0.932171 -0.347016
O5    O     O_2   0.396362 0.216606 0.915211 -0.316909
O6    O     O_3   0.263960 0.254634 0.117866 -0.475698
O7    O     O_R   0.488300 0.667660 0.422600 -0.534242
O8    O     O_R   0.474680 0.295500 0.332650 -0.435496
O9    O     O_R   0.525320 0.704500 0.667350 -0.435498
O10   O     O_R   0.338170 0.518410 0.622370 -0.523433
O11   O     O_R   0.661830 0.481590 0.377630 -0.523434
O12   O     O_R   0.301150 0.481570 0.377630 -0.472562
O13   O     O_R   0.698850 0.518430 0.622370 -0.472561
O14   O     O_2   0.603638 0.783394 0.084789 -0.316916
S1    S     S_3+6 0.666324 0.679302 0.980055 0.061534
S2    S     S_3+6 0.333676 0.320698 0.019945 0.061535

loop_
_geom_bond_atom_site_label_1
_geom_bond_atom_site_label_2
_ccdc_geom_bond_type
C9    H14   S    
C7    C9    A    
C18   H4    S    
Cu2   O8    S    
O2    S1    D    
C24   O12   A    
C2    C16   S    
C11   C16   A    
C12   O9    A    
C13   C17   A    
O6    S2    S    
Cu2   O11   S    
C4    C15   A    
Cu1   Cu2   S    
C2    O13   A    
Cu2   O7    S    
Cu1   O10   S    
C10   H15   S    
C9    C11   A    
C14   C17   A    
C1    O1    A    
C1    C18   S    
O5    S2    D    
C22   H6    S    
N1    S2    S    
C3    C14   A    
C3    H10   S    
C12   C19   S    
C4    C6    A    
C19   C21   D    
Cu1   O9    S    
Cu2   N1    S    
O4    S2    D    
C18   C20   D    
C2    O11   A    
C13   C15   A    
H7    O3    S    
C1    O8    A    
H8    O6    S    
C17   C24   S    
N2    S1    S    
C24   O10   A    
C15   C16   A    
Cu1   O13   S    
Cu2   O12   S    
Cu1   O1    S    
C7    H9    S    
C12   O7    A    
C20   C21   S    
Cu1   N2    S    
C8    C10   A    
C11   C14   A    
C5    C7    A    
C8    H1    S    
C6    H13   S    
C6    C8    A    
C20   H2    S    
O14   S1    D    
C5    H12   S    
O3    S1    S    
C10   C13   A    
C22   C23   S    
C23   N2    D    
C21   H16   S    
C23   H5    S    
C4    H11   S    
C3    C5    A    
C22   N1    D    
C19   H3    S    
