data_mof_unit_40286.cif
_audit_creation_date              2013-03-05T15:58:34-0500
_audit_creation_method            fapswitch 2.2
_symmetry_space_group_name_H-M    P1
_symmetry_Int_Tables_number       1
_space_group_crystal_system       triclinic
_cell_length_a                    15.079105
_cell_length_b                    13.934254
_cell_length_c                    10.627054
_cell_angle_alpha                 90.015579
_cell_angle_beta                  85.662592
_cell_angle_gamma                 89.961842
_cell_volume                      2226.51916953

loop_
_atom_site_label
_atom_site_type_symbol
_atom_site_description
_atom_site_fract_x
_atom_site_fract_y
_atom_site_fract_z
_atom_type_partial_charge
O1    O     O_R   0.370260 0.582280 0.500030 -0.593460
O2    O     O_R   0.629740 0.417720 0.499970 -0.593461
O3    O     O_R   0.629740 0.582280 0.499970 -0.591563
O4    O     O_R   0.370260 0.417720 0.500030 -0.591563
C1    C     C_R   0.328860 0.500019 0.500925 0.792582
C2    C     C_R   0.671140 0.499981 0.499075 0.792583
O5    O     O_R   0.499980 0.582260 0.316850 -0.583418
O6    O     O_R   0.500020 0.417740 0.683150 -0.583418
O7    O     O_R   0.500020 0.582260 0.683150 -0.585004
O8    O     O_R   0.499980 0.417740 0.316850 -0.585004
C3    C     C_R   0.499476 0.499955 0.259807 0.801317
C4    C     C_R   0.500524 0.500045 0.740193 0.801317
Cu1   Cu    Cu3+1 0.500000 0.597420 0.500000 0.927835
Cu2   Cu    Cu3+1 0.500000 0.402580 0.500000 0.927835
C5    C     C_3   0.450386 0.574336 0.046811 -0.195402
C6    C     C_3   0.549614 0.425664 0.953189 -0.195402
C7    C     C_3   0.535075 0.583496 0.955117 -0.189806
C8    C     C_3   0.464925 0.416504 0.044883 -0.189806
C9    C     C_3   0.417334 0.491221 0.966908 0.210182
C10   C     C_3   0.582666 0.508779 0.033092 0.210182
H1    H     H_    0.409250 0.634512 0.087421 0.146901
H2    H     H_    0.590750 0.365488 0.912579 0.146901
H3    H     H_    0.564424 0.651342 0.916317 0.148715
H4    H     H_    0.435576 0.348658 0.083683 0.148715
C11   C     C_3   0.500832 0.500216 0.876982 -0.019921
C12   C     C_3   0.499168 0.499784 0.123018 -0.019921
C13   C     C_R   0.815418 0.585527 0.475731 -0.243098
C14   C     C_R   0.184582 0.414472 0.524269 -0.243098
C15   C     C_R   0.768085 0.500035 0.498229 -0.073681
C16   C     C_R   0.231915 0.499965 0.501771 -0.073681
C17   C     C_R   0.813322 0.414804 0.520416 -0.232980
C18   C     C_R   0.186678 0.585196 0.479584 -0.232980
C19   C     C_R   0.905571 0.414456 0.521516 0.071204
C20   C     C_R   0.094429 0.585543 0.478484 0.071204
C21   C     C_R   0.953502 0.500472 0.499300 0.015948
C22   C     C_R   0.046498 0.499528 0.500700 0.015948
C23   C     C_R   0.908352 0.587215 0.475728 0.102716
C24   C     C_R   0.091648 0.412785 0.524272 0.102716
C25   C     C_R   0.950074 0.328992 0.545090 -0.210521
C26   C     C_R   0.049926 0.671008 0.454910 -0.210521
C27   C     C_R   0.042736 0.326916 0.546951 0.174384
C28   C     C_R   0.957264 0.673084 0.453049 0.174384
H5    H     H_    0.779110 0.650471 0.457810 0.171399
H6    H     H_    0.220890 0.349529 0.542190 0.171399
H7    H     H_    0.776674 0.348605 0.538096 0.158741
H8    H     H_    0.223326 0.651395 0.461903 0.158741
H9    H     H_    0.912205 0.263522 0.562275 0.143720
H10   H     H_    0.087795 0.736478 0.437725 0.143720
C29   C     C_R   0.450573 0.794734 0.593637 0.278051
C30   C     C_R   0.549427 0.205265 0.406363 0.278051
C31   C     C_R   0.549467 0.794679 0.406445 0.285167
C32   C     C_R   0.450533 0.205321 0.593555 0.285167
N1    N     N_R   0.500000 0.743810 0.500000 -0.183474
N2    N     N_R   0.500000 0.256190 0.500000 -0.183474
C33   C     C_R   0.545512 0.897101 0.401407 -0.001981
C34   C     C_R   0.454488 0.102899 0.598593 -0.001981
C35   C     C_R   0.454507 0.897179 0.598643 -0.002459
C36   C     C_R   0.545493 0.102821 0.401357 -0.002460
C37   C     C_R   0.499999 0.948449 0.500009 0.031143
C38   C     C_R   0.500001 0.051551 0.499991 0.031143
C39   C     C_R   0.587234 0.949956 0.300293 -0.197011
C40   C     C_R   0.412766 0.050044 0.699707 -0.197011
C41   C     C_R   0.412798 0.950142 0.699747 -0.198105
C42   C     C_R   0.587202 0.049858 0.300252 -0.198105
H11   H     H_    0.620272 0.915290 0.218661 0.149687
H12   H     H_    0.379728 0.084710 0.781339 0.149687
H13   H     H_    0.379809 0.915565 0.781427 0.149247
H14   H     H_    0.620191 0.084434 0.218573 0.149247
C43   C     C_3   0.322980 0.481903 0.927094 -0.902239
H15   H     H_    0.316695 0.414965 0.872037 0.230076
H16   H     H_    0.275561 0.479546 0.012129 0.243464
H17   H     H_    0.307091 0.544370 0.867994 0.228513
C44   C     C_3   0.677020 0.518097 0.072906 -0.902239
H18   H     H_    0.683305 0.585036 0.127962 0.230076
H19   H     H_    0.692909 0.455631 0.132006 0.228513
H20   H     H_    0.724439 0.520453 0.987870 0.243464
C45   C     C_3   0.087371 0.232781 0.573294 -0.890370
H21   H     H_    0.038505 0.173571 0.589164 0.232984
H22   H     H_    0.134078 0.212621 0.491748 0.235152
H23   H     H_    0.124341 0.239353 0.659393 0.230131
C46   C     C_3   0.912629 0.767219 0.426706 -0.890371
H24   H     H_    0.961495 0.826428 0.410836 0.232984
H25   H     H_    0.875659 0.760647 0.340607 0.230131
H26   H     H_    0.865922 0.787379 0.508252 0.235152
C47   C     C_3   0.388877 0.745413 0.692659 -0.789939
H27   H     H_    0.373956 0.670597 0.675070 0.273559
H28   H     H_    0.416902 0.750137 0.786162 0.203863
H29   H     H_    0.322518 0.780442 0.697580 0.186855
C48   C     C_3   0.611123 0.254587 0.307341 -0.789938
H30   H     H_    0.626044 0.329403 0.324930 0.273559
H31   H     H_    0.677481 0.219558 0.302420 0.186855
H32   H     H_    0.583098 0.249862 0.213838 0.203863
C49   C     C_3   0.611324 0.745325 0.307652 -0.804173
H33   H     H_    0.625991 0.670519 0.325379 0.272506
H34   H     H_    0.583514 0.750077 0.214002 0.207789
H35   H     H_    0.677737 0.780150 0.303090 0.184774
C50   C     C_3   0.388676 0.254675 0.692348 -0.804173
H36   H     H_    0.374009 0.329481 0.674621 0.272506
H37   H     H_    0.322263 0.219850 0.696910 0.184774
H38   H     H_    0.416486 0.249923 0.785998 0.207789

loop_
_geom_bond_atom_site_label_1
_geom_bond_atom_site_label_2
_geom_bond_distance
_ccdc_geom_bond_type
C49   H33   1.084910 S    
C33   C37   1.403944 A    
C13   C15   1.400429 A    
C44   H18   1.108839 S    
C21   C22   1.403560 A    
C8    C12   1.538777 S    
O3    C2    1.305008 A    
C50   H38   1.110771 S    
C46   H24   1.110936 S    
C25   C27   1.399179 A    
C45   H21   1.110936 S    
C5    C9    1.541087 S    
C30   N2    1.391381 A    
C8    H4    1.110309 S    
C42   H14   1.080866 S    
C21   C23   1.418488 A    
C27   C45   1.509795 S    
C35   C37   1.404266 A    
C36   C38   1.404266 A    
C50   H36   1.084910 S    
C32   C50   1.515207 S    
C7    C10   1.541107 S    
C29   C35   1.429905 A    
C5    C7    1.552004 S    
C8    C9    1.541107 S    
C23   C28   1.417098 A    
C43   H16   1.109645 S    
O7    Cu1   1.957854 S    
C46   H25   1.110634 S    
O6    Cu2   1.957739 S    
C17   C19   1.391965 A    
C48   H31   1.110703 S    
C20   C22   1.410728 A    
O3    Cu1   1.967541 S    
C6    C10   1.541087 S    
C26   C28   1.399179 A    
C37   C38   1.436657 A    
C49   H34   1.110771 S    
Cu1   Cu2   2.714949 S    
C44   H19   1.110080 S    
O2    C2    1.305284 A    
C28   C46   1.509795 S    
O2    Cu2   1.967820 S    
C50   H37   1.110881 S    
C32   N2    1.391468 A    
C35   C41   1.411153 A    
Cu1   N1    2.039835 S    
C45   H22   1.110497 S    
C36   C42   1.411153 A    
C41   H13   1.080866 S    
C40   H12   1.080819 S    
C47   H28   1.110759 S    
C30   C36   1.429905 A    
C29   C47   1.516031 S    
C24   C27   1.417098 A    
O8    Cu2   1.957855 S    
C5    C12   1.538070 S    
C3    C12   1.454027 S    
C47   H27   1.085800 S    
C14   H6    1.081725 S    
C34   C38   1.403944 A    
C31   N1    1.391468 A    
C18   C20   1.391965 A    
C43   H17   1.110081 S    
O5    C3    1.297359 A    
C40   C41   1.392053 A    
C39   H11   1.080819 S    
C30   C48   1.516031 S    
C7    H3    1.110309 S    
C14   C24   1.401569 A    
O6    C4    1.297359 A    
C19   C25   1.398511 A    
C48   H32   1.110759 S    
C31   C49   1.515207 S    
Cu2   N2    2.039835 S    
C49   H35   1.110881 S    
C44   H20   1.109644 S    
C34   C40   1.411272 A    
C9    C43   1.520344 S    
O1    Cu1   1.967821 S    
O1    C1    1.305285 A    
C46   H26   1.110496 S    
C25   H9    1.084746 S    
C1    C16   1.461186 S    
C47   H29   1.110703 S    
C6    C11   1.538070 S    
C26   H10   1.084746 S    
C6    H2    1.110284 S    
C18   H8    1.084728 S    
O4    C1    1.305009 A    
C4    C11   1.454027 S    
C7    C11   1.538777 S    
C14   C16   1.400429 A    
C15   C17   1.398132 A    
C39   C42   1.392053 A    
C16   C18   1.398132 A    
C45   H23   1.110634 S    
C5    H1    1.110285 S    
C10   C12   1.527259 S    
C13   C23   1.401569 A    
C29   N1    1.391381 A    
C33   C39   1.411272 A    
C22   C24   1.418488 A    
C19   C21   1.410728 A    
C10   C44   1.520344 S    
C31   C33   1.429571 A    
O4    Cu2   1.967541 S    
C43   H15   1.108838 S    
C9    C11   1.527259 S    
O7    C4    1.296539 A    
O8    C3    1.296539 A    
C13   H5    1.081725 S    
O5    Cu1   1.957740 S    
C2    C15   1.461186 S    
C6    C8    1.552004 S    
C17   H7    1.084728 S    
C20   C26   1.398511 A    
C48   H30   1.085800 S    
C32   C34   1.429571 A    
