data_mof_unit_46737.cif
_audit_creation_date              2012-12-10T20:28:10-0500
_audit_creation_method            fapswitch 2.2
_symmetry_space_group_name_H-M    P1
_symmetry_Int_Tables_number       1
_space_group_crystal_system       triclinic
_cell_length_a                    18.916337
_cell_length_b                    18.368506
_cell_length_c                    18.883197
_cell_angle_alpha                 109.02262
_cell_angle_beta                  109.863925
_cell_angle_gamma                 108.777013
_cell_volume                      5096.69104957

loop_
_atom_site_label
_atom_site_type_symbol
_atom_type_description
_atom_site_fract_x
_atom_site_fract_y
_atom_site_fract_z
_atom_type_partial_charge
C1    C     C_R   0.385036 0.505449 0.381347 0.854994
C2    C     C_R   0.736453 0.809459 0.810138 0.516803
C3    C     C_R   0.084766 0.256162 0.766974 -0.047093
C4    C     C_R   0.789632 0.226837 0.740765 -0.190271
C5    C     C_R   0.716626 0.237416 0.719218 -0.129176
C6    C     C_R   0.702824 0.282280 0.673227 -0.194277
C7    C     C_R   0.761500 0.316142 0.648136 -0.253549
C8    C     C_R   0.834952 0.305783 0.669202 0.553398
C9    C     C_R   0.849541 0.261990 0.716975 -0.005595
C10   C     C_R   0.821900 0.823404 0.579528 0.538639
C11   C     C_R   0.813492 0.813223 0.499546 -0.238393
C12   C     C_R   0.741387 0.740895 0.420575 -0.085595
C13   C     C_R   0.683434 0.674130 0.423288 0.507905
C14   C     C_R   0.688312 0.687272 0.502830 -0.274850
C15   C     C_R   0.754997 0.764154 0.580956 -0.081039
C16   C     C_R   0.694828 0.790906 0.313027 -0.344319
C17   C     C_R   0.679114 0.788459 0.233765 0.495029
C18   C     C_R   0.688787 0.727750 0.175097 0.548755
C19   C     C_R   0.621554 0.620566 0.501883 0.923241
C20   C     C_R   0.711427 0.668316 0.194914 -0.380814
C21   C     C_R   0.725820 0.670462 0.273336 -0.202555
C22   C     C_R   0.722436 0.735002 0.335009 0.118120
C23   C     C_R   0.495040 0.794447 0.532076 0.616370
C24   C     C_R   0.423124 0.711037 0.472340 -0.267317
C25   C     C_R   0.394489 0.675718 0.383472 -0.122799
C26   C     C_R   0.433008 0.730976 0.354408 0.555624
C27   C     C_R   0.505228 0.814290 0.414722 -0.329263
C28   C     C_R   0.537681 0.844693 0.502957 -0.269877
C29   C     C_R   0.250607 0.577169 0.255345 -0.115377
C30   C     C_R   0.618084 0.497717 0.619254 0.962099
C31   C     C_R   0.184212 0.494811 0.186677 -0.080117
C32   C     C_R   0.179529 0.415759 0.185092 0.067246
C33   C     C_R   0.248384 0.423701 0.251083 -0.239106
C34   C     C_R   0.317821 0.506278 0.317168 -0.099302
C35   C     C_R   0.319652 0.585145 0.320405 0.041364
C36   C     C_R   0.075331 0.264132 0.145984 -0.113990
C37   C     C_R   0.010053 0.177576 0.086484 -0.253429
C38   C     C_R   0.975669 0.148554 0.998437 -0.232331
C39   C     C_R   0.007427 0.206090 0.969314 0.594069
C40   C     C_R   0.069804 0.294633 0.029741 -0.238513
C41   C     C_R   0.377766 0.379952 0.497585 0.908118
C42   C     C_R   0.105749 0.324638 0.118945 0.069717
C43   C     C_R   0.258396 0.545965 0.525835 0.408573
C44   C     C_R   0.266028 0.479147 0.543265 0.480513
C45   C     C_R   0.219934 0.390924 0.475737 -0.112638
C46   C     C_R   0.157563 0.369247 0.394746 -0.343638
C47   C     C_R   0.144135 0.434684 0.378880 0.529673
C48   C     C_R   0.198057 0.522962 0.442693 -0.385404
C49   C     C_R   0.169702 0.250652 0.481797 0.462491
C50   C     C_R   0.183008 0.182134 0.491471 -0.223135
C51   C     C_R   0.256643 0.176158 0.495857 0.026018
C52   C     C_R   0.731692 0.866117 0.776208 -0.354999
C53   C     C_R   0.319608 0.243199 0.498433 -0.195123
C54   C     C_R   0.310042 0.314438 0.496090 -0.132493
C55   C     C_R   0.235161 0.319824 0.488009 0.018052
C56   C     C_R   0.339409 0.101055 0.541110 0.589042
C57   C     C_R   0.352066 0.026835 0.519607 -0.314127
C58   C     C_R   0.293474 0.950439 0.440237 -0.171567
C59   C     C_R   0.219183 0.944765 0.383952 -0.103610
C60   C     C_R   0.204279 0.016553 0.405184 -0.263504
C61   C     C_R   0.264442 0.095451 0.483314 0.056901
C62   C     C_2   0.745094 0.499844 0.824836 0.619351
C63   C     C_R   0.741218 0.854871 0.702641 0.579188
C64   C     C_2   0.820490 0.513859 0.827172 -0.401200
C65   C     C_2   0.686736 0.514363 0.762209 -0.347634
C66   C     C_2   0.677345 0.488367 0.683183 -0.409735
C67   C     C_R   0.999366 0.877703 0.381368 0.914765
C68   C     C_R   0.880043 0.878936 0.499430 0.973968
C69   C     C_R   0.002663 0.123667 0.619808 0.914148
C70   C     C_R   0.119386 0.117657 0.496470 0.899528
C71   C     C_R   0.003498 0.379646 0.884040 0.912101
C72   C     C_R   0.121287 0.496386 0.119988 0.871753
C73   C     C_R   0.003971 0.620762 0.123467 0.991911
C74   C     C_R   0.754823 0.784577 0.663838 0.073152
C75   C     C_R   0.884195 0.503308 0.885885 1.005453
C76   C     C_R   0.085264 0.724310 0.534936 -0.504788
C77   C     C_R   0.088585 0.741783 0.468418 0.596600
C78   C     C_R   0.014077 0.731497 0.405195 0.009008
C79   C     C_R   0.939523 0.707867 0.411928 -0.480119
C80   C     C_R   0.936288 0.689704 0.477589 0.499993
C81   C     C_R   0.010278 0.701396 0.541891 0.458760
C82   C     C_R   0.010659 0.678072 0.263498 0.472346
C83   C     C_R   0.006962 0.688242 0.191672 -0.195520
C84   C     C_R   0.004184 0.761524 0.185010 0.030448
C85   C     C_R   0.763882 0.730930 0.700917 -0.291913
C86   C     C_R   0.998395 0.820601 0.247047 -0.296297
C87   C     C_R   0.001355 0.811033 0.317866 -0.150186
C88   C     C_R   0.011232 0.742031 0.329393 -0.002025
C89   C     C_R   0.074667 0.848880 0.128287 -0.430915
C90   C     C_R   0.071766 0.871618 0.063260 0.499671
C91   C     C_R   0.997426 0.819402 0.981129 0.471012
C92   C     C_R   0.927780 0.746122 0.965112 -0.399938
C93   C     C_R   0.929151 0.726927 0.031349 0.466735
C94   C     C_R   0.003475 0.777428 0.112863 -0.006076
C95   C     C_R   0.272481 0.217467 0.786020 -0.353450
C96   C     C_R   0.754674 0.743238 0.773365 -0.189708
C97   C     C_R   0.198450 0.213172 0.787544 -0.264367
C98   C     C_R   0.169377 0.271184 0.773571 -0.033096
C99   C     C_R   0.223709 0.344270 0.771364 0.361258
C100  C     C_R   0.300321 0.349277 0.772626 0.387278
C101  C     C_R   0.323882 0.284866 0.777014 0.478554
C102  C     C_R   0.082518 0.314416 0.834870 0.503984
C103  C     C_R   0.003769 0.312772 0.819215 -0.130516
C104  C     C_R   0.927406 0.252136 0.740103 0.029952
C105  C     C_R   0.928815 0.190141 0.676263 -0.221885
C106  C     C_R   0.006053 0.191639 0.688585 -0.196489
H1    H     H_    0.388101 0.675531 0.495685 0.227697
H2    H     H_    0.248285 0.364591 0.251085 0.147685
H3    H     H_    0.102419 0.283690 0.213551 0.158765
H4    H     H_    0.986718 0.132646 0.108793 0.163419
H5    H     H_    0.091601 0.339147 0.006960 0.145785
H6    H     H_    0.192526 0.573149 0.426878 0.213890
H7    H     H_    0.174123 0.884865 0.323175 0.160691
H8    H     H_    0.839291 0.540434 0.788838 0.122281
H9    H     H_    0.775624 0.677835 0.671976 0.170388
H10   H     H_    0.883262 0.701494 0.364440 0.183585
H11   H     H_    0.993724 0.875951 0.241136 0.171695
H12   H     H_    0.132061 0.886846 0.190965 0.184389
H13   H     H_    0.759958 0.700124 0.799905 0.157935
H14   H     H_    0.288081 0.166944 0.790673 0.161299
H15   H     H_    0.161384 0.161730 0.796643 0.187642
H16   H     H_    0.800138 0.192431 0.776856 0.164263
H17   H     H_    0.671055 0.211321 0.738643 0.127544
O1    O     O_R   0.408620 0.551720 0.460350 -0.620069
O2    O     O_R   0.949210 0.908400 0.357560 -0.621868
O3    O     O_R   0.959770 0.908340 0.551360 -0.610035
O4    O     O_R   0.856990 0.908380 0.448600 -0.630193
O5    O     O_R   0.050790 0.091560 0.642400 -0.615693
O6    O     O_R   0.948010 0.091600 0.539640 -0.630158
O7    O     O_R   0.143010 0.091580 0.551350 -0.615768
O8    O     O_R   0.040230 0.091620 0.448600 -0.575908
O9    O     O_R   0.055540 0.460120 0.912140 -0.589710
O10   O     O_R   0.952100 0.356700 0.912170 -0.630971
O11   O     O_R   0.145980 0.551740 0.094190 -0.607466
O12   O     O_R   0.409320 0.448300 0.357580 -0.633245
O13   O     O_R   0.042530 0.448320 0.094220 -0.604883
O14   O     O_R   0.054350 0.643370 0.094170 -0.635181
O15   O     O_R   0.950900 0.539950 0.094200 -0.598089
O16   O     O_R   0.963910 0.551750 0.912120 -0.636010
O17   O     O_R   0.860470 0.448330 0.912150 -0.569171
O18   O     O_R   0.591270 0.643330 0.551380 -0.614557
O19   O     O_R   0.591970 0.539910 0.448620 -0.582690
O20   O     O_R   0.590680 0.551700 0.642420 -0.617949
O21   O     O_R   0.591380 0.448280 0.539650 -0.638214
O22   O     O_R   0.408030 0.460090 0.551380 -0.554133
O23   O     O_R   0.408730 0.356670 0.448620 -0.646594
O24   O     O_R   0.051990 0.908360 0.460320 -0.631689
Zn1   Zn    Zn3+2 0.499530 0.569060 0.568620 1.044907
Zn2   Zn    Zn3+2 0.500470 0.430940 0.431380 0.946655
Zn3   Zn    Zn3+2 0.068630 0.999950 0.568590 0.940863
Zn4   Zn    Zn3+2 0.931370 1.000000 0.431370 1.005614
Zn5   Zn    Zn3+2 0.072290 0.569090 0.003150 1.019498
Zn6   Zn    Zn3+2 0.934150 0.430980 0.003190 0.994849
O25   O     O_3   0.728283 0.823250 0.882730 -0.616838
C107  C     C_3   0.650096 0.753663 0.859463 -0.279275
H18   H     H_    0.652143 0.690753 0.842350 0.140238
H19   H     H_    0.594305 0.745489 0.805510 0.179370
H20   H     H_    0.639893 0.769634 0.915857 0.200222
O26   O     O_3   0.680850 0.730708 0.100789 -0.587320
C108  C     C_3   0.602386 0.658122 0.029996 -0.404600
H21   H     H_    0.546692 0.658673 0.037624 0.171817
H22   H     H_    0.601602 0.594644 0.019778 0.145805
H23   H     H_    0.595045 0.662825 0.971113 0.184854
H24   H     H_    0.718629 0.620968 0.149845 0.171591
H25   H     H_    0.740255 0.622222 0.286149 0.185109
H26   H     H_    0.593421 0.909160 0.548610 0.194386
O27   O     O_3   0.525351 0.825129 0.619292 -0.582281
C109  C     C_3   0.491401 0.879573 0.646908 -0.365830
H27   H     H_    0.419810 0.842480 0.612414 0.165875
H28   H     H_    0.514050 0.938624 0.638698 0.144903
H29   H     H_    0.514471 0.903161 0.716702 0.196978
O28   O     O_3   0.392059 0.711414 0.269219 -0.601729
C110  C     C_3   0.424880 0.668374 0.224243 -0.367599
H30   H     H_    0.405147 0.601480 0.217402 0.165308
H31   H     H_    0.495887 0.708357 0.255395 0.145015
H32   H     H_    0.396658 0.659759 0.158197 0.208275
H33   H     H_    0.534674 0.856643 0.392865 0.174424
H34   H     H_    0.249115 0.636346 0.257232 0.188545
H35   H     H_    0.717846 0.916698 0.806349 0.169319
H36   H     H_    0.924615 0.081334 0.953050 0.137133
O29   O     O_3   0.974824 0.178432 0.882096 -0.641230
C111  C     C_3   0.994148 0.112469 0.845085 -0.345861
H37   H     H_    0.957655 0.050393 0.843446 0.171046
H38   H     H_    0.064337 0.135297 0.879277 0.141813
H39   H     H_    0.974462 0.096565 0.777234 0.237460
O30   O     O_3   0.316779 0.632941 0.589651 -0.571063
C112  C     C_3   0.274682 0.683091 0.600379 -0.370564
H40   H     H_    0.214907 0.647442 0.600839 0.155804
H41   H     H_    0.261044 0.703211 0.550069 0.207724
H42   H     H_    0.318394 0.744262 0.663701 0.189138
O31   O     O_3   0.324985 0.502108 0.625101 -0.558298
C113  C     C_3   0.289243 0.515887 0.679278 -0.167261
H43   H     H_    0.247328 0.451458 0.669642 0.195495
H44   H     H_    0.252852 0.552168 0.669493 0.112831
H45   H     H_    0.342104 0.555942 0.747275 0.211404
H46   H     H_    0.120333 0.301311 0.343878 0.180662
O32   O     O_3   0.084965 0.414995 0.298563 -0.581795
C114  C     C_3   0.001200 0.362480 0.280334 -0.287660
H47   H     H_    0.987816 0.395818 0.331112 0.154509
H48   H     H_    0.990019 0.296244 0.271856 0.163338
H49   H     H_    0.954440 0.352027 0.218369 0.181387
O33   O     O_3   0.730797 0.904686 0.661640 -0.593871
C115  C     C_3   0.750152 0.989955 0.717450 -0.310879
H50   H     H_    0.809674 0.022272 0.780474 0.181228
H51   H     H_    0.694714 0.987608 0.726753 0.176665
H52   H     H_    0.761326 0.031358 0.686632 0.192888
O34   O     O_3   0.089099 0.244270 0.455964 -0.596843
C116  C     C_3   0.083712 0.286311 0.529262 -0.273740
H53   H     H_    0.110916 0.357901 0.551379 0.142247
H54   H     H_    0.115568 0.274029 0.582249 0.126437
H55   H     H_    0.014848 0.259477 0.511082 0.187921
H56   H     H_    0.375947 0.238862 0.499979 0.160481
O35   O     O_3   0.397004 0.178818 0.618812 -0.567758
C117  C     C_3   0.482371 0.205239 0.635672 -0.340239
H57   H     H_    0.487871 0.191963 0.576327 0.142489
H58   H     H_    0.510193 0.173520 0.669362 0.154006
H59   H     H_    0.521176 0.277304 0.679213 0.202174
H60   H     H_    0.407651 0.028252 0.563556 0.138699
H61   H     H_    0.305037 0.894872 0.422748 0.170248
H62   H     H_    0.147866 0.012101 0.358889 0.136107
O36   O     O_3   0.728673 0.478386 0.884340 -0.556307
C118  C     C_3   0.645589 0.459958 0.871594 -0.294631
H63   H     H_    0.594981 0.407573 0.804768 0.176216
H64   H     H_    0.639074 0.520365 0.887887 0.142727
H65   H     H_    0.635451 0.435911 0.915960 0.174938
H66   H     H_    0.649546 0.543585 0.779696 0.177045
H67   H     H_    0.709468 0.453661 0.662793 0.155419
O37   O     O_3   0.003993 0.682265 0.605657 -0.582494
C119  C     C_3   0.077163 0.744678 0.687715 -0.305092
H68   H     H_    0.100479 0.813343 0.698337 0.136096
H69   H     H_    0.129365 0.727112 0.697406 0.162196
H70   H     H_    0.059396 0.742826 0.737615 0.214053
H71   H     H_    0.140619 0.727077 0.580278 0.168275
O38   O     O_3   0.162018 0.762541 0.461154 -0.585463
C120  C     C_3   0.229950 0.843755 0.533911 -0.360250
H72   H     H_    0.245665 0.842497 0.595602 0.134270
H73   H     H_    0.215262 0.898248 0.536416 0.203320
H74   H     H_    0.288913 0.857655 0.528754 0.185758
O39   O     O_3   0.861025 0.663668 0.480951 -0.609160
C121  C     C_3   0.812817 0.570927 0.432953 -0.265267
H75   H     H_    0.848434 0.540025 0.460072 0.174017
H76   H     H_    0.794189 0.546699 0.363702 0.138031
H77   H     H_    0.752818 0.549522 0.436549 0.215797
O40   O     O_3   0.019299 0.608275 0.270837 -0.580286
C122  C     C_3   0.939755 0.543177 0.250985 -0.241647
H78   H     H_    0.934209 0.477667 0.218710 0.190203
H79   H     H_    0.882329 0.542184 0.206311 0.134731
H80   H     H_    0.938247 0.551358 0.311218 0.152389
O41   O     O_3   0.142075 0.940309 0.075854 -0.575072
C123  C     C_3   0.171890 0.019125 0.150194 -0.338488
H81   H     H_    0.214213 0.021313 0.209377 0.177948
H82   H     H_    0.118252 0.028848 0.155354 0.143610
H83   H     H_    0.211263 0.075450 0.145935 0.195233
O42   O     O_3   0.992592 0.838341 0.915097 -0.579476
C124  C     C_3   0.972600 0.907609 0.926768 -0.307600
H84   H     H_    0.029175 0.971562 0.980847 0.191823
H85   H     H_    0.916649 0.895070 0.937803 0.170105
H86   H     H_    0.955011 0.913471 0.867384 0.176635
H87   H     H_    0.871536 0.705229 0.901653 0.183382
O43   O     O_3   0.858201 0.658013 0.016490 -0.604251
C125  C     C_3   0.800350 0.688013 0.025563 -0.198613
H88   H     H_    0.767585 0.695394 0.969175 0.160006
H89   H     H_    0.832178 0.750936 0.086760 0.183019
H90   H     H_    0.750838 0.638155 0.028099 0.203793
O44   O     O_3   0.395923 0.290176 0.769401 -0.533186
C126  C     C_3   0.440885 0.259296 0.817541 -0.283900
H91   H     H_    0.408650 0.186151 0.782340 0.179296
H92   H     H_    0.449376 0.284750 0.883721 0.120987
H93   H     H_    0.505961 0.283376 0.824633 0.178827
O45   O     O_3   0.216797 0.420820 0.787413 -0.587132
C127  C     C_3   0.134778 0.407261 0.734773 -0.232338
H94   H     H_    0.107201 0.428611 0.775559 0.226163
H95   H     H_    0.088165 0.339170 0.681804 0.124929
H96   H     H_    0.142169 0.450601 0.705515 0.142353
O46   O     O_3   0.351529 0.416878 0.765990 -0.555421
C128  C     C_3   0.420422 0.482876 0.849147 -0.286684
H97   H     H_    0.462150 0.458134 0.878680 0.161616
H98   H     H_    0.396934 0.510660 0.892185 0.169173
H99   H     H_    0.460727 0.537188 0.843270 0.175554
O47   O     O_3   0.157495 0.384371 0.910091 -0.585537
C129  C     C_3   0.207805 0.355415 0.955797 -0.313343
H100  H     H_    0.264298 0.366383 0.946303 0.184326
H101  H     H_    0.171662 0.285406 0.938727 0.143484
H102  H     H_    0.233611 0.396757 0.025809 0.171911
H103  H     H_    0.869702 0.142315 0.615482 0.160674
O48   O     O_3   0.890750 0.897269 0.655663 -0.618229
C130  C     C_3   0.950386 0.873042 0.695159 -0.278318
H104  H     H_    0.008637 0.933516 0.751932 0.168284
H105  H     H_    0.970780 0.841029 0.650917 0.200066
H106  H     H_    0.924157 0.828613 0.718567 0.183919
H107  H     H_    0.647222 0.291828 0.657652 0.146275
H108  H     H_    0.750599 0.351333 0.613167 0.144872
O49   O     O_3   0.896875 0.345030 0.650564 -0.621906
C131  C     C_3   0.864202 0.300808 0.560675 -0.343679
H109  H     H_    0.813576 0.314314 0.526321 0.167753
H110  H     H_    0.839167 0.228492 0.534411 0.161936
H111  H     H_    0.917466 0.325928 0.547689 0.187670
O50   O     O_3   0.625882 0.593181 0.349028 -0.594868
C132  C     C_3   0.547831 0.591379 0.305737 -0.309558
H112  H     H_    0.531556 0.631301 0.349712 0.129029
H113  H     H_    0.495073 0.522254 0.269510 0.196485
H114  H     H_    0.549985 0.613038 0.257846 0.162960
H115  H     H_    0.689079 0.838881 0.359196 0.172970
O51   O     O_3   0.662084 0.850191 0.215896 -0.577316
C133  C     C_3   0.580008 0.835081 0.204304 -0.310199
H116  H     H_    0.579990 0.853365 0.266488 0.156290
H117  H     H_    0.529692 0.765538 0.155523 0.141924
H118  H     H_    0.562861 0.877673 0.179738 0.204389

loop_
_geom_bond_atom_site_label_1
_geom_bond_atom_site_label_2
_ccdc_geom_bond_type
C56   C61   A    
C127  H96   S    
C77   C78   A    
C115  H50   S    
C124  H85   S    
C93   C94   A    
O13   Zn6   S    
C63   O33   S    
C12   C22   S    
C107  H19   S    
O3    Zn3   S    
C10   O48   S    
C96   H13   S    
O8    Zn4   S    
O39   C121  S    
C51   C61   S    
C132  H112  S    
C92   H87   S    
C97   C98   A    
C90   C91   A    
C21   H25   S    
C7    C8    A    
C126  H92   S    
C53   C54   A    
C56   C57   A    
C129  H102  S    
C12   C13   A    
O1    Zn1   S    
O41   C123  S    
C37   C38   A    
C83   C84   A    
O10   Zn6   S    
C80   O39   S    
C36   C37   A    
C81   O37   S    
O28   C110  S    
C84   C86   A    
O6    Zn4   S    
C119  H70   S    
C10   C15   A    
C60   H62   S    
C44   O31   S    
C9    C104  S    
C5    C6    A    
C85   C96   A    
C117  H58   S    
C72   O13   A    
C73   O15   A    
C123  H82   S    
C127  H94   S    
C20   H24   S    
O29   C111  S    
O16   Zn5   S    
C70   O7    A    
C30   O21   A    
O40   C122  S    
C67   O2    A    
C17   C18   A    
C34   C35   A    
C7    H108  S    
C62   O36   S    
C89   C94   A    
O36   C118  S    
C111  H37   S    
C92   C93   A    
C112  H42   S    
C62   C64   D    
C18   O26   S    
O2    Zn4   S    
O18   Zn1   S    
O4    Zn4   S    
C71   O9    A    
C54   C55   A    
C36   C42   A    
C64   C75   S    
C109  H29   S    
C41   O23   A    
C130  H104  S    
C69   O5    A    
C97   H15   S    
C16   C17   A    
C133  H117  S    
C79   H10   S    
C66   H67   S    
O7    Zn3   S    
C47   C48   A    
C39   O29   S    
C120  H72   S    
C130  H105  S    
O14   Zn5   S    
C114  H47   S    
C113  H43   S    
C13   C14   A    
C103  C104  A    
C43   C48   A    
C122  H80   S    
O30   C112  S    
C62   C65   S    
C28   H26   S    
C131  H109  S    
C123  H83   S    
C40   C42   A    
C124  H86   S    
C26   O28   S    
C59   C60   A    
C2    O25   S    
C110  H30   S    
C21   C22   A    
C107  H20   S    
C77   O38   S    
C120  H73   S    
O32   C114  S    
C33   H2    S    
C29   C31   A    
C104  C105  A    
C115  H52   S    
C119  H68   S    
C1    C34   S    
C50   C51   A    
C40   H5    S    
C111  H38   S    
C110  H31   S    
C3    C106  A    
C32   C42   S    
O20   Zn1   S    
C90   O41   S    
C70   O8    A    
C5    H17   S    
C64   H8    S    
O33   C115  S    
C100  O46   S    
C82   O40   S    
O31   C113  S    
C108  H23   S    
C27   H33   S    
C85   H9    S    
O24   Zn3   S    
C38   C39   A    
C24   C25   A    
C131  H111  S    
C1    O1    A    
C126  H91   S    
C116  H53   S    
O27   C109  S    
C125  H89   S    
C78   C79   A    
C8    C9    A    
C118  H65   S    
C129  H100  S    
O12   Zn2   S    
C82   C83   A    
C121  H77   S    
C105  H103  S    
C30   O20   A    
O34   C116  S    
C121  H75   S    
C13   O50   S    
C60   C61   A    
C51   C53   A    
C111  H39   S    
C113  H44   S    
C15   C74   S    
C43   C44   A    
C113  H45   S    
O49   C131  S    
O23   Zn2   S    
C115  H51   S    
C58   H61   S    
C132  H114  S    
C72   O11   A    
O26   C108  S    
C68   O4    A    
C128  H99   S    
O35   C117  S    
C23   C24   A    
C133  H118  S    
O11   Zn5   S    
C20   C21   A    
C114  H49   S    
C121  H76   S    
C33   C34   A    
C26   C27   A    
C130  H106  S    
C4    H16   S    
C46   H46   S    
C24   H1    S    
C84   C94   S    
C23   C28   A    
C76   C77   A    
C118  H64   S    
C132  H113  S    
C38   H36   S    
O25   C107  S    
C56   O35   S    
C59   H7    S    
C2    C52   A    
C25   C35   S    
C23   O27   S    
C30   C66   S    
O15   Zn6   S    
O5    Zn3   S    
C109  H27   S    
C48   H6    S    
O46   C128  S    
C128  H98   S    
C49   C50   A    
C19   O19   A    
C29   H34   S    
C122  H79   S    
C67   O24   A    
O9    Zn5   S    
C120  H74   S    
C58   C59   A    
C37   H4    S    
O38   C120  S    
C124  H84   S    
C89   C90   A    
C68   O3    A    
C91   C92   A    
O22   Zn1   S    
C6    H107  S    
O19   Zn2   S    
C86   C87   A    
O44   C126  S    
C110  H32   S    
C78   C88   S    
C8    O49   S    
C127  H95   S    
C101  O44   S    
C46   C47   A    
C31   C72   S    
C76   H71   S    
C16   C22   A    
O21   Zn2   S    
C117  H57   S    
C14   C19   S    
C31   C32   A    
C44   C45   A    
C14   C15   A    
C102  O47   S    
C80   C81   A    
C36   H3    S    
C126  H93   S    
C76   C81   A    
C71   O10   A    
C125  H90   S    
C114  H48   S    
C69   C106  S    
C95   C97   A    
O51   C133  S    
C6    C7    A    
C91   O42   S    
C95   H14   S    
C129  H101  S    
C105  C106  A    
C29   C35   A    
C99   O45   S    
C67   C87   S    
C43   O30   S    
C99   C100  A    
C75   O17   A    
C32   C33   A    
O42   C124  S    
C2    C96   A    
C25   C26   A    
C52   H35   S    
O47   C129  S    
C119  H69   S    
C116  H54   S    
C49   C55   A    
O43   C125  S    
C131  H110  S    
C128  H97   S    
C63   C74   A    
C3    C98   S    
C57   C58   A    
O48   C130  S    
C17   O51   S    
C73   O14   A    
C116  H55   S    
C82   C88   A    
C4    C5    A    
C16   H115  S    
C109  H28   S    
C100  C101  A    
C98   C99   A    
C112  H41   S    
C65   H66   S    
C86   H11   S    
C18   C20   A    
C117  H59   S    
C74   C85   A    
C50   C70   S    
C102  C103  A    
C108  H21   S    
C3    C102  A    
C41   C54   S    
C123  H81   S    
C11   C68   S    
C10   C11   A    
O37   C119  S    
C79   C80   A    
C39   C40   A    
C45   C46   A    
C112  H40   S    
C52   C63   A    
C41   O22   A    
C89   H12   S    
C45   C55   S    
C87   C88   A    
C69   O6    A    
C133  H116  S    
C57   H60   S    
C93   O43   S    
C1    O12   A    
C107  H18   S    
C125  H88   S    
C49   O34   S    
O45   C127  S    
C47   O32   S    
C75   O16   A    
O17   Zn6   S    
C4    C9    A    
C122  H78   S    
C19   O18   A    
C71   C103  S    
C118  H63   S    
C73   C83   S    
C53   H56   S    
O50   C132  S    
C95   C101  A    
C11   C12   A    
C108  H22   S    
C27   C28   A    
C65   C66   D    
