data_mof_unit_19684.cif
_audit_creation_date              2012-12-10T20:42:37-0500
_audit_creation_method            fapswitch 2.2
_symmetry_space_group_name_H-M    P1
_symmetry_Int_Tables_number       1
_space_group_crystal_system       triclinic
_cell_length_a                    8.894813
_cell_length_b                    10.76153
_cell_length_c                    9.924376
_cell_angle_alpha                 90.614546
_cell_angle_beta                  90.172866
_cell_angle_gamma                 90.75659
_cell_volume                      949.83690153

loop_
_atom_site_label
_atom_site_type_symbol
_atom_type_description
_atom_site_fract_x
_atom_site_fract_y
_atom_site_fract_z
_atom_type_partial_charge
C1    C     C_R   0.496840 0.259786 0.498591 0.888126
C2    C     C_R   0.431443 0.932222 0.373967 -0.078905
C3    C     C_R   0.458750 0.870007 0.496945 -0.159748
C4    C     C_R   0.458140 0.937852 0.616992 0.115748
C5    C     C_3   0.557098 0.932267 0.738670 -0.456439
C6    C     C_3   0.558827 0.073098 0.738422 -0.423981
C7    C     C_R   0.397441 0.429824 0.069090 0.097160
C8    C     C_R   0.608785 0.561999 0.073513 -0.013736
C9    C     C_R   0.610174 0.561135 0.929131 -0.031849
C10   C     C_R   0.399318 0.428334 0.927380 0.166969
C11   C     C_3   0.232429 0.432040 0.916247 -0.552628
C12   C     C_R   0.218924 0.500033 0.499875 0.930039
C13   C     C_3   0.228256 0.435502 0.070159 -0.113440
C14   C     C_R   0.490238 0.739460 0.499791 0.878492
C15   C     C_R   0.781078 0.500372 0.500154 0.927867
C16   C     C_1   0.065478 0.500433 0.499911 -0.133241
C17   C     C_1   0.934539 0.500544 0.500247 -0.145657
C18   C     C_R   0.461031 0.064750 0.615647 0.107842
C19   C     C_R   0.472471 0.127579 0.494079 -0.165700
C20   C     C_R   0.449100 0.061215 0.370914 -0.073215
H1    H     H_    0.186154 0.345154 0.869598 0.191659
H2    H     H_    0.498002 0.892228 0.827051 0.220442
H3    H     H_    0.669079 0.892576 0.716209 0.197902
H4    H     H_    0.499149 0.114677 0.825899 0.216922
H5    H     H_    0.671729 0.114130 0.717651 0.208095
H6    H     H_    0.193277 0.518345 0.867099 0.245192
N1    N     N_R   0.499010 0.499140 0.142800 -0.154190
N2    N     N_R   0.499010 0.499180 0.857150 -0.144495
O1    O     O_R   0.500020 0.316790 0.614690 -0.612885
O2    O     O_R   0.500000 0.316760 0.385350 -0.609393
O3    O     O_R   0.285350 0.500020 0.614650 -0.623696
O4    O     O_R   0.285340 0.499980 0.385310 -0.610044
O5    O     O_R   0.500000 0.683240 0.614650 -0.651298
O6    O     O_R   0.499980 0.683210 0.385310 -0.601268
O7    O     O_R   0.714660 0.500020 0.614690 -0.633154
O8    O     O_R   0.714650 0.499980 0.385350 -0.633301
Zn1   Zn    Zn3+2 0.500010 0.500020 0.653130 0.943218
Zn2   Zn    Zn3+2 0.499990 0.499980 0.346870 0.986355
C21   C     C_1   0.462083 0.118662 0.239369 0.252642
N3    N     N_1   0.474535 0.162046 0.133777 -0.234907
C22   C     C_1   0.167692 0.553618 0.122418 0.366017
N4    N     N_1   0.118611 0.645554 0.163346 -0.190919
C23   C     C_2   0.155592 0.321050 0.129828 0.441652
H7    H     H_    0.185627 0.229661 0.092301 0.070640
O9    O     O_2   0.061834 0.328970 0.219082 -0.577122
C24   C     C_1   0.396974 0.867244 0.248008 0.310697
N5    N     N_1   0.370800 0.817499 0.146537 -0.184101
C25   C     C_2   0.720716 0.637224 0.148550 0.578135
H8    H     H_    0.821525 0.594132 0.186165 0.093112
O10   O     O_2   0.704971 0.749105 0.161985 -0.581553
C26   C     C_2   0.730192 0.629493 0.856937 0.457107
H9    H     H_    0.704905 0.681388 0.767925 0.108443
O11   O     O_2   0.860587 0.626835 0.895405 -0.609605

loop_
_geom_bond_atom_site_label_1
_geom_bond_atom_site_label_2
_ccdc_geom_bond_type
C14   O6    A    
C7    C10   A    
C23   H7    S    
C8    C25   S    
C13   C22   S    
O4    Zn2   S    
C23   O9    D    
C22   N4    T    
C19   C20   A    
C9    C26   S    
C7    C13   S    
C6    H4    S    
C14   O5    A    
C25   O10   D    
C2    C3    A    
C20   C21   S    
C4    C18   A    
C12   O4    A    
O8    Zn2   S    
C11   C13   S    
C16   C17   T    
C3    C14   S    
N2    Zn1   S    
C1    O1    A    
C25   H8    S    
O7    Zn1   S    
C12   O3    A    
C5    C6    S    
C6    C18   S    
O5    Zn1   S    
C1    C19   S    
C6    H5    S    
O1    Zn1   S    
C10   C11   S    
N1    Zn2   S    
C10   N2    A    
C3    C4    A    
C12   C16   S    
C15   O8    A    
C13   C23   S    
C7    N1    A    
O2    Zn2   S    
C8    C9    A    
C18   C19   A    
C15   O7    A    
C21   N3    T    
C15   C17   S    
C8    N1    A    
C24   N5    T    
C1    O2    A    
C11   H6    S    
O6    Zn2   S    
C2    C20   A    
C11   H1    S    
C2    C24   S    
C5    H2    S    
C26   H9    S    
C9    N2    A    
O3    Zn1   S    
C4    C5    S    
C26   O11   D    
C5    H3    S    
