data_mof_unit_14061.cif
_audit_creation_date              2012-12-10T20:40:54-0500
_audit_creation_method            fapswitch 2.2
_symmetry_space_group_name_H-M    P1
_symmetry_Int_Tables_number       1
_space_group_crystal_system       triclinic
_cell_length_a                    27.647132
_cell_length_b                    10.667199
_cell_length_c                    9.865783
_cell_angle_alpha                 89.95179
_cell_angle_beta                  90.358756
_cell_angle_gamma                 89.830479
_cell_volume                      2909.5208043

loop_
_atom_site_label
_atom_site_type_symbol
_atom_type_description
_atom_site_fract_x
_atom_site_fract_y
_atom_site_fract_z
_atom_type_partial_charge
C1    C     C_R   0.498392 0.259971 0.500064 0.886267
C2    C     C_R   0.276447 0.465100 0.391154 0.426853
C3    C     C_R   0.252713 0.520802 0.501250 0.106291
C4    C     C_R   0.101582 0.535492 0.526939 -0.056837
C5    C     C_R   0.126453 0.423272 0.556746 -0.022519
C6    C     C_R   0.100555 0.316887 0.595433 -0.092448
C7    C     C_R   0.127452 0.641524 0.483893 -0.134997
C8    C     C_R   0.353392 0.506946 0.499763 -0.154964
C9    C     C_R   0.646732 0.506951 0.503262 -0.105865
C10   C     C_R   0.975404 0.447817 0.617370 -0.105395
C11   C     C_R   0.974403 0.644503 0.486780 0.100840
C12   C     C_R   0.406043 0.500884 0.499699 0.934766
C13   C     C_R   0.949488 0.544292 0.550577 0.045627
C14   C     C_R   0.950128 0.366626 0.705849 0.288679
C15   C     C_R   0.899410 0.361283 0.701186 0.405842
C16   C     C_R   0.873312 0.443171 0.613978 -0.197696
C17   C     C_R   0.898479 0.539202 0.545130 -0.101540
C18   C     C_R   0.872739 0.629375 0.468570 0.006100
C19   C     C_R   0.822491 0.621367 0.459360 0.592178
C20   C     C_R   0.822736 0.436078 0.595369 0.620956
C21   C     C_R   0.724027 0.482906 0.391752 0.459987
C22   C     C_R   0.673669 0.477458 0.387456 -0.258750
C23   C     C_R   0.498398 0.740058 0.499930 0.895699
C24   C     C_R   0.670480 0.543331 0.622908 -0.194029
C25   C     C_R   0.720498 0.550238 0.626878 -0.137333
C26   C     C_R   0.747402 0.519869 0.512055 0.199828
C27   C     C_R   0.025595 0.437374 0.593190 0.116470
C28   C     C_R   0.050792 0.541323 0.539529 0.024617
C29   C     C_R   0.025496 0.650152 0.496728 -0.092416
C30   C     C_R   0.050774 0.323458 0.611534 -0.100279
C31   C     C_R   0.102730 0.753181 0.456018 -0.153952
C32   C     C_R   0.947548 0.731478 0.409118 -0.106336
C33   C     C_R   0.897579 0.724397 0.400981 -0.120063
C34   C     C_R   0.594001 0.500996 0.500565 0.897285
C35   C     C_R   0.052535 0.758513 0.463194 0.606656
C36   C     C_R   0.489758 0.063867 0.622981 0.146080
C37   C     C_R   0.490292 0.128726 0.500499 -0.113073
C38   C     C_R   0.481332 0.065093 0.378591 -0.206685
C39   C     C_R   0.481450 0.935526 0.378481 -0.156704
C40   C     C_R   0.490354 0.871448 0.500324 -0.120020
C41   C     C_R   0.489757 0.935999 0.622894 0.147096
C42   C     C_3   0.523501 0.928441 0.741703 -0.465427
C43   C     C_3   0.523519 0.070578 0.741754 -0.463121
C44   C     C_R   0.459074 0.469804 0.070288 0.101377
C45   C     C_R   0.176784 0.420006 0.545238 0.624350
C46   C     C_R   0.541479 0.519029 0.072569 -0.083839
C47   C     C_R   0.541459 0.519271 0.928793 -0.106365
C48   C     C_R   0.459229 0.468580 0.927806 0.135757
C49   C     C_3   0.411821 0.534568 0.918808 -0.487983
C50   C     C_3   0.411601 0.537477 0.072495 0.232599
C51   C     C_R   0.177806 0.633854 0.473177 0.664780
C52   C     C_R   0.279392 0.569744 0.610358 0.414978
C53   C     C_R   0.329548 0.563488 0.608700 -0.250091
C54   C     C_R   0.326706 0.457586 0.391295 -0.225757
H1    H     H_    0.344773 0.411276 0.308306 0.177287
H2    H     H_    0.122185 0.837573 0.429213 0.227361
H3    H     H_    0.964447 0.801673 0.346837 0.224809
H4    H     H_    0.650434 0.567526 0.713197 0.166728
H5    H     H_    0.878532 0.792709 0.339097 0.210597
H6    H     H_    0.738569 0.578706 0.719542 0.178095
H7    H     H_    0.477847 0.114206 0.282844 0.180024
H8    H     H_    0.478189 0.886800 0.282644 0.217450
H9    H     H_    0.505854 0.887374 0.832378 0.227145
H10   H     H_    0.559172 0.886790 0.715531 0.207528
H11   H     H_    0.505902 0.111724 0.832493 0.215142
H12   H     H_    0.559198 0.111659 0.715564 0.213937
H13   H     H_    0.574747 0.537886 0.126816 0.151732
H14   H     H_    0.574679 0.538431 0.875606 0.146931
H15   H     H_    0.414791 0.628214 0.869908 0.240164
H16   H     H_    0.383211 0.473080 0.875815 0.194906
H17   H     H_    0.382182 0.480379 0.116453 0.128597
H18   H     H_    0.118584 0.227958 0.612830 0.211008
H19   H     H_    0.655741 0.448575 0.294698 0.184416
H20   H     H_    0.032059 0.237004 0.633034 0.209030
H21   H     H_    0.349822 0.604012 0.691807 0.191849
N1    N     N_R   0.201185 0.524559 0.504768 -0.332848
N2    N     N_R   0.798904 0.524877 0.520458 -0.352026
N3    N     N_R   0.499670 0.499140 0.142800 -0.086971
N4    N     N_R   0.499670 0.499180 0.857150 -0.096903
O1    O     O_R   0.500010 0.316790 0.614690 -0.612433
O2    O     O_2   0.797196 0.340820 0.648767 -0.456349
O3    O     O_2   0.203335 0.734537 0.432268 -0.490954
O4    O     O_2   0.797205 0.709064 0.389847 -0.512406
O5    O     O_R   0.500000 0.316760 0.385350 -0.627724
O6    O     O_R   0.428760 0.500040 0.614660 -0.628302
O7    O     O_R   0.428750 0.500000 0.385310 -0.595878
O8    O     O_R   0.500000 0.683240 0.614650 -0.621539
O9    O     O_R   0.499990 0.683210 0.385310 -0.582956
O10   O     O_R   0.571250 0.500000 0.614690 -0.630988
O11   O     O_R   0.571240 0.499960 0.385340 -0.629365
O12   O     O_2   0.201326 0.313898 0.575403 -0.500777
Zn1   Zn    Zn3+2 0.500000 0.500020 0.653130 0.960001
Zn2   Zn    Zn3+2 0.500000 0.499980 0.346870 0.995323
Cl1   Cl    Cl    0.250593 0.637729 0.750987 -0.491785
F1    F     F_    0.031633 0.872883 0.447789 -0.653708
Cl2   Cl    Cl    0.243823 0.403821 0.252780 -0.491113
Cl3   Cl    Cl    0.415589 0.693146 0.138617 -0.562162
Cl4   Cl    Cl    0.757096 0.440108 0.247148 -0.514656
Cl5   Cl    Cl    0.870252 0.255630 0.812874 -0.374729
Cl6   Cl    Cl    0.980294 0.290250 0.842451 -0.480962

loop_
_geom_bond_atom_site_label_1
_geom_bond_atom_site_label_2
_ccdc_geom_bond_type
C10   C27   A    
C21   C26   A    
C40   C41   A    
C41   C42   S    
C47   N4    A    
C1    O5    A    
C6    H18   S    
C12   O6    A    
C45   N1    A    
C48   N4    A    
C28   C29   A    
C5    C6    A    
C30   H20   S    
C9    C22   A    
N3    Zn2   S    
C23   C40   S    
C18   C19   A    
C46   C47   A    
C19   N2    A    
C20   O2    S    
O9    Zn2   S    
C16   C17   A    
C52   Cl1   S    
C25   H6    S    
C31   H2    S    
C16   C20   A    
C38   H7    S    
C33   H5    S    
C49   H15   S    
C21   C22   A    
C27   C30   A    
C36   C41   A    
C53   H21   S    
C32   H3    S    
C4    C7    A    
C19   O4    S    
C4    C28   A    
O6    Zn1   S    
C26   N2    S    
C7    C31   A    
C15   C16   A    
C24   C25   A    
C2    C54   A    
C8    C54   A    
C39   C40   A    
C46   N3    A    
C25   C26   A    
C5    C45   A    
O1    Zn1   S    
C50   H17   S    
C34   O11   A    
C37   C38   A    
O7    Zn2   S    
C43   H11   S    
C17   C18   A    
C51   N1    A    
O10   Zn1   S    
C3    N1    S    
C51   O3    S    
N4    Zn1   S    
C20   N2    A    
C48   C49   S    
C6    C30   A    
C11   C32   A    
C49   H16   S    
C10   C14   A    
C9    C34   S    
C31   C35   A    
C42   C43   S    
C42   H10   S    
C47   H14   S    
C52   C53   A    
O11   Zn2   S    
C44   C50   S    
C39   H8    S    
C54   H1    S    
C36   C37   A    
C50   Cl3   S    
C15   Cl5   S    
C4    C5    A    
C10   C13   A    
C8    C53   A    
C3    C52   A    
C9    C24   A    
C14   Cl6   S    
C35   F1    S    
C29   C35   A    
C12   O7    A    
C23   O9    A    
C32   C33   A    
C44   N3    A    
C2    C3    A    
C34   O10   A    
C7    C51   A    
C46   H13   S    
C21   Cl4   S    
C11   C13   A    
C38   C39   A    
C43   H12   S    
C2    Cl2   S    
O5    Zn2   S    
C45   O12   S    
C18   C33   A    
C13   C17   A    
C44   C48   A    
C11   C29   A    
C24   H4    S    
C49   C50   S    
C27   C28   A    
C1    O1    A    
C14   C15   A    
C36   C43   S    
C23   O8    A    
C22   H19   S    
O8    Zn1   S    
C42   H9    S    
C8    C12   S    
C1    C37   S    
