data_mof_unit_50799.cif
_audit_creation_date              2012-12-11T15:30:40-0500
_audit_creation_method            fapswitch 2.2
_symmetry_space_group_name_H-M    P1
_symmetry_Int_Tables_number       1
_space_group_crystal_system       triclinic
_cell_length_a                    6.950797
_cell_length_b                    20.469839
_cell_length_c                    24.447883
_cell_angle_alpha                 89.645077
_cell_angle_beta                  90.467426
_cell_angle_gamma                 89.426862
_cell_volume                      3478.12794874

loop_
_atom_site_label
_atom_site_type_symbol
_atom_type_description
_atom_site_fract_x
_atom_site_fract_y
_atom_site_fract_z
_atom_type_partial_charge
O1    O     O_R   0.507310 0.423620 0.460450 -0.539865
O2    O     O_R   0.170760 0.556060 0.437190 -0.542628
O3    O     O_R   0.004040 0.576380 0.539550 -0.523956
C1    C     C_R   0.338754 0.576205 0.421242 0.705993
O4    O     O_R   0.177350 0.422870 0.454070 -0.541823
O5    O     O_R   0.010680 0.442240 0.556560 -0.526622
C2    C     C_R   0.346437 0.399027 0.443347 0.680027
O6    O     O_R   0.500670 0.557760 0.443440 -0.541277
O7    O     O_3   0.340380 0.506510 0.533610 -0.351413
V1    V     V_3+5 0.064130 0.498790 0.493770 1.482854
O8    O     O_R   0.681170 0.443940 0.562810 -0.535816
C3    C     C_R   0.850932 0.423905 0.578689 0.748834
O9    O     O_R   0.674570 0.577130 0.545930 -0.541851
C4    C     C_R   0.842589 0.601062 0.556536 0.789210
V2    V     V_3+5 0.564560 0.501210 0.506230 1.486816
O10   O     O_3   0.838170 0.493490 0.466390 -0.382286
C5    C     C_R   0.974964 0.838159 0.911559 -0.045625
C6    C     C_R   0.846404 0.661295 0.589314 -0.137050
C7    C     C_R   0.010375 0.720731 0.908534 -0.133962
C8    C     C_R   0.011368 0.778674 0.937977 -0.160805
C9    C     C_R   0.939219 0.839513 0.854860 -0.209164
C10   C     C_R   0.938315 0.780911 0.823611 0.086943
C11   C     C_R   0.974444 0.721290 0.851940 0.119464
C12   C     C_R   0.902510 0.779204 0.765614 0.053914
C13   C     C_R   0.910064 0.718132 0.736803 0.056964
C14   C     C_R   0.937728 0.660473 0.767988 -0.092825
C15   C     C_R   0.971474 0.662245 0.823981 -0.200981
C16   C     C_R   0.853989 0.836295 0.735821 -0.175244
C17   C     C_R   0.810741 0.834199 0.680439 -0.152545
C18   C     C_R   0.820957 0.775772 0.651628 0.069894
C19   C     C_R   0.878973 0.716829 0.678383 -0.027715
C20   C     C_R   0.771998 0.776357 0.595858 -0.143851
C21   C     C_R   0.779561 0.719325 0.565472 -0.265139
C22   C     C_R   0.901819 0.660007 0.644902 0.549442
H1    H     H_    0.993021 0.616471 0.845855 0.164642
H2    H     H_    0.735343 0.720601 0.522865 0.138873
H3    H     H_    0.915970 0.886990 0.836611 0.091325
H4    H     H_    0.925569 0.612422 0.751077 0.234355
H5    H     H_    0.842081 0.883650 0.754431 0.120688
H6    H     H_    0.724328 0.821108 0.575797 0.143694
C23   C     C_3   0.763201 0.257803 0.802176 0.502754
C24   C     C_3   0.118386 0.246232 0.783981 -0.351496
C25   C     C_3   0.099808 0.295663 0.735494 0.567026
H7    H     H_    0.239025 0.211513 0.775957 0.102487
H8    H     H_    0.155284 0.272525 0.822297 0.248453
H9    H     H_    0.209823 0.283309 0.704296 0.093008
C26   C     C_1   0.863673 0.378559 0.624474 -0.116253
C27   C     C_3   0.928775 0.207896 0.791617 -0.062024
C28   C     C_3   0.742870 0.307370 0.753628 0.496553
C29   C     C_3   0.895536 0.292871 0.708961 -0.155447
C30   C     C_3   0.862663 0.221831 0.688894 0.326835
C31   C     C_3   0.883737 0.172204 0.737232 -0.522488
C32   C     C_1   0.877000 0.340203 0.662512 0.155673
C33   C     C_1   0.947279 0.160179 0.837742 0.078465
C34   C     C_1   0.960587 0.121600 0.875623 -0.180990
H10   H     H_    0.748154 0.144174 0.741300 0.137342
H11   H     H_    0.000432 0.136258 0.728409 0.237512
H12   H     H_    0.715427 0.218044 0.671016 0.098859
H13   H     H_    0.625457 0.231060 0.806588 -0.005463
H14   H     H_    0.596333 0.302940 0.735378 -0.015370
C35   C     C_3   0.600737 0.706851 0.271064 -0.423623
C36   C     C_3   0.256791 0.690832 0.242134 -0.322547
C37   C     C_3   0.283996 0.740217 0.194148 -0.346590
H15   H     H_    0.289667 0.640502 0.227755 0.163439
H16   H     H_    0.328910 0.713337 0.156880 0.185509
C38   C     C_1   0.475703 0.878343 0.124740 -0.109731
C39   C     C_3   0.389372 0.707755 0.291282 0.058070
C40   C     C_3   0.629125 0.756280 0.222942 1.048656
C41   C     C_3   0.436346 0.792503 0.209025 -0.049656
C42   C     C_3   0.367028 0.828016 0.261549 0.501411
C43   C     C_3   0.339669 0.778395 0.309472 -0.374029
C44   C     C_1   0.460489 0.839928 0.162732 0.135206
C45   C     C_1   0.364265 0.660298 0.337432 -0.005273
C46   C     C_1   0.348645 0.621806 0.375358 -0.192939
H17   H     H_    0.188494 0.780628 0.324067 0.220624
H18   H     H_    0.699281 0.719038 0.305556 0.161490
C47   C     C_R   0.472805 0.161475 0.089166 -0.098377
C48   C     C_R   0.354443 0.338075 0.411592 -0.048808
C49   C     C_R   0.537785 0.276780 0.095518 -0.147317
C50   C     C_R   0.529868 0.219875 0.064896 -0.146374
C51   C     C_R   0.427627 0.160057 0.145163 -0.145475
C52   C     C_R   0.448988 0.216506 0.178627 0.142581
C53   C     C_R   0.497632 0.275729 0.151700 0.124650
C54   C     C_R   0.422781 0.217057 0.237198 -0.175061
C55   C     C_R   0.426501 0.278251 0.265997 -0.014549
C56   C     C_R   0.468472 0.335553 0.236203 -0.111444
C57   C     C_R   0.506469 0.333923 0.180697 -0.188280
C58   C     C_R   0.401105 0.159072 0.268610 0.534082
C59   C     C_R   0.366662 0.161344 0.324517 0.570419
C60   C     C_R   0.359643 0.220686 0.352316 -0.117491
C61   C     C_R   0.392449 0.280146 0.323925 0.008358
C62   C     C_R   0.323675 0.220765 0.408852 -0.035332
C63   C     C_R   0.320259 0.278870 0.438026 -0.178912
C64   C     C_R   0.389628 0.338958 0.355033 -0.138478
H19   H     H_    0.542014 0.379210 0.160044 0.127280
H20   H     H_    0.291422 0.277631 0.481512 0.126175
H21   H     H_    0.578179 0.321811 0.075279 0.138796
H22   H     H_    0.374493 0.114462 0.160523 0.200227
O11   O     O_R   0.323590 0.942280 0.056590 -0.533372
O12   O     O_R   0.647030 0.077140 0.045940 -0.532896
O13   O     O_R   0.813570 0.057750 0.943430 -0.537507
C65   C     C_R   0.478141 0.101055 0.056632 0.716205
O14   O     O_R   0.653510 0.943950 0.062820 -0.527756
O15   O     O_R   0.820100 0.923600 0.960440 -0.538924
C66   C     C_R   0.485511 0.923855 0.078799 0.723631
O16   O     O_R   0.317060 0.076430 0.039590 -0.535605
O17   O     O_3   0.483830 0.993520 0.966410 -0.375694
V3    V     V_3+5 0.760140 0.001200 0.006230 1.488553
O18   O     O_R   0.149560 0.922820 0.954030 -0.541497
C67   C     C_R   0.981349 0.898940 0.943431 0.688356
O19   O     O_R   0.143080 0.056020 0.937150 -0.539963
C68   C     C_R   0.973316 0.076091 0.921300 0.712743
V4    V     V_3+5 0.259690 0.998730 0.993720 1.460716
O20   O     O_3   0.986120 0.006480 0.033580 -0.357920
F1    F     F_    0.759920 0.370943 0.772247 -0.522041
F2    F     F_    0.796154 0.290633 0.850787 -0.590866
F3    F     F_    0.138460 0.358233 0.753699 -0.580864
F4    F     F_    0.983961 0.603877 0.663842 -0.696037
F5    F     F_    0.992504 0.206039 0.648152 -0.660607
F6    F     F_    0.694222 0.722939 0.177360 -0.691930
H23   H     H_    0.640364 0.656677 0.257622 0.169576
H24   H     H_    0.103707 0.691673 0.255169 0.202177
H25   H     H_    0.143686 0.764346 0.184277 0.259772
H26   H     H_    0.433590 0.792270 0.344520 0.134530
H27   H     H_    0.475148 0.864910 0.273974 0.136905
F7    F     F_    0.768397 0.801158 0.237511 -0.661403
F8    F     F_    0.195329 0.861127 0.251248 -0.596109
H28   H     H_    0.411206 0.386321 0.336832 0.081270
F9    F     F_    0.344583 0.104068 0.352107 -0.608323
H29   H     H_    0.768875 0.879239 0.659784 0.131256
H30   H     H_    0.566925 0.221474 0.021943 0.136155
H31   H     H_    0.477818 0.382922 0.254785 0.113953
F10   F     F_    0.426792 0.098642 0.247536 -0.632508
H32   H     H_    0.297963 0.175638 0.430868 0.188757
H33   H     H_    0.037992 0.675159 0.930148 0.133492
H34   H     H_    0.040446 0.777129 0.981581 0.120162

loop_
_geom_bond_atom_site_label_1
_geom_bond_atom_site_label_2
_ccdc_geom_bond_type
C42   F8    S    
C22   F4    S    
C53   C57   A    
C37   H16   S    
C13   C19   A    
C34   C68   S    
C45   C46   T    
C4    C6    S    
C7    C11   A    
C7    C8    A    
C36   H24   S    
C1    O6    A    
C5    C67   S    
C21   H2    S    
C51   C52   A    
C55   C61   A    
C55   C56   A    
O13   C68   A    
C27   C33   S    
C14   C15   A    
C17   C18   A    
C28   H14   S    
C36   C39   S    
C16   C17   A    
C58   F10   S    
O5    C3    A    
C18   C19   A    
C51   H22   S    
C48   C63   A    
C7    H33   S    
V2    O10   S    
C5    C8    A    
C59   F9    S    
C35   H23   S    
V3    O20   S    
O17   V4    S    
C36   H15   S    
O8    V2    S    
C38   C44   T    
C37   C41   S    
C40   C41   S    
C49   C53   A    
C57   H19   S    
C30   F5    S    
O17   V3    S    
C42   C43   S    
C39   C45   S    
C11   C15   A    
C18   C20   A    
O7    V1    S    
C1    C46   S    
O18   V4    S    
C26   C32   T    
O13   V3    S    
C50   H30   S    
O9    C4    A    
C47   C65   S    
C24   H7    S    
C3    C26   S    
C23   C28   S    
C6    C21   A    
C35   H18   S    
O11   C66   A    
C43   H17   S    
C29   C32   S    
O12   V3    S    
O16   V4    S    
C30   C31   S    
C54   C58   A    
C43   H26   S    
C12   C13   A    
C23   H13   S    
O14   C66   A    
O4    C2    A    
C56   C57   A    
C14   H4    S    
C16   H5    S    
C15   H1    S    
C13   C14   A    
C5    C9    A    
C24   H8    S    
C41   C44   S    
O2    C1    A    
O5    V1    S    
C36   C37   S    
C6    C22   A    
C35   C39   S    
C60   C62   A    
C17   H29   S    
C47   C51   A    
O12   C65   A    
C29   C30   S    
C19   C22   A    
O19   V4    S    
C30   H12   S    
C24   C27   S    
C54   C55   A    
C8    H34   S    
O14   V3    S    
O3    C4    A    
C25   F3    S    
C2    C48   S    
O1    V2    S    
C42   H27   S    
C28   F1    S    
C28   C29   S    
C63   H20   S    
C52   C54   A    
O9    V2    S    
C10   C12   A    
C24   C25   S    
C38   C66   S    
O2    V1    S    
C40   F7    S    
O15   V3    S    
V4    O20   S    
C47   C50   A    
C33   C34   T    
O19   C68   A    
O1    C2    A    
C49   H21   S    
C62   H32   S    
C12   C16   A    
O11   V4    S    
C37   H25   S    
O8    C3    A    
C25   C29   S    
C64   H28   S    
O6    V2    S    
C20   C21   A    
O7    V2    S    
O4    V1    S    
O3    V1    S    
V1    O10   S    
O18   C67   A    
C40   F6    S    
C61   C64   A    
O15   C67   A    
C35   C40   S    
C56   H31   S    
C60   C61   A    
C48   C64   A    
C62   C63   A    
C23   C27   S    
C65   O16   A    
C39   C43   S    
C20   H6    S    
C41   C42   S    
C25   H9    S    
C31   H11   S    
C49   C50   A    
C27   C31   S    
C9    H3    S    
C58   C59   A    
C52   C53   A    
C10   C11   A    
C23   F2    S    
C59   C60   A    
C9    C10   A    
C31   H10   S    
