data_mof_unit_42818.cif
_audit_creation_date              2012-12-10T17:09:57-0500
_audit_creation_method            fapswitch 2.2
_symmetry_space_group_name_H-M    P1
_symmetry_Int_Tables_number       1
_space_group_crystal_system       triclinic
_cell_length_a                    10.855336
_cell_length_b                    12.995829
_cell_length_c                    11.800277
_cell_angle_alpha                 100.006449
_cell_angle_beta                  94.377027
_cell_angle_gamma                 92.895365
_cell_volume                      1631.15745678

loop_
_atom_site_label
_atom_site_type_symbol
_atom_type_description
_atom_site_fract_x
_atom_site_fract_y
_atom_site_fract_z
_atom_type_partial_charge
C1    C     C_R   0.499488 0.299259 0.478458 0.797992
C2    C     C_R   0.524681 0.124588 0.360354 -0.199732
C3    C     C_R   0.487007 0.138395 0.562465 -0.267710
C4    C     C_R   0.263232 0.508003 0.501289 0.787666
C5    C     C_R   0.491388 0.030665 0.553331 0.175322
C6    C     C_R   0.512862 0.969260 0.446476 0.174489
C7    C     C_R   0.517252 0.861444 0.437414 -0.261123
C8    C     C_R   0.478020 0.875500 0.639392 -0.204426
C9    C     C_R   0.474284 0.983420 0.649352 -0.210819
C10   C     C_R   0.389106 0.394508 0.020990 -0.319267
C11   C     C_R   0.398911 0.403341 0.141204 0.380929
C12   C     C_R   0.074133 0.532943 0.611300 0.054252
C13   C     C_R   0.546587 0.547307 0.158327 -0.001535
C14   C     C_R   0.539716 0.538167 0.035862 -0.010590
C15   C     C_R   0.459062 0.461689 0.965809 0.028642
C16   C     C_R   0.501375 0.700728 0.521500 0.803491
C17   C     C_R   0.449763 0.453439 0.842656 0.311034
C18   C     C_R   0.602002 0.595786 0.860977 0.332309
C19   C     C_R   0.610821 0.604570 0.982545 -0.328453
C20   C     C_R   0.737457 0.493944 0.500528 0.796076
C21   C     C_R   0.139961 0.577564 0.718475 -0.155259
C22   C     C_R   0.091343 0.568847 0.823078 0.217558
C23   C     C_R   0.129633 0.516818 0.504857 -0.104447
C24   C     C_R   0.975262 0.517426 0.821034 -0.166857
C25   C     C_R   0.904277 0.483969 0.716409 -0.218906
C26   C     C_R   0.948096 0.501535 0.610685 0.094822
C27   C     C_3   0.353566 0.372449 0.774907 -0.794216
C28   C     C_3   0.674504 0.679792 0.815917 -0.769593
C29   C     C_3   0.328447 0.318526 0.187133 -0.797195
C30   C     C_3   0.164417 0.610030 0.936553 -0.888000
C31   C     C_R   0.055055 0.494423 0.400496 -0.210876
C32   C     C_R   0.927750 0.485382 0.400473 -0.210000
C33   C     C_R   0.872375 0.489182 0.504366 -0.107844
C34   C     C_R   0.499724 0.814177 0.533552 -0.049348
C35   C     C_R   0.502879 0.185802 0.466266 -0.047043
C36   C     C_R   0.529561 0.016667 0.350460 -0.212899
Cu1   Cu    Cu3+1 0.509250 0.507730 0.615930 0.921218
Cu2   Cu    Cu3+1 0.490750 0.492270 0.384070 0.935114
H1    H     H_    0.094981 0.483949 0.318197 0.165435
H2    H     H_    0.261028 0.388861 0.805313 0.208647
H3    H     H_    0.340659 0.367052 0.682197 0.278585
H4    H     H_    0.377013 0.293275 0.788961 0.179663
H5    H     H_    0.749118 0.719086 0.881083 0.183426
H6    H     H_    0.722061 0.649876 0.739494 0.261734
H7    H     H_    0.612771 0.741396 0.798392 0.220004
H8    H     H_    0.327610 0.331977 0.971720 0.155025
H9    H     H_    0.248267 0.283531 0.126004 0.178100
H10   H     H_    0.389639 0.254390 0.196618 0.219953
H11   H     H_    0.288099 0.345840 0.268290 0.260573
H12   H     H_    0.671871 0.665452 0.036324 0.145662
H13   H     H_    0.608695 0.607037 0.212276 0.123540
H14   H     H_    0.256148 0.646523 0.924446 0.233019
H15   H     H_    0.112380 0.669720 0.988830 0.233445
H16   H     H_    0.179885 0.544833 0.984536 0.238358
H17   H     H_    0.872657 0.473834 0.318236 0.165176
H18   H     H_    0.534287 0.814501 0.355399 0.147764
H19   H     H_    0.461951 0.840076 0.713893 0.148344
H20   H     H_    0.228117 0.621072 0.722185 0.164355
H21   H     H_    0.938591 0.504783 0.900726 0.146851
H22   H     H_    0.817756 0.440705 0.720406 0.182143
H23   H     H_    0.546713 0.970467 0.268155 0.134039
H24   H     H_    0.457130 0.029726 0.731607 0.133478
H25   H     H_    0.539945 0.160090 0.285767 0.151253
H26   H     H_    0.471149 0.185074 0.644666 0.151578
N1    N     N_R   0.523180 0.519350 0.790130 -0.183514
N2    N     N_R   0.476820 0.480650 0.209890 -0.176794
O1    O     O_R   0.506570 0.354460 0.582000 -0.591904
O2    O     O_R   0.490940 0.341410 0.386200 -0.585250
O3    O     O_R   0.327470 0.506530 0.597920 -0.599296
O4    O     O_R   0.311840 0.493480 0.402120 -0.589699
O5    O     O_R   0.509060 0.658590 0.613800 -0.590713
O6    O     O_R   0.493430 0.645540 0.418000 -0.585129
O7    O     O_R   0.688160 0.506520 0.597880 -0.600767
O8    O     O_R   0.672530 0.493470 0.402080 -0.581858

loop_
_geom_bond_atom_site_label_1
_geom_bond_atom_site_label_2
_ccdc_geom_bond_type
C2    C35   A    
Cu2   O4    S    
Cu1   O3    S    
C16   O6    A    
C4    O4    A    
C29   H11   S    
C3    H26   S    
C18   N1    A    
C30   H16   S    
C12   C23   A    
C29   H9    S    
C10   C15   A    
C5    C6    A    
C1    O2    A    
C18   C19   A    
C30   H14   S    
C16   C34   S    
C13   H13   S    
Cu2   N2    S    
C31   H1    S    
C8    C9    A    
Cu1   N1    S    
C10   H8    S    
C25   H22   S    
C32   H17   S    
C11   N2    A    
C21   C22   A    
C16   O5    A    
C7    H18   S    
C4    O3    A    
C13   N2    A    
C30   H15   S    
Cu2   O6    S    
C28   H7    S    
C29   H10   S    
C9    H24   S    
C17   C27   S    
C18   C28   S    
C24   C25   A    
C4    C23   S    
C25   C26   A    
C12   C21   A    
C28   H6    S    
C12   C26   A    
C23   C31   A    
C5    C9    A    
Cu1   Cu2   S    
C8    H19   S    
C27   H3    S    
C26   C33   A    
C31   C32   A    
C3    C35   A    
C27   H2    S    
C20   O8    A    
C8    C34   A    
C20   C33   S    
Cu2   O2    S    
Cu1   O5    S    
C7    C34   A    
C22   C24   A    
C36   H23   S    
C2    H25   S    
C1    C35   S    
Cu2   O8    S    
C2    C36   A    
C15   C17   A    
Cu1   O7    S    
C22   C30   S    
C14   C19   A    
C27   H4    S    
C3    C5    A    
C6    C7    A    
C28   H5    S    
C17   N1    A    
C32   C33   A    
C21   H20   S    
C19   H12   S    
C24   H21   S    
Cu1   O1    S    
C1    O1    A    
C6    C36   A    
C20   O7    A    
C10   C11   A    
C11   C29   S    
C14   C15   A    
C13   C14   A    
