data_mof_unit_37660.cif
_audit_creation_date              2012-12-11T15:29:22-0500
_audit_creation_method            fapswitch 2.2
_symmetry_space_group_name_H-M    P1
_symmetry_Int_Tables_number       1
_space_group_crystal_system       triclinic
_cell_length_a                    13.513687
_cell_length_b                    13.52328
_cell_length_c                    27.602354
_cell_angle_alpha                 90.600743
_cell_angle_beta                  90.218034
_cell_angle_gamma                 60.079331
_cell_volume                      4371.74484714

loop_
_atom_site_label
_atom_site_type_symbol
_atom_type_description
_atom_site_fract_x
_atom_site_fract_y
_atom_site_fract_z
_atom_type_partial_charge
C1    C     C_R   0.620314 0.100513 0.569868 0.546713
C2    C     C_1   0.628835 0.734892 0.616157 0.079145
C3    C     C_3   0.661844 0.573636 0.766880 -0.138103
C4    C     C_3   0.683761 0.647045 0.803755 -0.023829
C5    C     C_3   0.569882 0.684417 0.743120 0.283284
C6    C     C_3   0.660213 0.684563 0.709830 0.042780
C7    C     C_3   0.590435 0.757412 0.780752 0.007396
C8    C     C_3   0.682539 0.757000 0.746995 -0.083103
C9    C     C_1   0.692360 0.626637 0.855846 0.009441
C10   C     C_1   0.645374 0.708579 0.658047 0.090238
C11   C     C_3   0.114151 0.113712 0.739942 -0.044862
C12   C     C_R   0.599269 0.780025 0.568501 0.554015
C13   C     C_3   0.210779 0.050422 0.777029 0.223315
C14   C     C_1   0.103689 0.196108 0.901808 0.047895
C15   C     C_1   0.233099 0.137373 0.617870 0.086761
C16   C     C_3   0.062917 0.223571 0.771737 -0.212262
C17   C     C_3   0.160927 0.159580 0.808367 -0.025515
C18   C     C_3   0.138812 0.261593 0.744684 0.213447
C19   C     C_3   0.187877 0.152996 0.712845 0.004972
C20   C     C_3   0.235120 0.198402 0.781684 0.274123
C21   C     C_3   0.284899 0.089614 0.749828 0.246667
C22   C     C_1   0.135862 0.173849 0.860415 0.061125
C23   C     C_R   0.278649 0.121414 0.569637 0.547976
C24   C     C_1   0.207592 0.146670 0.660211 0.121987
C25   C     C_3   0.675110 0.249501 0.735674 -0.000074
C26   C     C_3   0.577363 0.280251 0.771869 0.210369
C27   C     C_1   0.691980 0.209477 0.901096 0.049608
C28   C     C_1   0.635399 0.129340 0.618090 0.072601
C29   C     C_3   0.762163 0.159395 0.770930 -0.186607
C30   C     C_3   0.662968 0.189697 0.806787 0.021701
C31   C     C_3   0.738711 0.068725 0.747415 0.008839
C32   C     C_3   0.653023 0.158931 0.712461 -0.007873
C33   C     C_3   0.640975 0.098979 0.783534 0.243037
C34   C     C_R   0.621745 0.101138 0.431635 0.526255
C35   C     C_3   0.553960 0.189472 0.748265 -0.033009
C36   C     C_1   0.674565 0.200883 0.858935 0.063197
C37   C     C_1   0.644718 0.144855 0.660350 0.073785
C38   C     C_R   0.630964 0.739013 0.380568 0.027819
C39   C     C_R   0.674538 0.793722 0.351906 -0.105019
C40   C     C_R   0.684919 0.775599 0.302593 -0.066266
C41   C     C_R   0.657229 0.698602 0.281410 0.052593
C42   C     C_R   0.615267 0.641913 0.309765 -0.095027
C43   C     C_R   0.600692 0.663307 0.359455 -0.110204
C44   C     C_R   0.574178 0.699534 0.202300 -0.144357
C45   C     C_R   0.600622 0.779040 0.430066 0.540753
C46   C     C_R   0.584798 0.676310 0.153100 -0.129353
C47   C     C_R   0.783183 0.631855 0.156082 0.257204
C48   C     C_R   0.774035 0.649020 0.206212 0.270134
C49   C     C_R   0.669453 0.680859 0.229272 -0.027750
C50   C     C_R   0.690750 0.635053 0.130130 -0.024213
C51   C     C_R   0.215522 0.141105 0.385283 -0.003878
C52   C     C_R   0.211752 0.051335 0.361275 -0.078642
C53   C     C_R   0.175586 0.062469 0.312976 0.009778
C54   C     C_R   0.157645 0.160391 0.286623 -0.022918
C55   C     C_R   0.134058 0.257684 0.314721 -0.121232
C56   C     C_R   0.277958 0.120441 0.431165 0.551347
C57   C     C_R   0.166619 0.247461 0.363095 -0.091965
C58   C     C_R   0.169727 0.255235 0.207813 0.010689
C59   C     C_R   0.135401 0.277764 0.159283 -0.100775
C60   C     C_R   0.140216 0.097460 0.152562 0.223411
C61   C     C_R   0.168570 0.078365 0.201446 -0.107990
C62   C     C_R   0.164356 0.164966 0.231786 -0.056527
C63   C     C_R   0.111554 0.203676 0.132409 -0.004786
C64   C     C_R   0.639321 0.141973 0.384763 -0.016004
C65   C     C_R   0.542603 0.212549 0.355767 0.223499
C66   C     C_R   0.555466 0.219363 0.306663 -0.090666
C67   C     C_3   0.752168 0.575122 0.733218 -0.036386
C68   C     C_R   0.663217 0.166456 0.285571 -0.068389
C69   C     C_R   0.760554 0.110987 0.314660 -0.106113
C70   C     C_R   0.750162 0.097117 0.364383 -0.032629
C71   C     C_R   0.733660 0.083228 0.202173 0.004280
C72   C     C_R   0.738758 0.103179 0.152927 -0.076794
C73   C     C_R   0.604760 0.306281 0.164335 -0.004342
C74   C     C_R   0.606406 0.287473 0.213855 -0.085098
C75   C     C_R   0.671114 0.177957 0.233200 -0.038781
C76   C     C_R   0.680005 0.214164 0.134054 -0.045519
C77   C     C_R   0.050791 0.234260 0.948377 0.541898
C78   C     C_3   0.776364 0.645812 0.770868 -0.116803
C79   C     C_R   0.712353 0.560930 0.946273 0.549179
C80   C     C_R   0.722731 0.224582 0.949059 0.543212
C81   C     C_R   0.049241 0.242937 0.086170 0.564552
C82   C     C_R   0.709306 0.573165 0.084069 0.563105
C83   C     C_R   0.719090 0.232891 0.087188 0.528479
C84   C     C_1   0.699475 0.603082 0.898066 0.040379
Cr1   Cr    Cr6+3 0.417550 0.169090 0.500530 1.123031
Cr2   Cr    Cr6+3 0.669180 0.913420 0.499920 1.083201
Cr3   Cr    Cr6+3 0.413260 0.917540 0.499520 1.087033
Cr4   Cr    Cr6+3 0.909770 0.175810 0.018240 1.128018
Cr5   Cr    Cr6+3 0.913300 0.427650 0.016090 1.121839
Cr6   Cr    Cr6+3 0.657770 0.431010 0.016900 1.071817
H1    H     H_    0.861867 0.629096 0.782778 0.185238
H2    H     H_    0.972442 0.275686 0.783184 0.111467
H3    H     H_    0.469693 0.201792 0.737164 0.222172
H4    H     H_    0.845644 0.149985 0.781509 0.109626
H5    H     H_    0.694293 0.856078 0.367111 0.146772
H6    H     H_    0.492541 0.727805 0.219759 0.174365
H7    H     H_    0.511624 0.683732 0.133673 0.203710
H8    H     H_    0.713219 0.822764 0.280750 0.145542
H9    H     H_    0.592478 0.582924 0.293314 0.144367
H10   H     H_    0.564406 0.622872 0.381107 0.147673
H11   H     H_    0.235899 0.972852 0.380345 0.188334
H12   H     H_    0.127984 0.353063 0.142325 0.224323
H13   H     H_    0.691167 0.831941 0.737687 0.208478
H14   H     H_    0.195114 0.994216 0.214238 0.159597
H15   H     H_    0.095921 0.341584 0.298999 0.173073
H16   H     H_    0.158757 0.321362 0.382247 0.190416
H17   H     H_    0.792176 0.031941 0.129192 0.204635
H18   H     H_    0.479869 0.266491 0.284559 0.157491
H19   H     H_    0.555109 0.359052 0.237829 0.176796
H20   H     H_    0.523998 0.830766 0.801792 0.240551
H21   H     H_    0.844131 0.077595 0.298272 0.166594
H22   H     H_    0.653931 0.498776 0.777065 0.146162
O1    O     O_R   0.301780 0.195490 0.553940 -0.490564
O2    O     O_R   0.658840 0.818280 0.449970 -0.499368
O3    O     O_R   0.503160 0.801780 0.445740 -0.503645
O4    O     O_R   0.319320 0.022190 0.450230 -0.510037
O5    O     O_3   0.499990 0.000010 0.499990 -0.282219
O6    O     O_R   0.819250 0.149410 0.965240 -0.494512
O7    O     O_R   0.006940 0.180310 0.968270 -0.490095
O8    O     O_R   0.028420 0.332670 0.963010 -0.489728
O9    O     O_R   0.810130 0.520390 0.966030 -0.493538
O10   O     O_R   0.636050 0.541380 0.962520 -0.484548
O11   O     O_R   0.666480 0.323610 0.968170 -0.488034
O12   O     O_R   0.522450 0.158840 0.550250 -0.497656
O13   O     O_R   0.817280 0.156800 0.072180 -0.477098
O14   O     O_R   0.005110 0.187160 0.067410 -0.437882
O15   O     O_R   0.026450 0.340060 0.069950 -0.490900
O16   O     O_R   0.808300 0.527240 0.065170 -0.444826
O17   O     O_R   0.634070 0.548770 0.069460 -0.514547
O18   O     O_R   0.664650 0.330470 0.067300 -0.523874
O19   O     O_3   0.826940 0.344820 0.017080 -0.288760
O20   O     O_R   0.694460 0.003360 0.553820 -0.479151
O21   O     O_R   0.657750 0.819520 0.549120 -0.485186
O22   O     O_R   0.501990 0.803120 0.552700 -0.485542
O23   O     O_R   0.318230 0.023430 0.549370 -0.484858
O24   O     O_R   0.302950 0.194150 0.446980 -0.454436
O25   O     O_R   0.523540 0.157600 0.451100 -0.430141
O26   O     O_R   0.695630 0.002030 0.446860 -0.536347
Cl1   Cl    Cl    0.312287 0.255108 0.812429 -0.424728
Cl2   Cl    Cl    0.100378 0.400344 0.723813 -0.480775
Cl3   Cl    Cl    0.470637 0.421078 0.788785 -0.448842
C85   C     C_2   0.693970 0.329490 0.705408 0.224158
H23   H     H_    0.629995 0.419150 0.704196 0.156562
O27   O     O_2   0.778537 0.292562 0.679721 -0.459093
Cl4   Cl    Cl    0.618818 0.000759 0.817779 -0.546555
C86   C     C_2   0.829869 0.949562 0.735114 0.270991
H24   H     H_    0.884613 0.894388 0.763518 0.141102
O28   O     O_2   0.843040 0.913949 0.693489 -0.448984
C87   C     C_2   0.838774 0.474308 0.705013 0.329790
H25   H     H_    0.885359 0.392805 0.722331 0.143046
O29   O     O_2   0.856148 0.482554 0.662297 -0.421252
Cl5   Cl    Cl    0.897483 0.618884 0.240176 -0.467012
Cl6   Cl    Cl    0.912199 0.604382 0.127804 -0.430495
C88   C     C_2   0.224598 0.316583 0.229921 0.250460
H26   H     H_    0.281083 0.280709 0.260764 0.121769
O30   O     O_2   0.209403 0.406537 0.213387 -0.409779
C89   C     C_2   0.139722 0.981453 0.295240 0.262577
H27   H     H_    0.069252 0.009751 0.269933 0.124359
O31   O     O_2   0.186037 0.883334 0.309680 -0.436401
Cl7   Cl    Cl    0.142548 0.984840 0.118749 -0.521327
Cl8   Cl    Cl    0.401023 0.295156 0.376960 -0.572616
C90   C     C_2   0.792451 0.963945 0.220071 0.250848
H28   H     H_    0.781871 0.945597 0.257129 0.116448
O32   O     O_2   0.852964 0.883857 0.193305 -0.405703
C91   C     C_2   0.522698 0.421848 0.146027 0.279184
H29   H     H_    0.490902 0.433512 0.109241 0.151944
O33   O     O_2   0.485724 0.505577 0.172622 -0.497430
C92   C     C_2   0.854997 0.039871 0.394474 0.259548
H30   H     H_    0.849590 0.047165 0.433650 0.139613
O34   O     O_2   0.949247 0.985304 0.375813 -0.468963
Cl9   Cl    Cl    0.435407 0.706140 0.722809 -0.411846
Cl10  Cl    Cl    0.257055 0.912551 0.801044 -0.464243
C93   C     C_2   0.047252 0.064241 0.717425 0.335626
H31   H     H_    0.012864 0.023646 0.740095 0.125196
O35   O     O_2   0.032635 0.067559 0.673703 -0.418361
Cl11  Cl    Cl    0.429480 0.005677 0.731219 -0.582960

loop_
_geom_bond_atom_site_label_1
_geom_bond_atom_site_label_2
_ccdc_geom_bond_type
C44   C49   A    
C58   C62   A    
C66   C68   A    
C91   H29   S    
C71   C90   S    
C81   O14   A    
C67   C87   S    
C11   C13   S    
C41   C42   A    
C25   C85   S    
C72   C76   A    
C77   O8    A    
C2    C12   S    
C74   H19   S    
C7    C8    S    
C53   C54   A    
C68   C75   S    
C79   O9    A    
C11   C19   S    
C89   H27   S    
C63   C81   S    
C60   C63   A    
C20   Cl1   S    
C19   C21   S    
C18   C19   S    
C87   O29   D    
C86   O28   D    
C40   H8    S    
C5    C6    S    
C92   O34   D    
C17   C20   S    
Cr1   O12   S    
C51   C56   S    
C73   C74   A    
C14   C77   S    
C38   C45   S    
Cr4   O14   S    
C58   C88   S    
C31   C86   S    
C45   O2    A    
C13   Cl10  S    
C31   C32   S    
C16   C17   S    
C1    C28   S    
Cr5   O8    S    
C51   C57   A    
C64   C70   A    
C26   Cl3   S    
Cr3   O3    S    
C1    O20   A    
C25   C32   S    
C15   C23   S    
C57   H16   S    
C89   O31   D    
C12   O22   A    
C81   O15   A    
C8    C78   S    
Cr6   O10   S    
Cr3   O22   S    
C61   C62   A    
C67   C78   S    
C83   O13   A    
C4    C7    S    
C76   C83   S    
C41   C49   S    
C56   O24   A    
C44   C46   A    
C47   C50   A    
C90   O32   D    
C35   H3    S    
C25   C29   S    
C38   C39   A    
C79   O10   A    
C80   O6    A    
C52   H11   S    
C11   C93   S    
C74   C75   A    
C86   H24   S    
C51   C52   A    
C32   C35   S    
Cr3   O23   S    
C61   H14   S    
C43   H10   S    
C83   O18   A    
C73   C91   S    
C27   C80   S    
C39   C40   A    
C5    C7    S    
C68   C69   A    
C6    C8    S    
C54   C62   S    
C3    C5    S    
C58   C59   A    
C93   H31   S    
C34   O26   A    
C60   C61   A    
Cr4   O7    S    
C18   Cl2   S    
C4    C78   S    
C29   C30   S    
C44   H6    S    
C70   C92   S    
C23   O1    A    
C11   C16   S    
C45   O3    A    
Cr2   O21   S    
C47   C48   A    
C72   H17   S    
C3    H22   S    
C21   Cl11  S    
C82   O16   A    
C34   C64   S    
C56   O4    A    
C13   C21   S    
C15   C24   T    
C32   C37   S    
C82   O17   A    
Cr1   O5    S    
C39   H5    S    
Cr3   O4    S    
C93   O35   D    
C33   Cl4   S    
Cr6   O17   S    
Cr6   O19   S    
C16   C18   S    
C40   C41   A    
C46   H7    S    
C55   H15   S    
C26   C30   S    
C12   O21   A    
C55   C57   A    
C29   H4    S    
C27   C36   T    
C73   C76   A    
C85   O27   D    
C9    C84   T    
C42   C43   A    
Cr4   O6    S    
C3    C4    S    
C2    C10   T    
Cr1   O25   S    
C52   C53   A    
C50   C82   S    
C90   H28   S    
Cr5   O15   S    
C54   C55   A    
C92   H30   S    
C31   C33   S    
C5    Cl9   S    
C30   C33   S    
C59   H12   S    
C88   O30   D    
C3    C67   S    
C60   Cl7   S    
C66   H18   S    
C53   C89   S    
C77   O7    A    
C6    C10   S    
C16   H2    S    
C23   O23   A    
C78   H1    S    
C47   Cl6   S    
C46   C50   A    
C34   O25   A    
C59   C63   A    
C17   C22   S    
Cr5   O19   S    
C7    H20   S    
C30   C36   S    
Cr2   O2    S    
C64   C65   A    
C14   C22   T    
C48   Cl5   S    
C19   C24   S    
C25   C26   S    
C1    O12   A    
C38   C43   A    
C29   C31   S    
C6    C67   S    
C87   H25   S    
C71   C75   A    
C69   H21   S    
Cr2   O20   S    
C79   C84   S    
Cr5   O9    S    
C28   C37   T    
C48   C49   A    
Cr1   O1    S    
C33   C35   S    
C26   C35   S    
Cr2   O5    S    
C18   C20   S    
Cr3   O5    S    
C69   C70   A    
C8    H13   S    
Cr4   O13   S    
Cr2   O26   S    
Cr1   O24   S    
C13   C17   S    
Cr6   O18   S    
C88   H26   S    
C71   C72   A    
C20   C21   S    
C91   O33   D    
C65   C66   A    
C65   Cl8   S    
C85   H23   S    
Cr4   O19   S    
C4    C9    S    
C42   H9    S    
C80   O11   A    
Cr6   O11   S    
Cr5   O16   S    
