data_mof_unit_18110.cif
_audit_creation_date              2012-12-10T18:50:44-0500
_audit_creation_method            fapswitch 2.2
_symmetry_space_group_name_H-M    P1
_symmetry_Int_Tables_number       1
_space_group_crystal_system       triclinic
_cell_length_a                    10.658344
_cell_length_b                    9.847774
_cell_length_c                    15.771995
_cell_angle_alpha                 89.920521
_cell_angle_beta                  90.156986
_cell_angle_gamma                 89.850374
_cell_volume                      1655.43031456

loop_
_atom_site_label
_atom_site_type_symbol
_atom_type_description
_atom_site_fract_x
_atom_site_fract_y
_atom_site_fract_z
_atom_type_partial_charge
C1    C     C_R   0.260305 0.500180 0.499864 0.877729
C2    C     C_3   0.648962 0.482706 0.946950 0.175524
C3    C     C_3   0.653222 0.491882 0.048853 0.161380
C4    C     C_1   0.504239 0.500177 0.825348 -0.012361
C5    C     C_1   0.508062 0.500790 0.174781 -0.051768
C6    C     C_1   0.504103 0.500330 0.249835 -0.206147
C7    C     C_R   0.066383 0.414798 0.443272 -0.174342
C8    C     C_R   0.065389 0.586349 0.554581 -0.246431
C9    C     C_R   0.937547 0.414107 0.441875 0.051648
C10   C     C_R   0.936202 0.585177 0.555572 0.086450
C11   C     C_R   0.872695 0.499151 0.498930 -0.061702
C12   C     C_R   0.128490 0.500553 0.499216 -0.071607
C13   C     C_R   0.580741 0.071583 0.550808 -0.079574
C14   C     C_R   0.580714 0.927736 0.550830 -0.069475
C15   C     C_R   0.500325 0.500082 0.338372 0.892352
C16   C     C_R   0.419289 0.928419 0.449087 -0.070760
C17   C     C_R   0.419277 0.072269 0.449094 -0.063268
C18   C     C_R   0.739903 0.499712 0.499244 0.890233
C19   C     C_R   0.500240 0.499926 0.661657 0.912497
C20   C     C_3   0.441929 0.631837 0.049663 -0.162338
C21   C     C_3   0.430914 0.378765 0.051067 -0.116183
C22   C     C_3   0.426450 0.378063 0.952194 -0.137215
C23   C     C_3   0.452661 0.639343 0.951459 -0.123404
C24   C     C_1   0.502221 0.499844 0.750247 -0.196600
C25   C     C_3   0.512103 0.501242 0.083113 0.203158
C26   C     C_3   0.506898 0.500824 0.917016 0.186606
H1    H     H_    0.354776 0.874228 0.408381 0.128688
H2    H     H_    0.354737 0.127011 0.408403 0.127378
H3    H     H_    0.340554 0.622236 0.066341 0.158299
H4    H     H_    0.333799 0.395924 0.075225 0.157199
H5    H     H_    0.466312 0.281538 0.928177 0.166995
H6    H     H_    0.515897 0.724082 0.934754 0.152617
H7    H     H_    0.118182 0.350385 0.399869 0.151487
H8    H     H_    0.116331 0.651422 0.598067 0.148147
H9    H     H_    0.645325 0.125777 0.591463 0.132417
H10   H     H_    0.645234 0.873009 0.591533 0.137835
N1    N     N_R   0.499970 0.857200 0.499980 -0.080934
N2    N     N_R   0.499970 0.142800 0.499980 -0.081046
O1    O     O_R   0.316750 0.614620 0.499990 -0.623223
O2    O     O_R   0.316750 0.385380 0.499990 -0.623077
O3    O     O_R   0.499990 0.614720 0.377140 -0.618774
O4    O     O_R   0.499990 0.385280 0.377140 -0.615075
O5    O     O_R   0.683220 0.614710 0.500000 -0.598547
O6    O     O_R   0.683220 0.385290 0.500000 -0.639309
O7    O     O_R   0.499980 0.614620 0.622860 -0.614660
O8    O     O_R   0.499980 0.385380 0.622860 -0.611430
Zn1   Zn    Zn3+2 0.499980 0.653120 0.500000 0.952706
Zn2   Zn    Zn3+2 0.499980 0.346880 0.500000 0.944356
N3    N     N_3   0.330435 0.673621 0.913559 -0.483003
H11   H     H_    0.296757 0.762448 0.941925 0.181735
H12   H     H_    0.343341 0.698498 0.849709 0.191870
N4    N     N_3   0.295303 0.377225 0.922519 -0.471993
H13   H     H_    0.242555 0.454527 0.950382 0.219272
H14   H     H_    0.290770 0.387734 0.856670 0.205257
N5    N     N_3   0.470128 0.247488 0.087273 -0.443272
H15   H     H_    0.395361 0.179507 0.081307 0.181192
H16   H     H_    0.543979 0.204685 0.053464 0.198348
N6    N     N_3   0.485865 0.758193 0.089235 -0.487225
H17   H     H_    0.438738 0.840024 0.061099 0.181228
H18   H     H_    0.458392 0.759248 0.152814 0.199609
N7    N     N_3   0.728033 0.609829 0.077213 -0.487522
H19   H     H_    0.727231 0.616880 0.143347 0.195225
H20   H     H_    0.694642 0.701530 0.053417 0.210398
N8    N     N_3   0.715364 0.370225 0.084269 -0.469769
H21   H     H_    0.716830 0.374494 0.150483 0.199297
H22   H     H_    0.809708 0.370364 0.066103 0.184934
N9    N     N_3   0.729818 0.586255 0.906228 -0.453075
H23   H     H_    0.822379 0.575087 0.927441 0.193393
H24   H     H_    0.704137 0.686293 0.917801 0.160143
N10   N     N_3   0.696056 0.350368 0.915131 -0.451373
H25   H     H_    0.663904 0.267381 0.949448 0.172120
H26   H     H_    0.794007 0.346342 0.918722 0.186488
N11   N     N_3   0.875491 0.330324 0.380420 -0.464656
H27   H     H_    0.826981 0.253278 0.411849 0.217091
H28   H     H_    0.811839 0.389839 0.345987 0.176455
N12   N     N_3   0.869630 0.668219 0.615173 -0.451650
H29   H     H_    0.899036 0.641312 0.676247 0.181358
H30   H     H_    0.894919 0.769390 0.604756 0.181678

loop_
_geom_bond_atom_site_label_1
_geom_bond_atom_site_label_2
_ccdc_geom_bond_type
N5    H15   S    
C11   C18   S    
N11   H28   S    
N11   H27   S    
C19   O8    A    
C3    N8    S    
O1    Zn1   S    
N12   H30   S    
C13   H9    S    
C14   H10   S    
C5    C6    T    
C4    C24   T    
C23   N3    S    
C20   C25   S    
N6    H18   S    
O2    Zn2   S    
C23   C26   S    
N7    H20   S    
C1    O2    A    
C6    C15   S    
C10   N12   S    
C16   C17   A    
N3    H12   S    
N10   H25   S    
C13   C14   A    
N1    Zn1   S    
N2    Zn2   S    
C16   N1    A    
C16   H1    S    
C3    N7    S    
C21   C22   S    
C7    H7    S    
C1    C12   S    
C9    N11   S    
N4    H14   S    
C20   H3    S    
O7    Zn1   S    
C7    C12   A    
O8    Zn2   S    
C22   H5    S    
N9    H23   S    
C3    C25   S    
N12   H29   S    
C15   O3    A    
C2    N9    S    
C21   N5    S    
C8    H8    S    
N6    H17   S    
N9    H24   S    
N8    H22   S    
C18   O6    A    
C20   C23   S    
C8    C12   A    
O3    Zn1   S    
C2    C26   S    
O4    Zn2   S    
C9    C11   A    
C13   N2    A    
C5    C25   S    
N5    H16   S    
C20   N6    S    
N4    H13   S    
C22   N4    S    
C7    C9    A    
C21   C25   S    
C17   H2    S    
C15   O4    A    
C4    C26   S    
C19   O7    A    
C21   H4    S    
C23   H6    S    
C2    C3    S    
C18   O5    A    
N8    H21   S    
C14   N1    A    
C19   C24   S    
C17   N2    A    
N7    H19   S    
C10   C11   A    
C1    O1    A    
C8    C10   A    
N3    H11   S    
C22   C26   S    
N10   H26   S    
C2    N10   S    
O5    Zn1   S    
O6    Zn2   S    
