data_mof_unit_25810.cif
_audit_creation_date              2012-12-10T17:21:38-0500
_audit_creation_method            fapswitch 2.2
_symmetry_space_group_name_H-M    P1
_symmetry_Int_Tables_number       1
_space_group_crystal_system       triclinic
_cell_length_a                    10.824224
_cell_length_b                    10.824058
_cell_length_c                    9.686905
_cell_angle_alpha                 89.162834
_cell_angle_beta                  90.402855
_cell_angle_gamma                 95.998458
_cell_volume                      1128.58555232

loop_
_atom_site_label
_atom_site_type_symbol
_atom_type_description
_atom_site_fract_x
_atom_site_fract_y
_atom_site_fract_z
_atom_type_partial_charge
C1    C     C_R   0.493778 0.262954 0.500962 0.774065
C2    C     C_3   0.877669 0.488099 0.501734 -0.017952
C3    C     C_3   0.948656 0.621693 0.478714 -0.038201
C4    C     C_3   0.913381 0.398607 0.387320 -0.318292
C5    C     C_R   0.299633 0.106800 0.649360 -0.180900
C6    C     C_R   0.211232 0.031758 0.724771 -0.136333
C7    C     C_R   0.216086 0.904010 0.731019 -0.134489
C8    C     C_R   0.308064 0.850359 0.659938 -0.183204
C9    C     C_R   0.397895 0.923931 0.580615 0.053832
C10   C     C_R   0.395149 0.054576 0.578609 0.107742
C11   C     C_R   0.486448 0.129099 0.502954 -0.124987
C12   C     C_R   0.260006 0.488685 0.499300 0.730866
C13   C     C_R   0.575194 0.076211 0.427537 -0.247992
C14   C     C_R   0.577113 0.948751 0.425925 0.140296
C15   C     C_R   0.488851 0.871224 0.501128 -0.116585
C16   C     C_R   0.662068 0.668872 0.149755 -0.130311
C17   C     C_R   0.745628 0.755914 0.088232 -0.270064
C18   C     C_R   0.748847 0.765219 0.949095 -0.246373
C19   C     C_R   0.672788 0.683924 0.866478 0.194472
C20   C     C_R   0.582407 0.588123 0.926244 0.197900
C21   C     C_R   0.580070 0.585335 0.075660 0.163707
C22   C     C_R   0.425160 0.416955 0.073984 -0.059469
C23   C     C_R   0.495793 0.736998 0.499659 0.832890
C24   C     C_R   0.424555 0.417407 0.926901 -0.062354
C25   C     C_R   0.739622 0.495886 0.500664 0.769944
C26   C     C_3   0.067924 0.437599 0.640982 -0.412651
C27   C     C_3   0.924892 0.438822 0.644601 -0.014398
C28   C     C_3   0.089539 0.617194 0.476419 -0.375505
C29   C     C_3   0.056953 0.395433 0.379049 0.358442
C30   C     C_3   0.121526 0.482713 0.496888 0.009131
Cu1   Cu    Cu3+1 0.499990 0.499990 0.640660 0.939694
Cu2   Cu    Cu3+1 0.500010 0.500010 0.359340 0.930096
H1    H     H_    0.108739 0.500260 0.723435 0.173699
H2    H     H_    0.875984 0.426092 0.285603 0.180657
H3    H     H_    0.132473 0.661941 0.381952 0.192117
H4    H     H_    0.138620 0.072928 0.778422 0.131947
H5    H     H_    0.147476 0.845893 0.790082 0.124915
H6    H     H_    0.364720 0.347242 0.128628 0.129203
H7    H     H_    0.809711 0.816955 0.148576 0.184355
H8    H     H_    0.816013 0.834939 0.902973 0.148567
H9    H     H_    0.362407 0.349265 0.873116 0.132369
H10   H     H_    0.904177 0.505262 0.725882 0.161689
H11   H     H_    0.130662 0.674623 0.562227 0.139264
H12   H     H_    0.931857 0.679613 0.568206 0.128865
N1    N     N_R   0.501200 0.501210 0.147910 -0.200149
N2    N     N_R   0.501250 0.501290 0.852040 -0.190744
O1    O     O_R   0.499990 0.319640 0.618810 -0.586165
O2    O     O_R   0.500000 0.319660 0.381240 -0.576389
O3    O     O_R   0.317680 0.499970 0.618790 -0.595994
O4    O     O_R   0.317700 0.499990 0.381210 -0.590897
O5    O     O_R   0.500000 0.680340 0.618760 -0.564580
O6    O     O_R   0.500010 0.680360 0.381190 -0.573429
O7    O     O_R   0.682300 0.500010 0.618790 -0.559955
O8    O     O_R   0.682320 0.500030 0.381210 -0.608308
N3    N     N_3   0.910545 0.688409 0.356292 -0.604403
H13   H     H_    0.829016 0.726532 0.380123 0.221382
H14   H     H_    0.895359 0.629268 0.272620 0.242635
H15   H     H_    0.645493 0.134741 0.370700 0.151309
H16   H     H_    0.291030 0.205419 0.645663 0.121537
H17   H     H_    0.306566 0.750915 0.667736 0.157258
N4    N     N_3   0.672493 0.898953 0.350363 -0.629291
H18   H     H_    0.758114 0.934833 0.391700 0.208653
H19   H     H_    0.667562 0.933262 0.249270 0.236622
H20   H     H_    0.095958 0.344501 0.668644 0.172476
H21   H     H_    0.665851 0.669482 0.257477 0.231496
N5    N     N_3   0.700806 0.701753 0.724938 -0.496167
H22   H     H_    0.794339 0.690068 0.714623 0.168300
H23   H     H_    0.692267 0.794571 0.697727 0.201675
N6    N     N_3   0.865423 0.315921 0.688072 -0.593007
H24   H     H_    0.769351 0.315912 0.695290 0.251027
H25   H     H_    0.883348 0.246828 0.619502 0.212876
N7    N     N_3   0.093886 0.436083 0.237846 -0.579097
H26   H     H_    0.091006 0.530898 0.220352 0.217763
H27   H     H_    0.180946 0.410896 0.211897 0.241237
N8    N     N_3   0.086537 0.266143 0.396445 -0.585060
H28   H     H_    0.182805 0.263626 0.399816 0.198141
H29   H     H_    0.050563 0.225770 0.487899 0.200353
H30   H     H_    0.864926 0.304137 0.404427 0.138238

loop_
_geom_bond_atom_site_label_1
_geom_bond_atom_site_label_2
_ccdc_geom_bond_type
C8    C9    A    
N5    H23   S    
N3    H13   S    
C16   C21   A    
Cu2   N1    S    
C19   C20   A    
C1    C11   S    
C12   O3    A    
C7    C8    A    
C26   C27   S    
C3    C28   S    
C25   O7    A    
C5    C6    A    
C22   H6    S    
C19   N5    S    
N6    H25   S    
C18   C19   A    
C17   H7    S    
N4    H19   S    
C18   H8    S    
Cu2   O6    S    
C26   H20   S    
C3    N3    S    
C28   H3    S    
C16   C17   A    
Cu1   N2    S    
C2    C27   S    
C9    C10   A    
C4    C29   S    
C27   N6    S    
C29   N7    S    
C15   C23   S    
N5    H22   S    
Cu1   O1    S    
C13   C14   A    
C24   H9    S    
Cu2   O2    S    
N4    H18   S    
Cu1   O3    S    
Cu2   O8    S    
C21   N1    A    
C4    H2    S    
C3    H12   S    
C5    H16   S    
C25   O8    A    
N7    H27   S    
C1    O1    A    
C13   H15   S    
C14   N4    S    
C2    C4    S    
N8    H28   S    
C4    H30   S    
C29   C30   S    
C26   H1    S    
C23   O5    A    
Cu1   Cu2   S    
C17   C18   A    
C7    H5    S    
Cu1   O7    S    
N8    H29   S    
Cu2   O4    S    
C26   C30   S    
N3    H14   S    
C22   C24   A    
C12   C30   S    
Cu1   O5    S    
N7    H26   S    
C12   O4    A    
C1    O2    A    
C6    C7    A    
C29   N8    S    
C28   H11   S    
C24   N2    A    
C28   C30   S    
C2    C3    S    
C9    C15   A    
C5    C10   A    
C8    H17   S    
C11   C13   A    
C27   H10   S    
C23   O6    A    
C6    H4    S    
C2    C25   S    
N6    H24   S    
C10   C11   A    
C22   N1    A    
C20   C21   A    
C14   C15   A    
C16   H21   S    
C20   N2    A    
