data_mof_unit_62909.cif
_audit_creation_date              2012-12-10T20:39:14-0500
_audit_creation_method            fapswitch 2.2
_symmetry_space_group_name_H-M    P1
_symmetry_Int_Tables_number       1
_space_group_crystal_system       triclinic
_cell_length_a                    28.134284
_cell_length_b                    28.134296
_cell_length_c                    51.39686
_cell_angle_alpha                 89.999969
_cell_angle_beta                  89.999969
_cell_angle_gamma                 90.000017
_cell_volume                      40682.5818433

loop_
_atom_site_label
_atom_site_type_symbol
_atom_type_description
_atom_site_fract_x
_atom_site_fract_y
_atom_site_fract_z
_atom_type_partial_charge
C1    C     C_R   0.000000 0.500000 0.179736 0.807319
C2    C     C_R   0.500000 0.000000 0.986233 -0.015208
C3    C     C_R   0.796979 0.659438 0.766507 0.625827
C4    C     C_R   0.659441 0.203018 0.233490 0.626617
C5    C     C_R   0.340559 0.796982 0.766510 0.626617
C6    C     C_R   0.796979 0.659438 0.233493 0.625827
C7    C     C_R   0.203021 0.340562 0.766507 0.625827
C8    C     C_R   0.340562 0.203021 0.766507 0.625827
C9    C     C_R   0.659438 0.796979 0.233493 0.625827
C10   C     C_R   0.203017 0.659441 0.766510 0.626617
C11   C     C_R   0.796983 0.340559 0.233490 0.626617
C12   C     C_R   0.659438 0.796979 0.766507 0.625827
C13   C     C_R   1.000000 0.500000 0.013767 -0.015209
C14   C     C_R   0.340562 0.203021 0.233493 0.625827
C15   C     C_R   0.796983 0.340558 0.766510 0.626616
C16   C     C_R   0.203017 0.659441 0.233490 0.626616
C17   C     C_R   0.840558 0.296983 0.733490 0.626615
C18   C     C_R   0.159442 0.703017 0.266510 0.626615
C19   C     C_R   0.703021 0.840562 0.733493 0.625827
C20   C     C_R   0.296979 0.159438 0.266507 0.625827
C21   C     C_R   0.159442 0.703017 0.733490 0.626617
C22   C     C_R   0.840558 0.296983 0.266510 0.626617
C23   C     C_R   0.296979 0.159438 0.733493 0.625828
C24   C     C_R   1.000000 0.500000 0.986233 -0.015209
C25   C     C_R   0.703021 0.840562 0.266507 0.625828
C26   C     C_R   0.840562 0.703021 0.266507 0.625828
C27   C     C_R   0.159438 0.296979 0.733493 0.625828
C28   C     C_R   0.703017 0.159441 0.266510 0.626617
C29   C     C_R   0.296982 0.840559 0.733490 0.626617
C30   C     C_R   0.159438 0.296979 0.266507 0.625828
C31   C     C_R   0.840562 0.703021 0.733493 0.625828
C32   C     C_R   0.296982 0.840559 0.266510 0.626617
C33   C     C_R   0.703017 0.159441 0.733490 0.626617
C34   C     C_R   0.375646 0.832084 0.233495 -0.264286
C35   C     C_R   0.000000 0.500000 0.513767 -0.015210
C36   C     C_R   0.624354 0.167916 0.766505 -0.264286
C37   C     C_R   0.167920 0.375649 0.233498 -0.265299
C38   C     C_R   0.832080 0.624351 0.766502 -0.265299
C39   C     C_R   0.624354 0.167916 0.233495 -0.264286
C40   C     C_R   0.375646 0.832084 0.766505 -0.264286
C41   C     C_R   0.832080 0.624351 0.233498 -0.265299
C42   C     C_R   0.167919 0.375649 0.766502 -0.265299
C43   C     C_R   0.375649 0.167920 0.766502 -0.265298
C44   C     C_R   0.624351 0.832080 0.233498 -0.265298
C45   C     C_R   0.167916 0.624354 0.766505 -0.264286
C46   C     C_R   0.000000 0.500000 0.486233 -0.015211
C47   C     C_R   0.832084 0.375646 0.233495 -0.264286
C48   C     C_R   0.624351 0.832080 0.766502 -0.265299
C49   C     C_R   0.375649 0.167919 0.233498 -0.265299
C50   C     C_R   0.832084 0.375646 0.766505 -0.264287
C51   C     C_R   0.167916 0.624354 0.233495 -0.264287
C52   C     C_R   0.875646 0.332084 0.733495 -0.264285
C53   C     C_R   0.124354 0.667916 0.266505 -0.264285
C54   C     C_R   0.667920 0.875649 0.733498 -0.265299
C55   C     C_R   0.332080 0.124351 0.266502 -0.265299
C56   C     C_R   0.124354 0.667916 0.733495 -0.264286
C57   C     C_R   0.500000 0.000000 0.513767 -0.015209
C58   C     C_R   0.875646 0.332084 0.266505 -0.264286
C59   C     C_R   0.332080 0.124351 0.733498 -0.265300
C60   C     C_R   0.667920 0.875649 0.266502 -0.265300
C61   C     C_R   0.875649 0.667920 0.266502 -0.265299
C62   C     C_R   0.124351 0.332080 0.733498 -0.265299
C63   C     C_R   0.667916 0.124354 0.266505 -0.264286
C64   C     C_R   0.332084 0.875646 0.733495 -0.264286
C65   C     C_R   0.124351 0.332080 0.266502 -0.265299
C66   C     C_R   0.875649 0.667920 0.733498 -0.265299
C67   C     C_R   0.332084 0.875646 0.266505 -0.264286
C68   C     C_R   0.500000 0.000000 0.486233 -0.015210
C69   C     C_R   0.667916 0.124354 0.733495 -0.264286
C70   C     C_R   0.371734 0.871734 0.250000 -0.200608
C71   C     C_R   0.628266 0.128266 0.750000 -0.200608
C72   C     C_R   0.128266 0.371734 0.250000 -0.200141
C73   C     C_R   0.871734 0.628266 0.750000 -0.200141
C74   C     C_R   0.628266 0.128266 0.250000 -0.200608
C75   C     C_R   0.371734 0.871734 0.750000 -0.200609
C76   C     C_R   0.871734 0.628266 0.250000 -0.200140
C77   C     C_R   0.128266 0.371734 0.750000 -0.200140
C78   C     C_R   0.371734 0.128266 0.750000 -0.200140
C79   C     C_R   0.578369 0.036218 0.013591 -0.138798
C80   C     C_R   0.628266 0.871734 0.250000 -0.200140
C81   C     C_R   0.128266 0.628266 0.750000 -0.200608
C82   C     C_R   0.871734 0.371734 0.250000 -0.200608
C83   C     C_R   0.628266 0.871734 0.750000 -0.200140
C84   C     C_R   0.371734 0.128266 0.250000 -0.200140
C85   C     C_R   0.871734 0.371734 0.750000 -0.200609
C86   C     C_R   0.128266 0.628266 0.250000 -0.200609
C87   C     C_R   0.301174 0.801174 0.250000 -0.201602
C88   C     C_R   0.698826 0.198826 0.750000 -0.201602
C89   C     C_R   0.198826 0.301174 0.250000 -0.201005
C90   C     C_R   0.421630 0.963782 0.986410 -0.138798
C91   C     C_R   0.801174 0.698826 0.750000 -0.201005
C92   C     C_R   0.698826 0.198826 0.250000 -0.201602
C93   C     C_R   0.301174 0.801174 0.750000 -0.201602
C94   C     C_R   0.801174 0.698826 0.250000 -0.201005
C95   C     C_R   0.198826 0.301174 0.750000 -0.201005
C96   C     C_R   0.301174 0.198826 0.750000 -0.201004
C97   C     C_R   0.698826 0.801174 0.250000 -0.201004
C98   C     C_R   0.198826 0.698826 0.750000 -0.201602
C99   C     C_R   0.801174 0.301174 0.250000 -0.201602
C100  C     C_R   0.698826 0.801174 0.750000 -0.201005
C101  C     C_R   0.036213 0.578372 0.013591 -0.138798
C102  C     C_R   0.301174 0.198826 0.250000 -0.201005
C103  C     C_R   0.801174 0.301174 0.750000 -0.201602
C104  C     C_R   0.198826 0.698826 0.250000 -0.201602
C105  C     C_1   0.265108 0.765108 0.250000 0.199295
C106  C     C_1   0.734892 0.234892 0.750000 0.199295
C107  C     C_1   0.234892 0.265108 0.250000 0.198505
C108  C     C_1   0.765108 0.734892 0.750000 0.198505
C109  C     C_1   0.734892 0.234892 0.250000 0.199295
C110  C     C_1   0.265108 0.765108 0.750000 0.199295
C111  C     C_1   0.765108 0.734892 0.250000 0.198505
C112  C     C_R   0.000000 0.500000 0.820264 0.807319
C113  C     C_R   0.963787 0.421628 0.986409 -0.138799
C114  C     C_1   0.234892 0.265108 0.750000 0.198505
C115  C     C_1   0.265108 0.234892 0.750000 0.198505
C116  C     C_1   0.734892 0.765108 0.250000 0.198505
C117  C     C_1   0.234892 0.734892 0.750000 0.199294
C118  C     C_1   0.765108 0.265108 0.250000 0.199294
C119  C     C_1   0.734892 0.765108 0.750000 0.198505
C120  C     C_1   0.265108 0.234892 0.250000 0.198505
C121  C     C_1   0.765108 0.265108 0.750000 0.199295
C122  C     C_1   0.234892 0.734892 0.250000 0.199295
C123  C     C_R   0.461426 0.982269 0.054867 0.515865
C124  C     C_R   0.421630 0.963782 0.013591 -0.138799
C125  C     C_R   0.538574 0.017731 0.945133 0.515864
C126  C     C_R   0.982272 0.461425 0.054867 0.515864
C127  C     C_R   0.017728 0.538575 0.945133 0.515864
C128  C     C_R   0.538574 0.017731 0.054867 0.515864
C129  C     C_R   0.461426 0.982269 0.945133 0.515864
C130  C     C_R   0.017728 0.538575 0.054867 0.515865
C131  C     C_R   0.982272 0.461425 0.945133 0.515865
C132  C     C_R   0.961423 0.482276 0.554867 0.515864
C133  C     C_R   0.038577 0.517724 0.445133 0.515864
C134  C     C_R   0.482272 0.961425 0.554867 0.515865
C135  C     C_R   0.578369 0.036218 0.986409 -0.138798
C136  C     C_R   0.517728 0.038575 0.445133 0.515865
C137  C     C_R   0.038577 0.517724 0.554867 0.515863
C138  C     C_R   0.961423 0.482276 0.445133 0.515863
C139  C     C_R   0.517728 0.038575 0.554867 0.515864
C140  C     C_R   0.482272 0.961425 0.445133 0.515864
C141  C     C_R   0.539312 0.018187 0.027501 -0.021799
C142  C     C_R   0.460688 0.981813 0.972499 -0.021799
C143  C     C_R   0.018185 0.539313 0.027501 -0.021799
C144  C     C_R   0.981815 0.460687 0.972499 -0.021799
C145  C     C_R   0.460688 0.981813 0.027501 -0.021799
C146  C     C_R   0.963787 0.421628 0.013591 -0.138799
C147  C     C_R   0.539312 0.018187 0.972499 -0.021799
C148  C     C_R   0.981815 0.460687 0.027501 -0.021799
C149  C     C_R   0.018185 0.539313 0.972499 -0.021799
C150  C     C_R   0.039316 0.518180 0.527501 -0.021799
C151  C     C_R   0.960684 0.481820 0.472499 -0.021799
C152  C     C_R   0.518184 0.039314 0.527501 -0.021799
C153  C     C_R   0.481815 0.960686 0.472499 -0.021799
C154  C     C_R   0.960684 0.481820 0.527501 -0.021798
C155  C     C_R   0.039316 0.518180 0.472499 -0.021798
C156  C     C_R   0.481815 0.960686 0.527501 -0.021799
C157  C     C_R   0.036213 0.578372 0.986409 -0.138799
C158  C     C_R   0.518184 0.039314 0.472499 -0.021799
C159  C     C_R   0.078376 0.536204 0.513590 -0.138797
C160  C     C_R   0.921623 0.463796 0.486409 -0.138797
C161  C     C_R   0.536212 0.078372 0.513590 -0.138798
C162  C     C_R   0.463787 0.921628 0.486409 -0.138798
C163  C     C_R   0.921623 0.463796 0.513590 -0.138797
C164  C     C_R   0.500000 0.000000 0.179736 0.807319
C165  C     C_R   0.078376 0.536204 0.486409 -0.138797
C166  C     C_R   0.463788 0.921628 0.513590 -0.138798
C167  C     C_R   0.536212 0.078372 0.486409 -0.138798
C168  C     C_R   0.000019 0.456971 0.390181 -0.089149
C169  C     C_R   0.999981 0.543029 0.609819 -0.089148
C170  C     C_R   0.456971 0.000022 0.390181 -0.089147
C171  C     C_R   0.543029 0.999978 0.609819 -0.089148
C172  C     C_R   0.999981 0.543029 0.390181 -0.089149
C173  C     C_R   0.000019 0.456971 0.609819 -0.089149
C174  C     C_R   0.543029 0.999978 0.390181 -0.089147
C175  C     C_R   0.500000 0.000000 0.820264 0.807319
C176  C     C_R   0.456971 0.000022 0.609819 -0.089147
C177  C     C_R   0.500024 0.956971 0.890181 -0.089146
C178  C     C_R   0.500025 0.956971 0.109819 -0.089147
C179  C     C_R   0.043029 0.499978 0.890181 -0.089147
C180  C     C_R   0.956971 0.500022 0.109819 -0.089147
C181  C     C_R   0.499976 0.043029 0.890181 -0.089147
C182  C     C_R   0.499975 0.043029 0.109819 -0.089147
C183  C     C_R   0.956971 0.500022 0.890181 -0.089147
C184  C     C_R   0.043029 0.499978 0.109819 -0.089147
C185  C     C_R   0.000019 0.456931 0.362980 -0.193254
C186  C     C_R   0.500000 0.000000 0.679736 0.807319
C187  C     C_R   0.999981 0.543069 0.637020 -0.193254
C188  C     C_R   0.456931 0.000022 0.362980 -0.193256
C189  C     C_R   0.543069 0.999978 0.637020 -0.193255
C190  C     C_R   0.999981 0.543069 0.362980 -0.193253
C191  C     C_R   0.000019 0.456931 0.637020 -0.193253
C192  C     C_R   0.543069 0.999978 0.362980 -0.193255
C193  C     C_R   0.456931 0.000022 0.637020 -0.193255
C194  C     C_R   0.500023 0.956931 0.862980 -0.193255
C195  C     C_R   0.500025 0.956931 0.137020 -0.193254
C196  C     C_R   0.043069 0.499978 0.862980 -0.193255
C197  C     C_R   0.500000 0.000000 0.320264 0.807319
C198  C     C_R   0.956931 0.500022 0.137020 -0.193255
C199  C     C_R   0.499976 0.043069 0.862980 -0.193255
C200  C     C_R   0.499975 0.043069 0.137020 -0.193255
C201  C     C_R   0.956931 0.500022 0.862980 -0.193255
C202  C     C_R   0.043069 0.499978 0.137020 -0.193255
C203  C     C_R   0.000000 0.500000 0.349075 -0.027906
C204  C     C_R   1.000000 0.500000 0.650925 -0.027906
C205  C     C_R   0.500000 0.000000 0.349075 -0.027906
C206  C     C_R   0.500000 0.000000 0.650925 -0.027906
C207  C     C_R   0.500000 1.000000 0.849075 -0.027906
C208  C     C_R   1.000000 0.500000 0.679736 0.807319
C209  C     C_R   0.500000 0.000000 0.150925 -0.027906
C210  C     C_R   1.000000 0.500000 0.849075 -0.027907
C211  C     C_R   1.000000 0.500000 0.150925 -0.027906
C212  C     C_R   0.000000 0.500000 0.403956 0.293732
C213  C     C_R   0.000000 0.500000 0.596044 0.293732
C214  C     C_R   0.500000 0.000000 0.403956 0.293730
C215  C     C_R   0.500000 0.000000 0.596044 0.293730
C216  C     C_R   0.500000 1.000000 0.903956 0.293728
C217  C     C_R   0.500000 0.000000 0.096044 0.293730
C218  C     C_R   1.000000 0.500000 0.903956 0.293730
C219  C     C_R   0.000000 0.500000 0.320264 0.807319
C220  C     C_R   0.000000 0.500000 0.096044 0.293730
C221  C     C_R   0.908801 0.591199 0.250000 0.888117
C222  C     C_R   0.091199 0.408801 0.750000 0.888117
C223  C     C_R   0.408801 0.908801 0.250000 0.888791
C224  C     C_R   0.591199 0.091199 0.750000 0.888790
C225  C     C_R   0.091199 0.408801 0.250000 0.888117
C226  C     C_R   0.908801 0.591199 0.750000 0.888117
C227  C     C_R   0.591199 0.091199 0.250000 0.888790
C228  C     C_R   0.408801 0.908801 0.750000 0.888791
C229  C     C_R   0.908800 0.408801 0.750000 0.888790
C230  C     C_R   0.500000 0.000000 0.013767 -0.015209
C231  C     C_R   0.091199 0.591199 0.250000 0.888790
C232  C     C_R   0.408801 0.091199 0.750000 0.888117
C233  C     C_R   0.591199 0.908801 0.250000 0.888117
C234  C     C_R   0.091199 0.591199 0.750000 0.888790
C235  C     C_R   0.908801 0.408801 0.250000 0.888790
C236  C     C_R   0.591199 0.908801 0.750000 0.888118
C237  C     C_R   0.408801 0.091199 0.250000 0.888118
C238  C     C_R   0.340559 0.796982 0.233490 0.626616
C239  C     C_R   0.659441 0.203018 0.766510 0.626616
C240  C     C_R   0.203021 0.340562 0.233493 0.625827
F1    F     F_    0.345025 0.758971 0.217396 -0.600324
F2    F     F_    0.654968 0.758965 0.217401 -0.601177
F3    F     F_    0.241028 0.654975 0.782604 -0.600324
F4    F     F_    0.758972 0.345025 0.217396 -0.600324
F5    F     F_    0.654968 0.758965 0.782598 -0.601177
F6    F     F_    0.345032 0.241035 0.217401 -0.601177
F7    F     F_    0.758971 0.345025 0.782604 -0.600323
F8    F     F_    0.241029 0.654975 0.217396 -0.600323
F9    F     F_    0.845025 0.258972 0.717396 -0.600324
F10   F     F_    0.154975 0.741028 0.282604 -0.600324
F11   F     F_    0.741036 0.845032 0.717402 -0.601177
F12   F     F_    0.654975 0.241029 0.782604 -0.600324
F13   F     F_    0.258964 0.154968 0.282598 -0.601177
F14   F     F_    0.154975 0.741028 0.717396 -0.600324
F15   F     F_    0.845024 0.258972 0.282604 -0.600324
F16   F     F_    0.258964 0.154968 0.717402 -0.601177
F17   F     F_    0.741036 0.845032 0.282598 -0.601177
F18   F     F_    0.845032 0.741036 0.282598 -0.601177
F19   F     F_    0.154968 0.258964 0.717402 -0.601177
F20   F     F_    0.741029 0.154975 0.282604 -0.600324
F21   F     F_    0.258971 0.845025 0.717396 -0.600324
F22   F     F_    0.154968 0.258964 0.282598 -0.601178
F23   F     F_    0.241035 0.345032 0.217401 -0.601177
F24   F     F_    0.845032 0.741036 0.717402 -0.601178
F25   F     F_    0.258971 0.845025 0.282604 -0.600324
F26   F     F_    0.741029 0.154975 0.717396 -0.600324
F27   F     F_    0.758965 0.654968 0.782598 -0.601177
F28   F     F_    0.654975 0.241029 0.217396 -0.600323
F29   F     F_    0.345025 0.758971 0.782604 -0.600323
F30   F     F_    0.758965 0.654968 0.217401 -0.601177
F31   F     F_    0.241035 0.345032 0.782598 -0.601177
F32   F     F_    0.345032 0.241035 0.782598 -0.601177
H1    H     H_    0.405828 0.828203 0.220590 0.210711
H2    H     H_    0.594166 0.828197 0.220594 0.210409
H3    H     H_    0.171796 0.594172 0.779411 0.210711
H4    H     H_    0.828204 0.405828 0.220589 0.210711
H5    H     H_    0.594166 0.828197 0.779405 0.210409
H6    H     H_    0.405834 0.171803 0.220594 0.210409
H7    H     H_    0.828203 0.405828 0.779411 0.210711
H8    H     H_    0.171796 0.594172 0.220589 0.210711
H9    H     H_    0.905828 0.328204 0.720589 0.210711
H10   H     H_    0.094172 0.671796 0.279411 0.210711
H11   H     H_    0.671803 0.905834 0.720595 0.210409
H12   H     H_    0.594171 0.171797 0.779410 0.210711
H13   H     H_    0.328197 0.094166 0.279405 0.210409
H14   H     H_    0.094172 0.671796 0.720589 0.210710
H15   H     H_    0.905828 0.328204 0.279411 0.210710
H16   H     H_    0.328197 0.094166 0.720595 0.210409
H17   H     H_    0.671803 0.905834 0.279405 0.210409
H18   H     H_    0.905834 0.671803 0.279405 0.210409
H19   H     H_    0.094166 0.328197 0.720595 0.210409
H20   H     H_    0.671797 0.094172 0.279410 0.210711
H21   H     H_    0.328203 0.905828 0.720590 0.210711
H22   H     H_    0.094165 0.328197 0.279405 0.210410
H23   H     H_    0.171803 0.405834 0.220594 0.210409
H24   H     H_    0.905834 0.671803 0.720595 0.210410
H25   H     H_    0.328203 0.905828 0.279410 0.210710
H26   H     H_    0.671797 0.094172 0.720590 0.210710
H27   H     H_    0.609078 0.050399 0.023651 0.200253
H28   H     H_    0.390922 0.949601 0.976349 0.200253
H29   H     H_    0.050392 0.609081 0.023651 0.200254
H30   H     H_    0.949608 0.390919 0.976349 0.200254
H31   H     H_    0.390922 0.949601 0.023651 0.200254
H32   H     H_    0.609078 0.050399 0.976349 0.200254
H33   H     H_    0.949608 0.390919 0.023651 0.200254
H34   H     H_    0.828197 0.594166 0.779405 0.210409
H35   H     H_    0.050392 0.609081 0.976349 0.200254
H36   H     H_    0.109088 0.550380 0.523651 0.200252
H37   H     H_    0.890912 0.449620 0.476349 0.200253
H38   H     H_    0.550392 0.109082 0.523651 0.200253
H39   H     H_    0.449608 0.890918 0.476349 0.200253
H40   H     H_    0.890912 0.449620 0.523651 0.200253
H41   H     H_    0.109088 0.550380 0.476349 0.200253
H42   H     H_    0.449608 0.890918 0.523651 0.200253
H43   H     H_    0.550392 0.109082 0.476349 0.200253
H44   H     H_    0.000207 0.423504 0.400584 0.158726
H45   H     H_    0.594172 0.171797 0.220590 0.210711
H46   H     H_    0.999793 0.576496 0.599415 0.158726
H47   H     H_    0.423504 0.000212 0.400584 0.158728
H48   H     H_    0.576496 0.999788 0.599416 0.158728
H49   H     H_    0.999793 0.576496 0.400584 0.158726
H50   H     H_    0.000207 0.423504 0.599416 0.158726
H51   H     H_    0.576496 0.999788 0.400584 0.158728
H52   H     H_    0.423504 0.000212 0.599416 0.158727
H53   H     H_    0.500215 0.923504 0.900584 0.158729
H54   H     H_    0.500218 0.923504 0.099416 0.158728
H55   H     H_    0.076496 0.499788 0.900584 0.158728
H56   H     H_    0.405828 0.828203 0.779410 0.210711
H57   H     H_    0.923504 0.500212 0.099416 0.158728
H58   H     H_    0.499785 0.076496 0.900584 0.158729
H59   H     H_    0.499782 0.076496 0.099416 0.158728
H60   H     H_    0.923504 0.500212 0.900584 0.158728
H61   H     H_    0.076496 0.499788 0.099416 0.158728
H62   H     H_    0.000071 0.423180 0.352852 0.177706
H63   H     H_    0.999929 0.576820 0.647148 0.177706
H64   H     H_    0.423180 0.000075 0.352852 0.177707
H65   H     H_    0.576820 0.999924 0.647148 0.177707
H66   H     H_    0.999929 0.576820 0.352852 0.177706
H67   H     H_    0.828197 0.594166 0.220594 0.210409
H68   H     H_    0.000071 0.423180 0.647148 0.177706
H69   H     H_    0.576820 0.999925 0.352852 0.177707
H70   H     H_    0.423180 0.000076 0.647148 0.177707
H71   H     H_    0.500078 0.923180 0.852852 0.177707
H72   H     H_    0.500081 0.923180 0.147148 0.177707
H73   H     H_    0.076820 0.499925 0.852852 0.177707
H74   H     H_    0.923180 0.500075 0.147148 0.177707
H75   H     H_    0.499922 0.076820 0.852852 0.177707
H76   H     H_    0.499919 0.076820 0.147148 0.177707
H77   H     H_    0.923180 0.500075 0.852852 0.177707
H78   H     H_    0.171803 0.405834 0.779405 0.210409
H79   H     H_    0.076820 0.499925 0.147148 0.177707
H80   H     H_    0.405834 0.171803 0.779405 0.210409
N1    N     N_R   0.500000 0.000000 0.067996 -0.356943
N2    N     N_R   0.500000 1.000000 0.932004 -0.356942
N3    N     N_R   0.000000 0.500000 0.067996 -0.356942
N4    N     N_R   1.000000 0.500000 0.932004 -0.356942
N5    N     N_R   1.000000 0.500000 0.567996 -0.356944
N6    N     N_R   0.000000 0.500000 0.432004 -0.356944
N7    N     N_R   0.500000 0.000000 0.567996 -0.356943
N8    N     N_R   0.500000 0.000000 0.432004 -0.356943
O1    O     O_3   0.000000 0.500000 0.250000 -0.482528
O2    O     O_R   0.039230 0.500000 0.807660 -0.641013
O3    O     O_R   0.500000 0.960770 0.192340 -0.641013
O4    O     O_R   0.500000 0.039230 0.807660 -0.641013
O5    O     O_R   0.539230 0.000000 0.692340 -0.641013
O6    O     O_R   0.460770 0.000000 0.307660 -0.641013
O7    O     O_R   0.000000 0.539230 0.692340 -0.641013
O8    O     O_R   1.000000 0.460770 0.307660 -0.641013
O9    O     O_R   0.460770 0.000000 0.692340 -0.641013
O10   O     O_R   0.539230 0.000000 0.307660 -0.641013
O11   O     O_R   0.000000 0.460770 0.692340 -0.641013
O12   O     O_3   1.000000 0.500000 0.750000 -0.482528
O13   O     O_R   1.000000 0.539230 0.307660 -0.641013
O14   O     O_R   0.905530 0.555290 0.235160 -0.641435
O15   O     O_R   0.094470 0.444710 0.764840 -0.641436
O16   O     O_R   0.444710 0.905530 0.235160 -0.641167
O17   O     O_R   0.555290 0.094470 0.764840 -0.641167
O18   O     O_R   0.094470 0.444710 0.235160 -0.641435
O19   O     O_R   0.905530 0.555290 0.764840 -0.641435
O20   O     O_R   0.555290 0.094470 0.235160 -0.641167
O21   O     O_R   0.444710 0.905530 0.764840 -0.641168
O22   O     O_R   0.905530 0.444710 0.764840 -0.641168
O23   O     O_3   0.500000 0.000000 0.250000 -0.482528
O24   O     O_R   0.094470 0.555290 0.235160 -0.641168
O25   O     O_R   0.444710 0.094470 0.764840 -0.641436
O26   O     O_R   0.555290 0.905530 0.235160 -0.641436
O27   O     O_R   0.094470 0.555290 0.764840 -0.641167
O28   O     O_R   0.905530 0.444710 0.235160 -0.641167
O29   O     O_R   0.555290 0.905530 0.764840 -0.641436
O30   O     O_R   0.444710 0.094470 0.235160 -0.641436
O31   O     O_R   0.405530 0.055290 0.735160 -0.641435
O32   O     O_R   0.594470 0.944710 0.264840 -0.641435
O33   O     O_R   0.944710 0.405530 0.735160 -0.641167
O34   O     O_3   0.500000 0.000000 0.750000 -0.482528
O35   O     O_R   0.055290 0.594470 0.264840 -0.641167
O36   O     O_R   0.594470 0.944710 0.735160 -0.641436
O37   O     O_R   0.405530 0.055290 0.264840 -0.641435
O38   O     O_R   0.055290 0.594470 0.735160 -0.641168
O39   O     O_R   0.944710 0.405530 0.264840 -0.641168
O40   O     O_R   0.405530 0.944710 0.264840 -0.641168
O41   O     O_R   0.594470 0.055290 0.735160 -0.641168
O42   O     O_R   0.944710 0.594470 0.264840 -0.641435
O43   O     O_R   0.055290 0.405530 0.735160 -0.641435
O44   O     O_R   0.594470 0.055290 0.264840 -0.641167
O45   O     O_R   0.039230 0.500000 0.192340 -0.641013
O46   O     O_R   0.405530 0.944710 0.735160 -0.641167
O47   O     O_R   0.055290 0.405530 0.264840 -0.641434
O48   O     O_R   0.944710 0.594470 0.735160 -0.641435
O49   O     O_2   0.423711 0.965516 0.068240 -0.538545
O50   O     O_2   0.576289 0.034484 0.931760 -0.538546
O51   O     O_2   0.965521 0.423709 0.068240 -0.538546
O52   O     O_2   0.034479 0.576291 0.931760 -0.538546
O53   O     O_2   0.576289 0.034484 0.068240 -0.538545
O54   O     O_2   0.423711 0.965516 0.931760 -0.538546
O55   O     O_2   0.034479 0.576291 0.068240 -0.538546
O56   O     O_R   0.960770 0.500000 0.807660 -0.641013
O57   O     O_2   0.965521 0.423709 0.931760 -0.538546
O58   O     O_2   0.923705 0.465529 0.568240 -0.538543
O59   O     O_2   0.076295 0.534471 0.431760 -0.538543
O60   O     O_2   0.465521 0.923709 0.568240 -0.538545
O61   O     O_2   0.534479 0.076291 0.431760 -0.538546
O62   O     O_2   0.076295 0.534471 0.568240 -0.538543
O63   O     O_2   0.923705 0.465529 0.431760 -0.538543
O64   O     O_2   0.534479 0.076291 0.568240 -0.538544
O65   O     O_2   0.465521 0.923709 0.431760 -0.538545
O66   O     O_R   0.500000 0.039230 0.192340 -0.641013
O67   O     O_R   0.500000 0.960770 0.807660 -0.641013
O68   O     O_R   0.960770 0.500000 0.192340 -0.641013
Zn1   Zn    Zn3+2 0.000000 0.556130 0.272120 0.994590
Zn2   Zn    Zn3+2 0.500000 0.943870 0.227880 0.994590
Zn3   Zn    Zn3+2 0.943870 0.500000 0.772120 0.994590
Zn4   Zn    Zn3+2 0.056130 0.500000 0.227880 0.994590
Zn5   Zn    Zn3+2 0.500000 0.943870 0.772120 0.994590
Zn6   Zn    Zn3+2 0.500000 0.056130 0.227880 0.994590
Zn7   Zn    Zn3+2 0.056130 0.500000 0.772120 0.994590
Zn8   Zn    Zn3+2 0.943870 0.500000 0.227880 0.994590
Zn9   Zn    Zn3+2 1.000000 0.443870 0.727880 0.994590
Zn10  Zn    Zn3+2 0.443870 0.000000 0.272120 0.994590
Zn11  Zn    Zn3+2 0.556130 0.000000 0.727880 0.994590
Zn12  Zn    Zn3+2 0.000000 0.443870 0.272120 0.994590
Zn13  Zn    Zn3+2 1.000000 0.556130 0.727880 0.994590
Zn14  Zn    Zn3+2 0.556130 0.000000 0.272120 0.994590
Zn15  Zn    Zn3+2 0.443870 0.000000 0.727880 0.994590
Zn16  Zn    Zn3+2 0.500000 0.056130 0.772120 0.994590

loop_
_geom_bond_atom_site_label_1
_geom_bond_atom_site_label_2
_ccdc_geom_bond_type
C44   H2    S    
C145  C230  A    
C6    F30   S    
O2    Zn7   S    
C62   C77   A    
C27   C95   A    
C35   C154  A    
C175  C207  S    
C191  H68   S    
C114  C115  T    
C20   F13   S    
C46   C155  A    
C86   C231  S    
C33   C88   A    
C195  C209  A    
C58   C82   A    
C92   C109  S    
C14   C102  A    
O13   Zn1   S    
C12   F5    S    
O42   Zn1   S    
C139  C152  A    
C137  N5    A    
C7    C42   A    
O39   Zn12  S    
C40   H56   S    
C21   F14   S    
C42   H78   S    
C11   C47   A    
C16   C104  A    
C165  H41   S    
C123  C145  A    
C6    C94   A    
C25   C60   A    
C1    O68   A    
O20   Zn6   S    
C126  N3    A    
C36   C71   A    
C33   C69   A    
C93   C110  S    
C196  C210  A    
O68   Zn8   S    
C60   H17   S    
C29   C64   A    
C87   C238  A    
C82   C235  S    
C224  O17   A    
C233  O32   A    
C68   C158  A    
C91   C108  S    
C17   C52   A    
C54   C83   A    
O11   Zn9   S    
C109  C118  T    
C16   F8    S    
C139  O64   S    
O40   Zn10  S    
C188  C205  A    
O24   Zn4   S    
C150  C159  A    
C183  C201  A    
C160  C163  A    
C53   H10   S    
C85   C229  S    
C169  C187  A    
O46   Zn15  S    
C129  C142  A    
C172  C190  A    
C237  O30   A    
C88   C239  A    
C187  C204  A    
C173  C191  A    
C235  O28   A    
C30   F22   S    
C113  C146  A    
C186  O9    A    
C173  C213  A    
C66   H24   S    
C189  C206  A    
O12   Zn9   S    
C70   C223  S    
C177  H53   S    
O34   Zn11  S    
C172  H49   S    
C179  H55   S    
C63   C74   A    
C72   C225  S    
C131  O57   S    
O1    Zn8   S    
C103  C121  S    
C107  C120  T    
C59   H16   S    
C90   H28   S    
C45   C81   A    
C10   F3    S    
O48   Zn13  S    
C22   C58   A    
C232  O31   A    
C138  C151  A    
C169  C213  A    
C197  O6    A    
C200  C209  A    
C113  C144  A    
C33   F26   S    
O45   Zn4   S    
C41   C76   A    
C224  O41   A    
C136  N8    A    
O29   Zn5   S    
C155  C165  A    
C131  N4    A    
C130  N3    A    
C181  C216  A    
C34   C238  A    
C180  C198  A    
C28   C63   A    
C192  H69   S    
C184  C220  A    
O6    Zn10  S    
C157  H35   S    
C188  H64   S    
C56   H14   S    
C15   C103  A    
C163  H40   S    
O44   Zn14  S    
C185  H62   S    
C138  O63   S    
C57   C152  A    
C231  O24   A    
C192  C205  A    
C94   C111  S    
C178  C217  A    
O34   Zn16  S    
C84   C237  S    
C16   C51   A    
C202  C211  A    
C135  H32   S    
C178  H54   S    
O47   Zn12  S    
O8    Zn12  S    
C189  H65   S    
C23   C59   A    
C194  C207  A    
O66   Zn6   S    
C112  O2    A    
C49   C84   A    
C234  O38   A    
C39   C74   A    
C104  C122  S    
C182  H59   S    
O23   Zn14  S    
C11   C99   A    
O37   Zn10  S    
C123  O49   S    
O17   Zn16  S    
O5    Zn11  S    
C216  N2    S    
C146  H33   S    
C113  H30   S    
O1    Zn4   S    
C51   H8    S    
C132  C154  A    
C168  H44   S    
C35   C150  A    
C231  O35   A    
C176  C193  A    
C212  N6    S    
C181  H58   S    
C50   C85   A    
C25   F17   S    
C36   C239  A    
C46   C151  A    
C37   H23   S    
C89   C240  A    
C59   C78   A    
C134  O60   S    
C232  O25   A    
C61   C76   A    
C127  N4    A    
C200  H76   S    
C57   C156  A    
O7    Zn13  S    
C186  C206  S    
C204  C208  S    
C68   C153  A    
C79   H27   S    
C222  O43   A    
O27   Zn7   S    
C47   H4    S    
C2    C147  A    
C166  H42   S    
C159  C165  A    
C130  C143  A    
C27   C62   A    
C160  H37   S    
C87   C105  S    
C10   C45   A    
C190  H66   S    
C176  C215  A    
C32   F25   S    
C100  C119  S    
C161  C167  A    
C22   F15   S    
C64   H21   S    
C32   C67   A    
C19   C54   A    
C25   C97   A    
C31   C91   A    
O21   Zn5   S    
C63   H20   S    
C2    C142  A    
C137  C150  A    
O35   Zn1   S    
C57   C68   A    
C181  C199  A    
O16   Zn2   S    
C54   H11   S    
C60   C80   A    
C71   C224  S    
O32   Zn14  S    
C239  F12   S    
O4    Zn16  S    
C23   F16   S    
C219  O8    A    
C227  O44   A    
C201  H77   S    
C76   C221  S    
C65   C72   A    
O12   Zn13  S    
C159  H36   S    
C135  C147  A    
C48   C83   A    
C66   C73   A    
C67   C70   A    
C132  N5    A    
O34   Zn15  S    
C214  N8    S    
C8    F32   S    
C124  H31   S    
C127  C149  A    
C19   F11   S    
C79   C141  A    
O18   Zn4   S    
C133  O59   S    
C17   F9    S    
C64   C75   A    
C105  C122  T    
O1    Zn12  S    
C126  O51   S    
C30   C65   A    
C2    C230  A    
C77   C222  S    
C42   C77   A    
C170  C188  A    
C161  H38   S    
C133  N6    A    
C174  C192  A    
C130  O55   S    
C41   H67   S    
C129  N2    A    
C26   C94   A    
C223  O16   A    
C1    C211  S    
C197  C205  S    
C8    C43   A    
C12   C48   A    
C43   H80   S    
C223  O40   A    
C48   H5    S    
O26   Zn2   S    
C43   C78   A    
C238  F1    S    
C208  O7    A    
C26   C61   A    
C30   C89   A    
C73   C226  S    
O33   Zn9   S    
C95   C114  S    
C78   C232  S    
C61   H18   S    
C55   H13   S    
C199  H75   S    
C110  C117  T    
C3    C91   A    
C175  O4    A    
C236  O36   A    
C229  O33   A    
C18   C53   A    
C228  O46   A    
C52   H9    S    
C162  C166  A    
C65   H22   S    
C134  C156  A    
C220  N3    S    
C227  O20   A    
C28   F20   S    
C127  O52   S    
C158  C167  A    
C111  C116  T    
C38   H34   S    
C128  C141  A    
C34   C70   A    
C140  C153  A    
C171  C215  A    
O43   Zn9   S    
C101  C157  A    
C193  H70   S    
O1    Zn1   S    
C67   H25   S    
C108  C119  T    
C195  H72   S    
O15   Zn7   S    
C51   C86   A    
O31   Zn15  S    
C146  C148  A    
C179  C196  A    
O36   Zn11  S    
C3    F27   S    
C177  C194  A    
C44   C80   A    
C182  C200  A    
C125  C147  A    
C126  C148  A    
C37   C240  A    
C45   H3    S    
C31   F24   S    
C174  C214  A    
C112  C210  S    
C219  O13   A    
C233  O26   A    
C123  N1    A    
C164  O66   A    
C26   F18   S    
C164  C209  S    
C89   C107  S    
C162  H39   S    
C97   C116  S    
C198  H74   S    
C169  H46   S    
C15   F7    S    
C171  H48   S    
O56   Zn3   S    
C197  O10   A    
C191  C204  A    
C102  C120  S    
C180  H57   S    
C124  C145  A    
C187  H63   S    
O38   Zn13  S    
C75   C228  S    
C9    C97   A    
C22   C99   A    
O12   Zn3   S    
O23   Zn6   S    
C90   C124  A    
C80   C233  S    
C217  N1    S    
O25   Zn16  S    
C21   C56   A    
O19   Zn3   S    
C19   C100  A    
C208  O11   A    
C225  O18   A    
C170  C214  A    
O3    Zn2   S    
C4    F28   S    
C79   C135  A    
C222  O15   A    
O41   Zn11  S    
C5    F29   S    
C40   C75   A    
C153  C162  A    
C167  H43   S    
C185  C203  A    
C7    F31   S    
C196  H73   S    
C141  C230  A    
C226  O48   A    
C134  N7    A    
C176  H52   S    
C29   C93   A    
C21   C98   A    
C24   C144  A    
C183  H60   S    
C137  O62   S    
C56   C81   A    
C128  O53   S    
C13   C143  A    
C34   H1    S    
C39   H45   S    
C12   C100  A    
C125  N2    A    
C213  N5    S    
C83   C236  S    
C5    C40   A    
C81   C234  S    
O67   Zn5   S    
C55   C84   A    
C35   C46   A    
C149  C157  A    
C131  C144  A    
C4    C92   A    
O14   Zn8   S    
C31   C66   A    
C168  C212  A    
C8    C96   A    
C174  H51   S    
C125  O50   S    
C140  O65   S    
C52   C85   A    
C234  O27   A    
C190  C203  A    
C47   C82   A    
C14   C49   A    
C20   C102  A    
O9    Zn15  S    
C23   C96   A    
C171  C189  A    
C69   C71   A    
C15   C50   A    
C173  H50   S    
C10   C98   A    
C193  C206  A    
C139  N7    A    
C112  O56   A    
C170  H47   S    
C3    C38   A    
C6    C41   A    
C29   F21   S    
C96   C115  S    
C53   C86   A    
C156  C166  A    
C186  O5    A    
C101  H29   S    
O23   Zn2   S    
C225  O47   A    
C221  O42   A    
C11   F4    S    
C177  C216  A    
C37   C72   A    
C20   C55   A    
C9    F2    S    
C140  N8    A    
C58   H15   S    
C132  O58   S    
C184  C202  A    
C235  O39   A    
C154  C163  A    
C36   H12   S    
C221  O14   A    
C18   C104  A    
C32   C87   A    
C50   H7    S    
C13   C24   A    
C164  O3    A    
C175  O67   A    
C74   C227  S    
C88   C106  S    
C4    C39   A    
C199  C207  A    
C236  O29   A    
C28   C92   A    
C90   C142  A    
O30   Zn6   S    
C198  C211  A    
O28   Zn8   S    
C218  N4    S    
C183  C218  A    
C179  C218  A    
C226  O19   A    
C180  C220  A    
C136  O61   S    
C240  F23   S    
C228  O21   A    
C201  C210  A    
C138  N6    A    
C98   C117  S    
C194  H71   S    
C9    C44   A    
C237  O37   A    
C168  C185  A    
C133  C155  A    
C184  H61   S    
C152  C161  A    
C172  C212  A    
C5    C93   A    
C27   F19   S    
C1    O45   A    
C7    C95   A    
C178  C195  A    
C62   H19   S    
O10   Zn14  S    
C203  C219  S    
C69   H26   S    
C151  C160  A    
C229  O22   A    
C17   C103  A    
C136  C158  A    
C99   C118  S    
C101  C143  A    
C49   H6    S    
C18   F10   S    
C215  N7    S    
C106  C121  T    
C129  O54   S    
C24   C149  A    
C182  C217  A    
O12   Zn7   S    
O23   Zn10  S    
C13   C148  A    
O34   Zn5   S    
C202  H79   S    
O22   Zn3   S    
C128  N1    A    
C14   F6    S    
C38   C73   A    
