data_mof_unit_64066.cif
_audit_creation_date              2012-12-10T18:57:36-0500
_audit_creation_method            fapswitch 2.2
_symmetry_space_group_name_H-M    P1
_symmetry_Int_Tables_number       1
_space_group_crystal_system       triclinic
_cell_length_a                    37.502469
_cell_length_b                    30.208403
_cell_length_c                    21.585842
_cell_angle_alpha                 90.00026
_cell_angle_beta                  54.165972
_cell_angle_gamma                 89.999944
_cell_volume                      19825.5621014

loop_
_atom_site_label
_atom_site_type_symbol
_atom_type_description
_atom_site_fract_x
_atom_site_fract_y
_atom_site_fract_z
_atom_type_partial_charge
C1    C     C_R   0.913641 0.499938 0.586214 0.944836
C2    C     C_R   0.086359 0.499938 0.413785 0.944770
C3    C     C_R   0.413641 0.999938 0.586215 0.944747
C4    C     C_R   0.586359 0.999938 0.413784 0.944739
C5    C     C_3   0.970300 0.458900 0.245508 -0.466270
C6    C     C_3   0.029696 0.458899 0.754495 -0.466276
C7    C     C_3   0.470363 0.958860 0.245437 -0.466311
C8    C     C_3   0.529636 0.958860 0.754563 -0.466311
C9    C     C_R   0.796606 0.461538 0.722297 -0.223447
C10   C     C_R   0.203396 0.461537 0.277713 -0.223463
C11   C     C_R   0.296607 0.961557 0.722349 -0.223395
C12   C     C_R   0.703393 0.961555 0.277648 -0.223396
C13   C     C_R   0.841999 0.462566 0.681721 -0.026401
C14   C     C_R   0.158002 0.462562 0.318289 -0.026373
C15   C     C_R   0.342001 0.962586 0.681774 -0.026479
C16   C     C_R   0.657999 0.962585 0.318223 -0.026475
C17   C     C_R   0.865482 0.499700 0.634192 -0.262391
C18   C     C_R   0.134519 0.499701 0.365804 -0.262424
C19   C     C_R   0.365484 0.999701 0.634187 -0.262418
C20   C     C_R   0.634516 0.999700 0.365811 -0.262423
C21   C     C_R   0.841981 0.536330 0.632911 -0.206118
C22   C     C_R   0.158019 0.536338 0.367065 -0.206103
C23   C     C_R   0.341988 0.036309 0.632834 -0.206157
C24   C     C_R   0.658012 0.036308 0.367162 -0.206152
C25   C     C_R   0.796187 0.535816 0.680340 0.635806
C26   C     C_R   0.203812 0.535826 0.319634 0.635800
C27   C     C_R   0.296194 0.035794 0.680245 0.635845
C28   C     C_R   0.703806 0.035793 0.319751 0.635836
C29   C     C_R   0.773858 0.497859 0.722191 0.014522
C30   C     C_R   0.226143 0.497865 0.277802 0.014541
C31   C     C_R   0.273863 0.997857 0.722167 0.014487
C32   C     C_R   0.726137 0.997855 0.277829 0.014486
C33   C     C_R   0.702874 0.503686 0.736299 -0.108241
C34   C     C_R   0.297126 0.503710 0.263694 -0.108257
C35   C     C_R   0.202877 0.003601 0.736268 -0.108263
C36   C     C_R   0.797122 0.003600 0.263731 -0.108260
C37   C     C_R   0.657004 0.505193 0.785226 0.595655
C38   C     C_R   0.342996 0.505218 0.214768 0.595661
C39   C     C_R   0.157006 0.005103 0.785193 0.595646
C40   C     C_R   0.842994 0.005101 0.214807 0.595646
C41   C     C_R   0.634333 0.495542 0.863848 -0.252169
C42   C     C_R   0.365667 0.495549 0.136152 -0.252163
C43   C     C_R   0.134338 0.995543 0.863847 -0.252218
C44   C     C_R   0.865663 0.995540 0.136152 -0.252216
C45   C     C_R   0.999624 0.500099 0.378995 0.959233
C46   C     C_R   0.000375 0.500099 0.621005 0.959205
C47   C     C_R   0.499622 0.000098 0.378997 0.959211
C48   C     C_R   0.500378 0.000099 0.621003 0.959207
C49   C     C_R   0.658329 0.483611 0.893228 -0.110815
C50   C     C_R   0.341672 0.483604 0.106775 -0.110819
C51   C     C_R   0.158341 0.983709 0.893259 -0.110681
C52   C     C_R   0.841661 0.983703 0.106741 -0.110692
C53   C     C_R   0.703823 0.486247 0.845664 -0.188613
C54   C     C_R   0.296179 0.486239 0.154336 -0.188606
C55   C     C_R   0.203833 0.986338 0.845678 -0.188636
C56   C     C_R   0.796168 0.986332 0.154320 -0.188633
C57   C     C_R   0.726085 0.496016 0.768154 -0.000633
C58   C     C_R   0.273916 0.496024 0.231842 -0.000619
C59   C     C_R   0.226091 0.996017 0.768139 -0.000625
C60   C     C_R   0.773909 0.996014 0.231858 -0.000627
C61   C     C_R   1.000000 0.586193 1.000000 1.037914
C62   C     C_R   0.500000 0.086192 0.000000 1.037960
C63   C     C_R   0.999685 0.498093 0.121444 0.969027
C64   C     C_R   0.000315 0.498095 0.878555 0.969028
C65   C     C_R   0.499686 0.998100 0.121443 0.969097
C66   C     C_R   0.500314 0.998100 0.878556 0.969096
C67   C     C_R   0.000000 0.413999 0.000000 0.979067
C68   C     C_R   0.500000 0.913999 1.000000 0.979175
C69   C     C_R   0.500000 0.413790 1.000000 1.030822
C70   C     C_R   0.999999 0.913792 0.000000 1.030977
C71   C     C_R   0.586189 0.498478 0.913426 0.915134
C72   C     C_R   0.413811 0.498481 0.086574 0.915150
C73   C     C_R   0.086190 0.998478 0.913425 0.914960
C74   C     C_R   0.913810 0.998477 0.086575 0.914962
C75   C     C_R   0.500000 0.586101 0.000000 0.970548
C76   C     C_R   1.000000 0.086102 0.000000 0.970202
C77   C     C_R   0.039990 0.703184 0.956993 0.694064
C78   C     C_R   0.960007 0.703184 0.043002 0.694056
C79   C     C_R   0.540003 0.203178 0.957409 0.694124
C80   C     C_R   0.459996 0.203179 0.042585 0.694123
C81   C     C_3   0.986048 0.547100 0.297163 -0.451056
C82   C     C_3   0.013956 0.547100 0.702832 -0.451056
C83   C     C_3   0.485979 0.047081 0.297236 -0.451118
C84   C     C_3   0.514022 0.047081 0.702763 -0.451120
C85   C     C_R   0.039968 0.657345 0.957038 -0.219532
C86   C     C_R   0.960030 0.657345 0.042958 -0.219532
C87   C     C_R   0.539979 0.157341 0.957456 -0.219572
C88   C     C_R   0.460019 0.157342 0.042541 -0.219571
C89   C     C_R   0.999999 0.634240 0.999999 -0.221122
C90   C     C_R   0.499999 0.134237 1.000000 -0.221149
C91   C     C_R   0.999999 0.726027 0.999997 -0.040375
C92   C     C_R   0.500000 0.226022 0.999997 -0.040511
C93   C     C_R   0.482584 0.296675 0.966983 0.605363
C94   C     C_R   0.517415 0.296674 0.033014 0.605364
C95   C     C_R   0.982389 0.796681 0.967314 0.605346
C96   C     C_R   0.017609 0.796680 0.032683 0.605342
C97   C     C_R   0.482546 0.342533 0.966903 0.518060
C98   C     C_R   0.517452 0.342532 0.033097 0.518044
C99   C     C_R   0.982358 0.842541 0.967224 0.517881
C100  C     C_R   0.017639 0.842540 0.032776 0.517878
C101  C     C_R   0.500000 0.365724 1.000000 -0.545899
C102  C     C_R   0.999999 0.865729 0.000000 -0.545747
C103  C     C_R   0.500000 0.273868 0.999997 -0.315782
C104  C     C_R   0.999999 0.773874 0.999998 -0.315541
C105  C     C_R   0.000806 0.297804 0.055501 -0.201503
C106  C     C_R   0.999193 0.297803 0.944502 -0.201506
C107  C     C_R   0.500977 0.797804 0.055320 -0.201487
C108  C     C_R   0.499024 0.797803 0.944679 -0.201489
C109  C     C_R   0.001167 0.343719 0.055117 0.587434
C110  C     C_R   0.998833 0.343719 0.944885 0.587440
C111  C     C_R   0.501341 0.843719 0.054931 0.587555
C112  C     C_R   0.498659 0.843719 0.945069 0.587555
C113  C     C_R   0.000000 0.366481 0.000000 -0.290571
C114  C     C_R   0.500000 0.866481 1.000000 -0.290508
C115  C     C_3   0.981147 0.543905 0.230787 1.136193
C116  C     C_3   0.018857 0.543904 0.769209 1.136202
C117  C     C_3   0.481081 0.043881 0.230857 1.136238
C118  C     C_3   0.518919 0.043881 0.769143 1.136240
C119  C     C_R   1.000000 0.274584 0.000001 -0.024984
C120  C     C_R   0.500000 0.774582 1.000000 -0.024944
C121  C     C_R   0.473353 0.702986 0.985191 -0.213996
C122  C     C_R   0.526647 0.702986 0.014809 -0.213997
C123  C     C_R   0.973448 0.202992 0.984976 -0.214060
C124  C     C_R   0.026551 0.202992 0.015027 -0.214061
C125  C     C_R   0.473601 0.657075 0.984505 0.599237
C126  C     C_R   0.526399 0.657075 0.015496 0.599233
C127  C     C_R   0.973693 0.157081 0.984296 0.599285
C128  C     C_R   0.026306 0.157081 0.015706 0.599285
C129  C     C_R   0.500000 0.634026 0.000000 -0.325673
C130  C     C_R   1.000000 0.134030 0.000001 -0.325798
C131  C     C_R   0.500000 0.726188 0.000000 -0.014899
C132  C     C_R   0.999999 0.226192 0.000002 -0.014947
C133  C     C_3   0.046643 0.486256 0.238190 -0.324424
C134  C     C_3   0.953355 0.486263 0.761812 -0.324412
C135  C     C_3   0.546663 0.986328 0.238168 -0.324406
C136  C     C_3   0.453337 0.986329 0.761832 -0.324406
C137  C     C_3   0.966119 0.463385 0.321565 0.413659
C138  C     C_3   0.033876 0.463382 0.678439 0.413670
C139  C     C_3   0.466172 0.963336 0.321503 0.413725
C140  C     C_3   0.533827 0.963336 0.678497 0.413728
C141  C     C_3   0.999961 0.500227 0.310430 -0.359185
C142  C     C_3   0.000038 0.500227 0.689570 -0.359188
C143  C     C_3   0.499960 0.000227 0.310430 -0.359206
C144  C     C_3   0.500040 0.000228 0.689570 -0.359205
C145  C     C_3   0.998788 0.498238 0.190365 -0.351873
C146  C     C_3   0.001212 0.498240 0.809635 -0.351877
C147  C     C_3   0.498791 0.998242 0.190361 -0.351897
C148  C     C_3   0.501209 0.998242 0.809639 -0.351897
C149  C     C_3   0.046939 0.491912 0.166745 0.400542
C150  C     C_3   0.953060 0.491918 0.833255 0.400537
C151  C     C_3   0.546951 0.991987 0.166732 0.400542
C152  C     C_3   0.453049 0.991989 0.833267 0.400543
H1    H     H_    0.991227 0.429100 0.215923 0.236241
H2    H     H_    0.008767 0.429101 0.784084 0.236241
H3    H     H_    0.491336 0.929093 0.215804 0.236253
H4    H     H_    0.508663 0.929093 0.784196 0.236251
H5    H     H_    0.050559 0.450230 0.243524 0.198246
H6    H     H_    0.949434 0.450238 0.756482 0.198254
H7    H     H_    0.550631 0.950308 0.243446 0.198309
H8    H     H_    0.449369 0.950309 0.756553 0.198308
H9    H     H_    0.061715 0.461512 0.131149 0.135601
H10   H     H_    0.938281 0.461520 0.868854 0.135603
H11   H     H_    0.561773 0.961610 0.131089 0.135749
H12   H     H_    0.438226 0.961611 0.868911 0.135748
H13   H     H_    0.778463 0.432760 0.756632 0.199700
H14   H     H_    0.221539 0.432755 0.243392 0.199690
H15   H     H_    0.278461 0.932797 0.756742 0.199767
H16   H     H_    0.721539 0.932794 0.243256 0.199765
H17   H     H_    0.953250 0.555086 0.349893 0.229413
H18   H     H_    0.046755 0.555082 0.650101 0.229406
H19   H     H_    0.453169 0.055018 0.349979 0.229470
H20   H     H_    0.546831 0.055017 0.650020 0.229468
H21   H     H_    0.722374 0.479134 0.868583 0.195870
H22   H     H_    0.277629 0.479114 0.131418 0.195851
H23   H     H_    0.222389 0.979294 0.868613 0.195806
H24   H     H_    0.777613 0.979286 0.131384 0.195815
H25   H     H_    0.071146 0.640060 0.923321 0.225732
H26   H     H_    0.928852 0.640060 0.076676 0.225732
H27   H     H_    0.571168 0.140057 0.924078 0.225747
H28   H     H_    0.428830 0.140058 0.075920 0.225746
H29   H     H_    0.000768 0.280461 0.099449 0.199400
H30   H     H_    0.999231 0.280460 0.900554 0.199400
H31   H     H_    0.501067 0.780462 0.099139 0.199372
H32   H     H_    0.498933 0.780462 0.900861 0.199371
H33   H     H_    0.451929 0.720358 0.975111 0.196524
H34   H     H_    0.548071 0.720357 0.024890 0.196523
H35   H     H_    0.952099 0.220366 0.974721 0.196538
H36   H     H_    0.047900 0.220366 0.025283 0.196538
O1    O     O_R   0.934520 0.536930 0.565470 -0.599272
O2    O     O_R   0.065480 0.536930 0.434530 -0.599300
O3    O     O_R   0.434520 0.036930 0.565470 -0.599296
O4    O     O_R   0.565480 0.036930 0.434530 -0.599299
O5    O     O_R   0.565440 0.499980 0.882290 -0.555650
O6    O     O_R   0.434560 0.499980 0.117710 -0.555663
O7    O     O_R   0.065440 0.999980 0.882290 -0.555580
O8    O     O_R   0.934560 0.999980 0.117710 -0.555582
O9    O     O_R   0.565450 0.499990 0.986830 -0.603851
O10   O     O_R   0.434550 0.499990 0.013170 -0.603864
O11   O     O_R   0.065450 0.999990 0.986830 -0.603865
O12   O     O_R   0.934550 0.999990 0.013170 -0.603862
O13   O     O_R   0.500010 0.565460 0.947720 -0.572816
O14   O     O_R   0.499990 0.565460 0.052280 -0.572807
O15   O     O_R   0.000010 0.065460 0.947720 -0.572703
O16   O     O_R   0.999990 0.065460 0.052280 -0.572703
O17   O     O_R   0.934480 0.463010 0.565510 -0.591049
O18   O     O_R   0.065520 0.463010 0.434490 -0.591052
O19   O     O_R   0.434480 0.963010 0.565510 -0.591035
O20   O     O_R   0.565520 0.963010 0.434490 -0.591034
O21   O     O_R   0.999990 0.536930 0.407410 -0.585713
O22   O     O_R   0.000010 0.536930 0.592590 -0.585731
O23   O     O_R   0.499990 0.036930 0.407410 -0.585656
O24   O     O_R   0.500010 0.036930 0.592590 -0.585660
O25   O     O_R   0.999940 0.463010 0.407450 -0.540308
O26   O     O_R   0.000060 0.463010 0.592550 -0.540297
O27   O     O_R   0.499940 0.963010 0.407450 -0.540257
O28   O     O_R   0.500060 0.963010 0.592550 -0.540255
O29   O     O_R   0.963000 0.565420 0.036990 -0.602430
O30   O     O_R   0.037000 0.565420 0.963010 -0.602429
O31   O     O_R   0.463000 0.065420 0.036990 -0.602479
O32   O     O_R   0.537000 0.065420 0.963010 -0.602479
O33   O     O_R   0.963020 0.499940 0.129580 -0.585835
O34   O     O_R   0.036980 0.499940 0.870420 -0.585838
O35   O     O_R   0.463020 0.999940 0.129580 -0.585753
O36   O     O_R   0.536980 0.999940 0.870420 -0.585753
O37   O     O_R   0.036940 0.500000 0.055660 -0.569084
O38   O     O_R   0.963060 0.500000 0.944340 -0.569095
O39   O     O_R   0.536940 0.000000 0.055660 -0.569231
O40   O     O_R   0.463060 0.000000 0.944340 -0.569235
O41   O     O_R   0.963020 0.434470 0.036970 -0.618169
O42   O     O_R   0.036980 0.434470 0.963030 -0.618168
O43   O     O_R   0.463020 0.934470 0.036970 -0.618140
O44   O     O_R   0.536980 0.934470 0.963030 -0.618141
O45   O     O_R   0.499930 0.434510 0.947790 -0.560703
O46   O     O_R   0.500070 0.434510 0.052210 -0.560703
O47   O     O_R   0.999930 0.934510 0.947790 -0.560867
O48   O     O_R   0.000070 0.934510 0.052210 -0.560868
Zn1   Zn    Zn3+2 0.000000 0.549330 0.500000 1.154401
Zn2   Zn    Zn3+2 0.500000 0.049330 0.500000 1.154354
Zn3   Zn    Zn3+2 0.000000 0.450610 0.500000 1.196013
Zn4   Zn    Zn3+2 0.500000 0.950610 0.500000 1.196116
Zn5   Zn    Zn3+2 0.950610 0.499940 0.049380 1.141895
Zn6   Zn    Zn3+2 0.049390 0.499940 0.950620 1.141903
Zn7   Zn    Zn3+2 0.450610 0.999940 0.049380 1.141895
Zn8   Zn    Zn3+2 0.549390 0.999940 0.950620 1.141897
Zn9   Zn    Zn3+2 0.499970 0.499980 0.930220 1.187338
Zn10  Zn    Zn3+2 0.500030 0.499980 0.069780 1.187343
Zn11  Zn    Zn3+2 0.999970 0.999980 0.930220 1.187340
Zn12  Zn    Zn3+2 0.000030 0.999980 0.069780 1.187338
C153  C     C_2   0.014419 0.586640 0.287002 1.132015
O49   O     O_2   0.999531 0.614311 0.337856 -0.563013
O50   O     O_R   0.056162 0.593071 0.218921 -0.660877
H37   H     H_    0.070969 0.620946 0.219645 0.368450
C154  C     C_2   0.985589 0.586643 0.712989 1.132014
O51   O     O_2   0.000480 0.614311 0.662133 -0.563010
O52   O     O_R   0.943847 0.593079 0.781070 -0.660884
H38   H     H_    0.929043 0.620955 0.780343 0.368446
C155  C     C_2   0.514292 0.086663 0.287135 1.132084
O53   O     O_2   0.499362 0.114314 0.338027 -0.563008
O54   O     O_R   0.556028 0.093154 0.219067 -0.660902
H39   H     H_    0.570793 0.121051 0.219831 0.368451
C156  C     C_2   0.485709 0.086663 0.712865 1.132083
O55   O     O_2   0.500640 0.114314 0.661972 -0.563009
O56   O     O_R   0.443974 0.093155 0.780932 -0.660901
H40   H     H_    0.429208 0.121052 0.780168 0.368450
C157  C     C_2   0.862598 0.424598 0.693515 1.000348
O57   O     O_2   0.890601 0.430874 0.704700 -0.618887
O58   O     O_R   0.848209 0.381557 0.695589 -0.749287
H41   H     H_    0.864112 0.358496 0.705161 0.369541
C158  C     C_2   0.137404 0.424588 0.306509 1.000357
O59   O     O_2   0.109407 0.430856 0.295307 -0.618855
O60   O     O_R   0.151788 0.381548 0.304464 -0.749279
H42   H     H_    0.135887 0.358482 0.294899 0.369537
C159  C     C_2   0.362599 0.924646 0.693632 1.000323
O61   O     O_2   0.390624 0.930953 0.704756 -0.618979
O62   O     O_R   0.348186 0.881597 0.695837 -0.749295
H43   H     H_    0.364092 0.858557 0.705441 0.369574
C160  C     C_2   0.637400 0.924644 0.306367 1.000324
O63   O     O_2   0.609375 0.930951 0.295245 -0.618979
O64   O     O_R   0.651813 0.881595 0.304163 -0.749296
H44   H     H_    0.635907 0.858555 0.294560 0.369573
C161  C     C_2   0.863545 0.574697 0.580582 1.047902
O65   O     O_2   0.891135 0.568734 0.512156 -0.610418
O66   O     O_R   0.851024 0.617727 0.609354 -0.696325
H45   H     H_    0.867645 0.641069 0.568140 0.369691
C162  C     C_2   0.136454 0.574712 0.419373 1.047993
O67   O     O_2   0.108886 0.568760 0.487810 -0.610357
O68   O     O_R   0.148946 0.617738 0.390566 -0.696388
H46   H     H_    0.132324 0.641088 0.431767 0.369684
C163  C     C_2   0.363559 0.074654 0.580454 1.047967
O69   O     O_2   0.391158 0.068661 0.512039 -0.610492
O70   O     O_R   0.351039 0.117695 0.609166 -0.696353
H47   H     H_    0.367669 0.141021 0.567922 0.369713
C164  C     C_2   0.636441 0.074653 0.419541 1.047979
O71   O     O_2   0.608846 0.068662 0.487957 -0.610488
O72   O     O_R   0.648956 0.117695 0.390827 -0.696362
H48   H     H_    0.632327 0.141021 0.432070 0.369712
F1    F     F_    0.773156 0.571574 0.683355 -0.615315
F2    F     F_    0.226841 0.571592 0.316600 -0.615335
F3    F     F_    0.273165 0.071530 0.683179 -0.615326
F4    F     F_    0.726835 0.071529 0.316816 -0.615330
C165  C     C_2   0.725759 0.508513 0.652323 1.052461
O73   O     O_2   0.711051 0.533395 0.627673 -0.484494
O74   O     O_R   0.763894 0.484120 0.601309 -0.799311
H49   H     H_    0.776394 0.490323 0.545929 0.360491
C166  C     C_2   0.274240 0.508553 0.347668 1.052457
O75   O     O_2   0.288950 0.533442 0.372307 -0.484487
O76   O     O_R   0.236102 0.484166 0.398694 -0.799329
H50   H     H_    0.223604 0.490379 0.454072 0.360493
C167  C     C_2   0.225761 0.008350 0.652281 1.052467
O77   O     O_2   0.211047 0.033175 0.627571 -0.484535
O78   O     O_R   0.263901 0.983949 0.601326 -0.799305
H51   H     H_    0.276399 0.990096 0.545930 0.360498
C168  C     C_2   0.774238 0.008351 0.347718 1.052466
O79   O     O_2   0.788950 0.033178 0.372427 -0.484532
O80   O     O_R   0.736098 0.983949 0.398673 -0.799304
H52   H     H_    0.723600 0.990098 0.454068 0.360497
F5    F     F_    0.634569 0.515019 0.755296 -0.588485
F6    F     F_    0.365431 0.515063 0.244690 -0.588486
F7    F     F_    0.134571 0.014829 0.755230 -0.588487
F8    F     F_    0.865428 0.014829 0.244771 -0.588488
C169  C     C_2   0.638100 0.465855 0.971160 1.006364
O81   O     O_2   0.610418 0.436555 0.996308 -0.532673
O82   O     O_R   0.652601 0.480964 0.014125 -0.755131
H53   H     H_    0.636960 0.465886 0.065748 0.371931
C170  C     C_2   0.361904 0.465834 0.028851 1.006361
O83   O     O_2   0.389581 0.436529 0.003727 -0.532677
O84   O     O_R   0.347416 0.480939 0.985864 -0.755110
H54   H     H_    0.363061 0.465853 0.934248 0.371932
C171  C     C_2   0.138122 0.966068 0.971254 1.006389
O85   O     O_2   0.110484 0.936720 0.996485 -0.532213
O86   O     O_R   0.152585 0.981347 0.014190 -0.755127
H55   H     H_    0.136955 0.966337 0.065868 0.371858
C172  C     C_2   0.861880 0.966058 0.028747 1.006388
O87   O     O_2   0.889523 0.936714 0.003515 -0.532208
O88   O     O_R   0.847412 0.981327 0.985813 -0.755135
H56   H     H_    0.863042 0.966314 0.934138 0.371862
F9    F     F_    0.078819 0.725303 0.914489 -0.582641
F10   F     F_    0.921179 0.725303 0.085505 -0.582645
F11   F     F_    0.578847 0.225296 0.915305 -0.582577
F12   F     F_    0.421152 0.225297 0.084689 -0.582577
F13   F     F_    0.465987 0.274413 0.934431 -0.538827
F14   F     F_    0.534011 0.274411 0.065566 -0.538830
F15   F     F_    0.965596 0.774419 0.935094 -0.538916
F16   F     F_    0.034402 0.774417 0.064900 -0.538914
F17   F     F_    0.464759 0.364081 0.935779 -0.529460
F18   F     F_    0.535238 0.364079 0.064224 -0.529466
F19   F     F_    0.964391 0.864097 0.936419 -0.529516
F20   F     F_    0.035606 0.864095 0.063581 -0.529517
F21   F     F_    0.002515 0.365952 0.108371 -0.641186
F22   F     F_    0.997484 0.365950 0.891631 -0.641177
F23   F     F_    0.502851 0.865952 0.108012 -0.641217
F24   F     F_    0.497150 0.865951 0.891987 -0.641214
F25   F     F_    0.447161 0.635209 0.970960 -0.606270
F26   F     F_    0.552839 0.635208 0.029041 -0.606275
F27   F     F_    0.947339 0.135219 0.970548 -0.606211
F28   F     F_    0.052660 0.135219 0.029453 -0.606212
F29   F     F_    0.937344 0.549139 0.259663 -0.571719
F30   F     F_    0.062661 0.549134 0.740332 -0.571715
F31   F     F_    0.437270 0.049049 0.259744 -0.571650
F32   F     F_    0.562731 0.049048 0.740255 -0.571648
F33   F     F_    0.003616 0.577760 0.177846 -0.595195
F34   F     F_    0.996391 0.577762 0.822147 -0.595197
F35   F     F_    0.503499 0.077771 0.177969 -0.595225
F36   F     F_    0.496502 0.077771 0.822030 -0.595227
C173  C     C_2   0.087535 0.506194 0.226534 1.115288
O89   O     O_2   0.123750 0.494551 0.171105 -0.542247
O90   O     O_R   0.084866 0.536183 0.278336 -0.806244
H57   H     H_    0.114821 0.546433 0.262714 0.345975
C174  C     C_2   0.912465 0.506206 0.773468 1.115304
O91   O     O_2   0.876249 0.494569 0.828899 -0.542255
O92   O     O_R   0.915137 0.536194 0.721661 -0.806241
H58   H     H_    0.885183 0.546447 0.737282 0.345967
C175  C     C_2   0.587529 0.006321 0.226537 1.115269
O93   O     O_2   0.623759 0.994730 0.171089 -0.542326
O94   O     O_R   0.584822 0.036302 0.278385 -0.806113
H59   H     H_    0.614764 0.046584 0.262783 0.346003
C176  C     C_2   0.412471 0.006323 0.773462 1.115269
O95   O     O_2   0.376241 0.994733 0.828911 -0.542327
O96   O     O_R   0.415179 0.036304 0.721615 -0.806112
H60   H     H_    0.385237 0.046586 0.737216 0.346002
F37   F     F_    0.073527 0.527114 0.121950 -0.535130
F38   F     F_    0.926476 0.527123 0.878049 -0.535133
F39   F     F_    0.573486 0.027229 0.121990 -0.535179
F40   F     F_    0.426514 0.027231 0.878010 -0.535180
F41   F     F_    0.978788 0.422298 0.332177 -0.598159
F42   F     F_    0.021202 0.422296 0.667834 -0.598157
F43   F     F_    0.478901 0.922266 0.332050 -0.598139
F44   F     F_    0.521098 0.922266 0.667950 -0.598139
C177  C     C_2   0.919166 0.470959 0.393108 0.907205
O97   O     O_2   0.903437 0.445094 0.446700 -0.529114
O98   O     O_R   0.893716 0.506571 0.398511 -0.727871
H61   H     H_    0.863358 0.507131 0.448812 0.371954
C178  C     C_2   0.080830 0.470950 0.606893 0.907177
O99   O     O_2   0.096556 0.445080 0.553308 -0.529096
O100  O     O_R   0.106283 0.506562 0.601480 -0.727889
H62   H     H_    0.136639 0.507119 0.551177 0.371964
C179  C     C_2   0.419206 0.970838 0.393055 0.907271
O101  O     O_2   0.403513 0.944945 0.446602 -0.529043
O102  O     O_R   0.393707 0.006417 0.398518 -0.727875
H63   H     H_    0.363349 0.006933 0.448822 0.371915
C180  C     C_2   0.580793 0.970837 0.606944 0.907267
O103  O     O_2   0.596486 0.944943 0.553397 -0.529041
O104  O     O_R   0.606294 0.006415 0.601482 -0.727874
H64   H     H_    0.636651 0.006930 0.551178 0.371916
C181  C     C_2   0.927454 0.447058 0.255944 1.040501
O105  O     O_2   0.922361 0.409438 0.241385 -0.543342
O106  O     O_R   0.894105 0.478268 0.281248 -0.667861
H65   H     H_    0.867756 0.465729 0.285237 0.351471
C182  C     C_2   0.072542 0.447054 0.744058 1.040501
O107  O     O_2   0.077633 0.409435 0.758623 -0.543337
O108  O     O_R   0.105894 0.478261 0.718746 -0.667860
H66   H     H_    0.132244 0.465720 0.714757 0.351475
C183  C     C_2   0.427539 0.946954 0.255837 1.040316
O109  O     O_2   0.422515 0.909333 0.241175 -0.543668
O110  O     O_R   0.394136 0.978108 0.281218 -0.667835
H67   H     H_    0.367810 0.965530 0.285170 0.351489
C184  C     C_2   0.572460 0.946953 0.744163 1.040314
O111  O     O_2   0.577484 0.909332 0.758825 -0.543668
O112  O     O_R   0.605864 0.978106 0.718783 -0.667833
H68   H     H_    0.632190 0.965528 0.714831 0.351488

loop_
_geom_bond_atom_site_label_1
_geom_bond_atom_site_label_2
_ccdc_geom_bond_type
C55   C59   A    
C108  C120  A    
O70   H47   S    
C96   F16   S    
C77   F9    S    
O1    Zn1   S    
C79   C87   A    
O34   Zn6   S    
C172  O87   D    
C61   O29   A    
C179  O102  S    
C72   O6    A    
C6    C146  S    
C95   C99   A    
O60   H42   S    
C47   C143  S    
C86   H26   S    
C100  F20   S    
C31   C59   S    
C9    C13   A    
C146  C150  S    
C11   C15   A    
C12   C16   A    
O35   Zn7   S    
C83   H19   S    
C45   O25   A    
C138  F42   S    
C3    C19   S    
C81   H17   S    
C65   C147  S    
C66   C148  S    
C68   O43   A    
C183  O110  S    
O8    Zn12  S    
C11   H15   S    
O2    Zn1   S    
C41   C49   A    
C136  C152  S    
C75   O14   A    
C99   F19   S    
C4    O20   A    
C25   C29   A    
C136  C176  S    
C135  H7    S    
C117  F35   S    
C27   C31   A    
O82   H53   S    
C27   F3    S    
O96   H60   S    
C126  C129  A    
O37   Zn6   S    
C46   O22   A    
O7    Zn11  S    
C17   C21   A    
C137  C177  S    
C80   C92   A    
C19   C23   A    
C10   C30   A    
O4    Zn2   S    
O74   H49   S    
C16   C20   A    
C42   C72   S    
C44   C74   S    
O19   Zn4   S    
C125  F25   S    
C50   C170  S    
C74   O12   A    
C8    C184  S    
C158  O60   S    
C177  O97   D    
C93   F13   S    
C107  C120  A    
C156  O56   S    
C77   C91   A    
C64   C146  S    
C117  F31   S    
C2    O2    A    
O94   H59   S    
C5    C137  S    
C69   C101  S    
C178  O99   D    
C8    C140  S    
C3    O19   A    
C62   O31   A    
C54   H22   S    
C80   C88   A    
C181  O105  D    
C83   C143  S    
O45   Zn9   S    
C49   C53   A    
C9    H13   S    
C51   C55   A    
C70   O47   A    
O88   H56   S    
C110  F22   S    
C125  C129  A    
C67   O41   A    
C162  O68   S    
C169  O81   D    
O6    Zn10  S    
C34   C58   A    
C38   F6    S    
C182  O107  D    
C173  O89   D    
C52   C172  S    
C43   C73   S    
C122  C126  A    
C138  C178  S    
C47   O23   A    
C123  C132  A    
O48   Zn12  S    
O112  H68   S    
C93   C103  A    
C112  C114  A    
C180  O103  D    
C14   C158  S    
C53   H21   S    
C63   O37   A    
O33   Zn5   S    
C48   C144  S    
C153  O49   D    
C56   H24   S    
O21   Zn1   S    
C154  O51   D    
C150  F38   S    
C168  O80   S    
C84   C144  S    
O10   Zn9   S    
O102  H63   S    
C118  F36   S    
C65   O39   A    
C155  O53   D    
C15   C159  S    
C69   O45   A    
C21   C161  S    
C76   C130  S    
C51   C171  S    
C166  O76   S    
C82   C154  S    
C2    O18   A    
C135  C175  S    
C41   C71   S    
C44   C52   A    
C135  C143  S    
C77   C85   A    
C160  O63   D    
C79   F11   S    
C171  O86   S    
C184  O112  S    
C119  C132  S    
C7    C147  S    
C167  O78   S    
C5    C145  S    
O28   Zn4   S    
C48   O24   A    
C10   C14   A    
O39   Zn8   S    
C124  H36   S    
C140  F44   S    
C45   O21   A    
C118  F32   S    
C139  F43   S    
C147  C151  S    
C121  C125  A    
C164  O71   D    
O42   Zn6   S    
C137  F41   S    
C35   C167  S    
C33   C165  S    
C123  C127  A    
C10   H14   S    
C163  O69   D    
C79   C92   A    
C64   O34   A    
O16   Zn12  S    
C157  O58   S    
C49   C169  S    
O11   Zn12  S    
C42   C50   A    
C151  F39   S    
C134  H6    S    
C26   C30   A    
C115  F29   S    
C93   C97   A    
C122  C131  A    
C63   O33   A    
C21   C25   A    
C18   C22   A    
C107  C111  A    
C148  C152  S    
C115  F33   S    
C23   C163  S    
C53   C57   A    
O58   H41   S    
C161  O66   S    
C1    C17   S    
C128  F28   S    
C28   F4    S    
C179  O101  D    
C116  C146  S    
C96   C100  A    
C159  O62   S    
C133  H5    S    
O30   Zn6   S    
C37   C41   A    
C97   F17   S    
C176  O96   S    
C149  F37   S    
C136  H8    S    
C40   C44   A    
O15   Zn11  S    
C84   C118  S    
C66   O40   A    
O66   H45   S    
C105  H29   S    
C63   C145  S    
O24   Zn2   S    
C68   O44   A    
C174  O92   S    
C1    O1    A    
C165  O74   S    
C183  O109  D    
C106  C119  A    
C120  C131  S    
C4    O4    A    
O62   H43   S    
C82   C142  S    
C82   H18   S    
C75   O13   A    
C76   O15   A    
O56   H40   S    
C46   C142  S    
C15   C19   A    
C50   C54   A    
C133  C173  S    
C175  O94   S    
C54   C58   A    
C71   O5    A    
C94   C98   A    
O92   H58   S    
C35   C59   A    
C152  F40   S    
C105  C109  A    
O90   H57   S    
C47   O27   A    
C140  C180  S    
C37   F5    S    
O64   H44   S    
O18   Zn3   S    
C39   F7    S    
C40   F8    S    
C124  C128  A    
O3    Zn2   S    
C172  O88   S    
O80   H52   S    
C158  O59   D    
C45   C141  S    
C8    C148  S    
O14   Zn10  S    
O12   Zn11  S    
C88   H28   S    
C98   F18   S    
C150  H10   S    
O76   H50   S    
O22   Zn1   S    
C24   C28   A    
O13   Zn9   S    
C61   O30   A    
O50   H37   S    
C138  C142  S    
O72   H48   S    
C108  H32   S    
C116  F30   S    
C33   C37   A    
C56   C60   A    
C62   O32   A    
C35   C39   A    
O86   H55   S    
C162  O67   D    
C22   C162  S    
C134  C142  S    
O32   Zn8   S    
C13   C157  S    
O68   H46   S    
C28   C32   A    
O23   Zn2   S    
C78   F10   S    
C70   O48   A    
C126  F26   S    
C88   C90   A    
C94   C103  A    
C73   O7    A    
C84   C156  S    
C149  H9    S    
C32   C60   S    
C65   O35   A    
C5    C181  S    
C137  C141  S    
C85   C89   A    
O44   Zn8   S    
C165  O73   D    
C140  C144  S    
C86   C89   A    
C128  C130  A    
O100  H62   S    
C70   C102  S    
C13   C17   A    
C98   C101  A    
C115  C145  S    
C133  C141  S    
C117  C147  S    
C118  C148  S    
O26   Zn3   S    
C82   C116  S    
O84   H54   S    
C136  C144  S    
O46   Zn10  S    
C43   C51   A    
C168  O79   D    
C156  O55   D    
O40   Zn7   S    
C24   C164  S    
C135  C151  S    
C80   F12   S    
C83   C155  S    
C111  C114  A    
C170  O83   D    
O29   Zn5   S    
C94   F14   S    
C72   O10   A    
C108  C112  A    
C99   C102  A    
C7    H3    S    
C85   H25   S    
C166  O75   D    
C22   C26   A    
C87   C90   A    
O108  H66   S    
C177  O98   S    
O5    Zn9   S    
C105  C119  A    
O27   Zn4   S    
C145  C149  S    
O78   H51   S    
C48   O28   A    
C84   H20   S    
C2    C18   S    
C171  O85   D    
C14   C18   A    
O104  H64   S    
C91   C104  S    
O20   Zn4   S    
C64   O38   A    
C184  O111  D    
O98   H61   S    
C167  O77   D    
C127  F27   S    
C178  O100  S    
C124  C132  A    
C16   C160  S    
C38   C42   A    
C173  O90   S    
C181  O106  S    
C134  C150  S    
C30   C58   S    
O9    Zn10  S    
O41   Zn5   S    
C26   F2    S    
C170  O84   S    
O17   Zn3   S    
C106  H30   S    
C34   C166  S    
C92   C103  S    
C36   C168  S    
C20   C24   A    
C67   O42   A    
C169  O82   S    
O106  H65   S    
C7    C183  S    
C23   C27   A    
C182  O108  S    
C1    O17   A    
C157  O57   D    
C9    C29   A    
C78   C86   A    
C122  H34   S    
C81   C141  S    
C11   C31   A    
C111  F23   S    
C12   C32   A    
C139  C179  S    
C139  C143  S    
C121  C131  A    
O47   Zn11  S    
C180  O104  S    
C61   C89   S    
C71   O9    A    
C74   O8    A    
C153  O50   S    
C6    C182  S    
C29   C57   S    
C36   C40   A    
C133  C149  S    
C66   O36   A    
C154  O52   S    
O36   Zn8   S    
O38   Zn5   S    
C39   C43   A    
C46   O26   A    
C161  O65   D    
C87   H27   S    
C107  H31   S    
C155  O54   S    
C6    C138  S    
O43   Zn7   S    
C69   O46   A    
C3    O3    A    
O52   H38   S    
O110  H67   S    
C81   C115  S    
C109  F21   S    
C100  C102  A    
C159  O61   D    
C6    H2    S    
C112  F24   S    
C110  C113  A    
C55   H23   S    
C176  O95   D    
C152  H12   S    
C83   C117  S    
C151  H11   S    
C160  O64   S    
C25   F1    S    
O54   H39   S    
C95   C104  A    
C174  O91   D    
C106  C110  A    
C116  F34   S    
C33   C57   A    
C34   C38   A    
C81   C153  S    
O25   Zn3   S    
C12   H16   S    
C76   O16   A    
C134  C174  S    
C4    C20   S    
C109  C113  A    
C78   C91   A    
C95   F15   S    
C96   C104  A    
C67   C113  S    
C127  C130  A    
C164  O72   S    
C175  O93   D    
C7    C139  S    
C73   O11   A    
C5    H1    S    
C62   C90   S    
C163  O70   S    
O31   Zn7   S    
C123  H35   S    
C8    H4    S    
C121  H33   S    
C75   C129  S    
C36   C60   A    
C97   C101  A    
C52   C56   A    
C68   C114  S    
