data_mof_unit_7913.cif
_audit_creation_date              2013-03-05T16:44:52-0500
_audit_creation_method            fapswitch 2.2
_symmetry_space_group_name_H-M    P1
_symmetry_Int_Tables_number       1
_space_group_crystal_system       triclinic
_cell_length_a                    15.88364
_cell_length_b                    15.821021
_cell_length_c                    17.161145
_cell_angle_alpha                 83.805159
_cell_angle_beta                  88.806459
_cell_angle_gamma                 112.315497
_cell_volume                      3957.27807474

loop_
_atom_site_label
_atom_site_type_symbol
_atom_site_description
_atom_site_fract_x
_atom_site_fract_y
_atom_site_fract_z
_atom_type_partial_charge
O1    O     O_R   0.504130 0.580750 0.382440 -0.566288
O2    O     O_R   0.495870 0.419250 0.617560 -0.568463
O3    O     O_R   0.496670 0.435250 0.388990 -0.518684
O4    O     O_R   0.503330 0.564750 0.611010 -0.504252
C1    C     C_R   0.497074 0.509128 0.348754 0.939861
C2    C     C_R   0.503371 0.490511 0.651580 0.901608
O5    O     O_R   0.635650 0.613550 0.494890 -0.560155
O6    O     O_R   0.364350 0.386450 0.505110 -0.562300
O7    O     O_R   0.628200 0.468050 0.501440 -0.559288
O8    O     O_R   0.371800 0.531950 0.498560 -0.556595
C3    C     C_R   0.675192 0.555549 0.499289 0.851540
C4    C     C_R   0.324742 0.444258 0.500424 0.860744
Cu1   Cu    Cu3+1 0.504410 0.586150 0.496120 1.022300
Cu2   Cu    Cu3+1 0.495590 0.413850 0.503880 1.011866
C5    C     C_R   0.775264 0.589056 0.502438 -0.219508
C6    C     C_R   0.224302 0.409448 0.498379 -0.213430
C7    C     C_R   0.923070 0.706928 0.520301 0.413505
C8    C     C_R   0.076464 0.288861 0.484992 0.425689
C9    C     C_R   0.827483 0.678056 0.520466 0.382297
C10   C     C_R   0.172545 0.320247 0.480714 0.383045
C11   C     C_R   0.817894 0.528846 0.489225 -0.309889
C12   C     C_R   0.180693 0.468001 0.513251 -0.318085
C13   C     C_R   0.910480 0.550364 0.501970 -0.010619
C14   C     C_R   0.087043 0.444527 0.503656 -0.014275
C15   C     C_R   0.964210 0.641647 0.516408 -0.130709
C16   C     C_R   0.033339 0.352385 0.491578 -0.120243
C17   C     C_R   0.950801 0.483470 0.500261 0.047242
C18   C     C_R   0.046031 0.510524 0.506423 0.045591
C19   C     C_R   0.097743 0.603141 0.515332 -0.305233
C20   C     C_R   0.898517 0.390140 0.493731 -0.320092
C21   C     C_R   0.057647 0.665176 0.527240 0.484087
C22   C     C_R   0.938597 0.326399 0.484743 0.502271
H1    H     H_    0.222821 0.532781 0.531171 0.206561
H2    H     H_    0.776376 0.464497 0.469666 0.210568
H3    H     H_    0.170570 0.630891 0.513930 0.160423
H4    H     H_    0.825215 0.363285 0.497152 0.163172
C23   C     C_R   0.492739 0.510657 0.262911 -0.329108
C24   C     C_R   0.505038 0.483772 0.738492 -0.386522
C25   C     C_R   0.445550 0.427933 0.231287 0.288108
C26   C     C_R   0.515387 0.561052 0.777351 0.325774
C27   C     C_R   0.447663 0.428013 0.148800 0.237465
C28   C     C_R   0.497605 0.548991 0.859654 0.292100
C29   C     C_R   0.507811 0.507153 0.099905 0.068434
C30   C     C_R   0.480584 0.462049 0.903315 0.013283
C31   C     C_R   0.553963 0.588250 0.132404 0.296195
C32   C     C_R   0.479299 0.387707 0.864970 0.351128
C33   C     C_R   0.537955 0.592576 0.212401 0.238231
C34   C     C_R   0.493766 0.398989 0.783254 0.269618
N1    N     N_2   0.522161 0.511894 0.017359 -0.110735
N2    N     N_2   0.466036 0.448489 0.986053 -0.150689
N3    N     N_R   0.488960 0.284450 0.509710 -0.230435
N4    N     N_R   0.511040 0.715550 0.490290 -0.226284
C35   C     C_R   0.548082 0.266014 0.461405 0.667362
C36   C     C_R   0.451058 0.735332 0.536518 0.669879
C37   C     C_R   0.548056 0.175708 0.467274 -0.480916
C38   C     C_R   0.459267 0.828586 0.534847 -0.464585
C39   C     C_R   0.483569 0.103247 0.518136 0.225706
C40   C     C_R   0.526862 0.900574 0.485964 0.227716
C41   C     C_R   0.422215 0.124560 0.565188 0.337388
C42   C     C_R   0.587508 0.877091 0.439190 0.308325
C43   C     C_R   0.426756 0.215761 0.560306 -0.149641
C44   C     C_R   0.577830 0.784160 0.443198 -0.133810
N5    N     N_2   0.475868 0.008996 0.522241 -0.194893
N6    N     N_2   0.536668 0.995479 0.483716 -0.224011
H5    H     H_    0.415198 0.846382 0.572807 0.191760
H6    H     H_    0.597295 0.162189 0.431785 0.173173
H7    H     H_    0.380006 0.231628 0.597101 0.180493
H8    H     H_    0.624986 0.766815 0.408207 0.188540
O9    O     O_3   0.112857 0.750477 0.546690 -0.555073
C45   C     C_3   0.113298 0.744878 0.629281 -0.251263
H9    H     H_    0.160378 0.812152 0.645010 0.194917
H10   H     H_    0.138242 0.691485 0.654344 0.116563
H11   H     H_    0.044344 0.730789 0.656511 0.183159
O10   O     O_3   0.884419 0.236040 0.475519 -0.544136
C46   C     C_3   0.829617 0.232099 0.411333 -0.273092
H12   H     H_    0.864455 0.286385 0.361223 0.139871
H13   H     H_    0.764414 0.235777 0.431153 0.152916
H14   H     H_    0.813054 0.164534 0.389566 0.207253
O11   O     O_3   0.387874 0.662280 0.586622 -0.544161
C47   C     C_3   0.317782 0.682735 0.621621 -0.464258
H15   H     H_    0.264006 0.617460 0.649381 0.193041
H16   H     H_    0.285942 0.715653 0.577552 0.196139
H17   H     H_    0.343658 0.727133 0.668724 0.154524
O12   O     O_3   0.610618 0.339058 0.411477 -0.545354
C48   C     C_3   0.628925 0.313720 0.338470 -0.389346
H18   H     H_    0.643957 0.373752 0.292876 0.190920
H19   H     H_    0.570839 0.255538 0.319577 0.137406
H20   H     H_    0.690276 0.296509 0.340529 0.153869
O13   O     O_3   0.353331 0.055542 0.612417 -0.576225
C49   C     C_3   0.387574 0.033194 0.683846 0.070834
H21   H     H_    0.463263 0.054410 0.681667 0.132532
H22   H     H_    0.357920 0.957101 0.698558 0.158711
C50   C     C_3   0.357439 0.075073 0.749576 -0.793455
H23   H     H_    0.281821 0.049258 0.755673 0.247896
H24   H     H_    0.382648 0.055827 0.805914 0.210734
H25   H     H_    0.385438 0.151209 0.736447 0.287814
O14   O     O_3   0.663185 0.942794 0.395529 -0.581707
C51   C     C_3   0.638850 0.001372 0.340319 0.094252
H26   H     H_    0.648911 0.066350 0.364703 0.159352
H27   H     H_    0.567025 0.970256 0.323508 0.134702
C52   C     C_3   0.701998 0.026088 0.266240 -0.839836
H28   H     H_    0.694852 0.963113 0.239465 0.254347
H29   H     H_    0.684544 0.073403 0.223041 0.199056
H30   H     H_    0.773986 0.060774 0.280553 0.254421
O15   O     O_3   0.216175 0.271636 0.445439 -0.538333
C53   C     C_3   0.214438 0.195403 0.497142 -0.183968
H31   H     H_    0.221349 0.209234 0.559511 0.116103
H32   H     H_    0.272712 0.178099 0.479061 0.178681
H33   H     H_    0.152249 0.133994 0.491038 0.184051
O16   O     O_3   0.783873 0.729408 0.551355 -0.547755
C54   C     C_3   0.793289 0.807274 0.498112 -0.172538
H34   H     H_    0.737590 0.829762 0.513077 0.190111
H35   H     H_    0.788302 0.792934 0.435824 0.118202
H36   H     H_    0.857276 0.865912 0.505777 0.188591
O17   O     O_3   0.974575 0.797619 0.529297 -0.540810
C55   C     C_3   0.011679 0.846224 0.454348 -0.256978
H37   H     H_    0.048288 0.920081 0.460848 0.189378
H38   H     H_    0.957901 0.841270 0.412542 0.109750
H39   H     H_    0.061568 0.821655 0.428370 0.189495
O18   O     O_3   0.026357 0.197727 0.476452 -0.528537
C56   C     C_3   0.997326 0.147625 0.552197 -0.246548
H40   H     H_    0.055564 0.153110 0.588903 0.105048
H41   H     H_    0.960423 0.073818 0.545670 0.192199
H42   H     H_    0.949877 0.170522 0.584255 0.188306
O19   O     O_3   0.558001 0.648372 0.735743 -0.521712
C57   C     C_3   0.503605 0.700702 0.738416 -0.136701
H43   H     H_    0.429372 0.657844 0.741097 0.133279
H44   H     H_    0.520588 0.750438 0.684268 0.170693
H45   H     H_    0.520805 0.742606 0.787864 0.178570
O20   O     O_3   0.387892 0.352044 0.281729 -0.541619
C58   C     C_3   0.402976 0.271367 0.271340 -0.128729
H46   H     H_    0.468599 0.284123 0.238217 0.120153
H47   H     H_    0.345745 0.225084 0.240941 0.175017
H48   H     H_    0.403206 0.234560 0.330106 0.153391
O21   O     O_3   0.504689 0.624072 0.897758 -0.513622
C59   C     C_3   0.416313 0.617081 0.922246 0.092160
H49   H     H_    0.380530 0.554917 0.965153 0.150750
H50   H     H_    0.373392 0.614373 0.871457 0.095202
C60   C     C_3   0.424364 0.700932 0.962051 -0.788215
H51   H     H_    0.458455 0.764805 0.920636 0.236690
H52   H     H_    0.355393 0.696521 0.981011 0.183883
H53   H     H_    0.464731 0.703920 0.014476 0.271151
O22   O     O_3   0.394458 0.349869 0.116978 -0.557216
C61   C     C_3   0.305611 0.349214 0.111203 0.111782
H54   H     H_    0.306894 0.414599 0.078480 0.123021
H55   H     H_    0.270952 0.338750 0.170549 0.173953
C62   C     C_3   0.250125 0.270309 0.066866 -0.775903
H56   H     H_    0.246223 0.203776 0.098592 0.243517
H57   H     H_    0.179969 0.268771 0.062014 0.190139
H58   H     H_    0.282564 0.279595 0.006889 0.273607
O23   O     O_3   0.607622 0.666594 0.083378 -0.545373
C63   C     C_3   0.699921 0.681800 0.093123 -0.245058
H59   H     H_    0.715539 0.621948 0.079139 0.145008
H60   H     H_    0.718836 0.697390 0.153544 0.168644
H61   H     H_    0.742949 0.742486 0.051607 0.183157
O24   O     O_3   0.460402 0.301298 0.905892 -0.532532
C64   C     C_3   0.531949 0.302770 0.954144 -0.233759
H62   H     H_    0.512771 0.307028 0.015709 0.212284
H63   H     H_    0.598984 0.359511 0.934792 0.111444
H64   H     H_    0.541421 0.236894 0.953500 0.161738
O25   O     O_3   0.565129 0.676667 0.241213 -0.551513
C65   C     C_3   0.515757 0.727491 0.206232 0.147761
H65   H     H_    0.448369 0.683624 0.185988 0.114529
H66   H     H_    0.557456 0.775674 0.155204 0.183094
C66   C     C_3   0.496805 0.783591 0.265285 -0.843615
H67   H     H_    0.562396 0.828857 0.285289 0.263367
H68   H     H_    0.461584 0.826630 0.237591 0.196782
H69   H     H_    0.453187 0.737305 0.316288 0.260736
O26   O     O_3   0.499640 0.326503 0.748076 -0.532876
C67   C     C_3   0.592720 0.339036 0.740464 0.143424
H70   H     H_    0.624260 0.346682 0.797959 0.122055
H71   H     H_    0.632027 0.401059 0.698210 0.139616
C68   C     C_3   0.601246 0.255640 0.710147 -0.796601
H72   H     H_    0.574866 0.247980 0.650987 0.246463
H73   H     H_    0.674074 0.264625 0.705872 0.198794
H74   H     H_    0.562438 0.192476 0.750977 0.244109

loop_
_geom_bond_atom_site_label_1
_geom_bond_atom_site_label_2
_geom_bond_distance
_ccdc_geom_bond_type
C15   C21   1.408051 A    
C24   C26   1.412261 A    
C16   C22   1.412544 A    
C52   H28   1.109863 S    
C1    C23   1.474218 S    
O26   C67   1.416309 S    
C35   C37   1.421223 A    
C62   H56   1.110700 S    
N3    C43   1.362465 A    
C46   H12   1.114995 S    
C58   H48   1.109601 S    
O14   C51   1.415559 S    
O21   C59   1.416609 S    
C25   C27   1.415120 A    
C68   H72   1.107574 S    
O5    C3    1.291087 A    
C66   H67   1.103390 S    
C53   H32   1.107597 S    
C35   O12   1.391187 S    
O1    C1    1.295517 A    
C18   C19   1.408792 A    
C62   H57   1.110405 S    
C14   C16   1.422652 A    
C27   O22   1.382898 S    
C59   C60   1.520939 S    
C22   O10   1.389075 S    
C47   H15   1.109072 S    
C60   H53   1.110384 S    
O22   C61   1.412949 S    
C39   C41   1.410996 A    
C53   H31   1.114762 S    
C40   C42   1.419232 A    
C38   H5    1.078812 S    
C65   C66   1.513174 S    
C55   H37   1.109411 S    
C42   C44   1.412839 A    
C41   O13   1.382434 S    
O4    Cu1   1.962759 S    
O16   C54   1.409372 S    
C56   H42   1.111288 S    
C7    C9    1.409493 A    
C3    C5    1.476608 S    
C64   H62   1.109554 S    
C4    C6    1.479507 S    
C30   C32   1.402186 A    
C8    C16   1.426925 A    
C57   H44   1.107226 S    
O23   C63   1.409330 S    
C2    C24   1.485319 S    
C39   N5    1.442872 S    
C45   H9    1.109456 S    
C13   C17   1.432406 A    
C38   C40   1.407580 A    
C23   C33   1.404142 A    
C24   C34   1.418064 A    
C6    C10   1.407488 A    
C68   H73   1.110423 S    
C66   H68   1.110409 S    
Cu1   Cu2   2.664412 S    
C17   C20   1.410978 A    
C27   C29   1.419841 A    
O2    C2    1.291921 A    
C28   C30   1.418895 A    
C61   C62   1.520352 S    
N4    C36   1.372421 A    
O25   C65   1.419945 S    
C65   H66   1.111295 S    
C31   C33   1.404641 A    
C40   N6    1.445640 S    
C23   C25   1.412274 A    
C36   C38   1.428008 A    
C41   C43   1.410244 A    
O10   C46   1.410133 S    
C48   H19   1.111573 S    
C62   H58   1.110965 S    
O12   C48   1.413052 S    
C61   H55   1.112987 S    
C42   O14   1.390070 S    
C29   N1    1.419480 S    
C11   H2    1.075695 S    
C57   H45   1.108062 S    
C58   H47   1.109672 S    
C48   H18   1.109448 S    
N5    N6    1.255478 D    
C6    C12   1.390702 A    
C28   O21   1.385807 S    
N3    C35   1.371818 A    
C64   H63   1.115760 S    
C5    C9    1.408592 A    
O7    Cu2   1.946953 S    
Cu1   N4    2.000981 S    
O7    C3    1.295377 A    
C43   H7    1.081378 S    
C49   H22   1.110730 S    
Cu2   N3    2.000981 S    
C63   H61   1.109188 S    
C21   O9    1.382885 S    
O6    C4    1.289146 A    
C45   H11   1.112836 S    
C54   H35   1.114704 S    
C50   H23   1.110566 S    
C29   C31   1.397074 A    
C46   H13   1.107710 S    
C56   H40   1.111362 S    
O3    Cu2   1.962759 S    
O8    C4    1.298635 A    
C59   H50   1.112161 S    
C63   H60   1.112707 S    
C50   H25   1.109023 S    
N1    N2    1.243702 D    
C66   H69   1.110614 S    
C51   H27   1.115780 S    
C11   C13   1.405596 A    
O19   C57   1.408488 S    
C12   C14   1.407695 A    
O11   C47   1.411601 S    
O4    C2    1.299381 A    
O1    Cu1   1.961959 S    
C58   H46   1.114052 S    
C8    O18   1.383038 S    
C37   H6    1.078728 S    
O18   C56   1.416227 S    
C7    O17   1.383287 S    
C49   C50   1.523202 S    
C47   H17   1.110344 S    
C65   H65   1.118683 S    
C52   H29   1.110497 S    
C9    O16   1.387753 S    
C30   N2    1.413657 S    
C12   H1    1.071683 S    
O24   C64   1.414540 S    
O6    Cu2   1.960546 S    
C54   H34   1.106591 S    
C10   O15   1.387777 S    
C14   C18   1.429256 A    
C61   H54   1.115350 S    
O3    C1    1.289549 A    
O8    Cu1   1.946953 S    
C60   H51   1.110387 S    
C25   O20   1.391845 S    
C44   H8    1.081577 S    
C64   H64   1.109277 S    
C51   C52   1.522114 S    
C32   O24   1.387302 S    
O15   C53   1.409055 S    
C19   H3    1.068786 S    
C55   H39   1.111031 S    
C20   H4    1.075015 S    
C7    C15   1.422580 A    
C37   C39   1.407251 A    
O20   C58   1.413494 S    
C19   C21   1.386789 A    
N4    C44   1.362822 A    
C20   C22   1.401092 A    
C60   H52   1.110434 S    
C49   H21   1.117291 S    
C5    C11   1.395476 A    
C67   H71   1.113923 S    
C57   H43   1.111755 S    
C26   O19   1.390463 S    
C26   C28   1.412576 A    
C68   H74   1.110241 S    
C47   H16   1.109009 S    
C55   H38   1.112345 S    
C54   H36   1.107605 S    
C8    C10   1.411737 A    
C48   H20   1.107188 S    
C13   C15   1.423186 A    
O9    C45   1.410873 S    
O2    Cu2   1.961959 S    
C46   H14   1.108196 S    
C56   H41   1.109435 S    
C36   O11   1.396788 S    
C34   O26   1.384422 S    
C33   O25   1.384014 S    
C32   C34   1.397375 A    
O5    Cu1   1.960545 S    
C63   H59   1.113884 S    
C50   H24   1.110410 S    
C51   H26   1.108308 S    
C67   H70   1.113318 S    
C17   C18   1.416719 A    
C59   H49   1.110986 S    
C45   H10   1.112831 S    
C52   H30   1.110485 S    
C31   O23   1.383253 S    
O13   C49   1.415527 S    
C67   C68   1.520127 S    
O17   C55   1.415553 S    
C53   H33   1.108199 S    
