data_mof_unit_35508.cif
_audit_creation_date              2012-12-11T15:13:39-0500
_audit_creation_method            fapswitch 2.2
_symmetry_space_group_name_H-M    P1
_symmetry_Int_Tables_number       1
_space_group_crystal_system       triclinic
_cell_length_a                    6.950618
_cell_length_b                    13.6143
_cell_length_c                    20.137771
_cell_angle_alpha                 104.31984
_cell_angle_beta                  90.313156
_cell_angle_gamma                 90.243554
_cell_volume                      1846.3279954

loop_
_atom_site_label
_atom_site_type_symbol
_atom_type_description
_atom_site_fract_x
_atom_site_fract_y
_atom_site_fract_z
_atom_type_partial_charge
O1    O     O_R   0.506780 0.600060 0.449950 -0.542313
O2    O     O_R   0.179840 0.597110 0.589410 -0.518982
O3    O     O_R   0.004570 0.399940 0.550050 -0.550941
C1    C     C_R   0.348581 0.619066 0.616729 0.829529
O4    O     O_R   0.177380 0.612160 0.452890 -0.529713
O5    O     O_R   0.002100 0.415100 0.412560 -0.537973
C2    C     C_R   0.346588 0.638735 0.436889 0.818255
O6    O     O_R   0.509250 0.584900 0.587440 -0.523203
O7    O     O_3   0.337570 0.435330 0.486930 -0.388895
V1    V     V_3+5 0.064650 0.512000 0.502430 1.609158
O8    O     O_R   0.672090 0.402890 0.410590 -0.547937
C3    C     C_R   0.839636 0.383259 0.382360 0.738584
O9    O     O_R   0.674540 0.387840 0.547110 -0.536746
C4    C     C_R   0.843565 0.361408 0.563700 0.792860
V2    V     V_3+5 0.564040 0.488000 0.497570 1.577380
O10   O     O_3   0.840990 0.564670 0.513070 -0.358287
C5    C     C_R   0.900770 0.111907 0.608725 -0.109778
H1    H     H_    0.906223 0.161415 0.515663 0.159782
H2    H     H_    0.908965 0.986150 0.689796 0.160458
H3    H     H_    0.923247 0.033374 0.581951 0.171651
C6    C     C_R   0.853942 0.285242 0.603659 -0.146955
C7    C     C_R   0.855313 0.318076 0.934481 0.515442
C8    C     C_R   0.859964 0.395072 0.900342 0.636912
C9    C     C_R   0.865242 0.372094 0.828993 -0.260373
C10   C     C_R   0.859763 0.270431 0.789194 -0.001803
C11   C     C_R   0.864743 0.191802 0.824785 -0.031504
C12   C     C_R   0.859288 0.243862 0.715617 0.022387
C13   C     C_R   0.884731 0.140292 0.680375 0.054410
C14   C     C_R   0.892985 0.065208 0.716570 -0.138775
C15   C     C_R   0.878982 0.090113 0.787389 -0.130634
C16   C     C_R   0.832752 0.314914 0.675046 0.542178
C17   C     C_R   0.890031 0.184332 0.570828 -0.248234
C18   C     C_R   0.860418 0.216644 0.897466 -0.298568
H4    H     H_    0.882692 0.435958 0.807145 0.272161
H5    H     H_    0.884149 0.028661 0.812717 0.126002
C19   C     C_3   0.818495 0.157995 0.252501 -0.160243
C20   C     C_3   0.986196 0.225734 0.289670 -0.195671
H6    H     H_    0.094676 0.204428 0.323949 0.195493
H7    H     H_    0.789937 0.078816 0.255235 0.186730
C21   C     C_3   0.845850 0.315135 0.310972 -0.156425
C22   C     C_3   0.678078 0.248473 0.274485 0.013913
C23   C     C_3   0.723219 0.281016 0.207750 -0.161498
C24   C     C_3   0.889656 0.349253 0.245055 -0.203982
C25   C     C_3   0.027972 0.259084 0.223378 0.752840
C26   C     C_3   0.863630 0.191534 0.186478 -0.140005
H8    H     H_    0.530641 0.248773 0.295073 0.216995
H9    H     H_    0.614569 0.303395 0.173716 0.215283
H10   H     H_    0.910905 0.427483 0.239991 0.204039
C27   C     C_3   0.475109 0.787896 0.709099 -0.188865
C28   C     C_3   0.296407 0.843414 0.747069 -0.403684
H11   H     H_    0.244520 0.919537 0.744814 0.183174
H12   H     H_    0.575824 0.818148 0.676360 0.217890
C29   C     C_3   0.357438 0.811636 0.812717 -0.340296
C30   C     C_3   0.533412 0.756612 0.775064 0.732608
C31   C     C_3   0.417034 0.656782 0.752697 -0.336683
C32   C     C_3   0.240221 0.713110 0.790006 0.616219
C33   C     C_3   0.179385 0.743812 0.724634 0.693167
C34   C     C_3   0.355796 0.688906 0.687171 -0.299168
H13   H     H_    0.468092 0.580644 0.755262 0.223281
C35   C     C_R   0.433135 0.890690 0.400546 -0.106380
H14   H     H_    0.469497 0.965742 0.430634 0.205308
C36   C     C_R   0.360420 0.718027 0.400218 -0.129887
C37   C     C_R   0.380473 0.690726 0.074521 0.649503
C38   C     C_R   0.415584 0.617653 0.110006 -0.104074
C39   C     C_R   0.423630 0.644353 0.180936 -0.168907
C40   C     C_R   0.383754 0.744019 0.218819 0.074373
C41   C     C_R   0.372957 0.822690 0.183356 -0.117285
C42   C     C_R   0.373423 0.767673 0.291587 0.018655
C43   C     C_R   0.404665 0.869111 0.329020 -0.044575
C44   C     C_R   0.402815 0.947507 0.295101 0.250629
C45   C     C_R   0.378007 0.925748 0.223331 0.179363
C46   C     C_R   0.330011 0.694461 0.329037 0.156564
C47   C     C_R   0.418165 0.815333 0.435491 0.193384
C48   C     C_R   0.364982 0.793073 0.109654 -0.224573
H15   H     H_    0.470037 0.586617 0.205711 0.193445
H16   H     H_    0.441563 0.539987 0.082311 0.193756
O11   O     O_R   0.203580 0.914920 0.912610 -0.534263
O12   O     O_R   0.535710 0.887810 0.047120 -0.537046
O13   O     O_R   0.710730 0.084950 0.087430 -0.532005
C49   C     C_R   0.368138 0.864985 0.066545 0.866289
O14   O     O_R   0.533010 0.902850 0.910600 -0.524143
O15   O     O_R   0.708010 0.100090 0.949930 -0.552868
C50   C     C_R   0.364319 0.881014 0.883267 0.808447
O16   O     O_R   0.206300 0.899780 0.050100 -0.531234
O17   O     O_3   0.375170 0.064580 0.013100 -0.370973
V3    V     V_3+5 0.648200 0.988020 0.997570 1.639598
O18   O     O_R   0.038030 0.112330 0.952840 -0.550796
C51   C     C_R   0.869092 0.138183 0.935902 0.783115
O19   O     O_R   0.040730 0.097300 0.089360 -0.508127
C52   C     C_R   0.872410 0.119991 0.116480 0.775635
V4    V     V_3+5 0.148780 0.012220 0.002360 1.642484
O20   O     O_3   0.871930 0.935430 0.986900 -0.363384
F1    F     F_    0.209031 0.266620 0.196977 -0.648432
F2    F     F_    0.717983 0.763438 0.801786 -0.572194
F3    F     F_    0.116770 0.675288 0.831368 -0.555181
F4    F     F_    0.994287 0.736898 0.698343 -0.616413
Br1   Br    Br    0.464646 0.850675 0.532686 -0.588080
Br2   Br    Br    0.418201 0.086671 0.348909 -0.625942
Br3   Br    Br    0.189515 0.570975 0.289243 -0.586014
F5    F     F_    0.376139 0.662555 0.004888 -0.617122
Br4   Br    Br    0.359249 0.042451 0.185533 -0.504382
F6    F     F_    0.775136 0.411484 0.702204 -0.696447
F7    F     F_    0.852087 0.342390 0.004090 -0.646532
F8    F     F_    0.863751 0.493314 0.936714 -0.563932

loop_
_geom_bond_atom_site_label_1
_geom_bond_atom_site_label_2
_ccdc_geom_bond_type
C32   F3    S    
C40   C42   A    
C31   C32   S    
C31   H13   S    
C22   C23   S    
C49   O16   A    
O17   V4    S    
O17   V3    S    
C47   Br1   S    
C6    C16   A    
C20   H6    S    
C15   H5    S    
C4    C6    S    
C19   C20   S    
C18   C51   S    
C20   C21   S    
O18   V4    S    
O5    C3    A    
O12   C49   A    
O11   C50   A    
V2    O10   S    
C35   C47   A    
C5    H3    S    
C32   C33   S    
O13   C52   A    
C25   F1    S    
O8    V2    S    
C21   C24   S    
O11   V4    S    
C42   C43   A    
C33   F4    S    
C22   H8    S    
C36   C47   A    
C44   C45   A    
O1    V2    S    
O16   V4    S    
O19   V4    S    
C24   H10   S    
O14   V3    S    
C1    O6    A    
O12   V3    S    
C40   C41   A    
C45   Br4   S    
C48   C49   S    
O9    C4    A    
C28   C33   S    
C19   C22   S    
O14   C50   A    
C6    C17   A    
C28   C29   S    
C12   C16   A    
C16   F6    S    
C9    C10   A    
V4    O20   S    
O4    C2    A    
C37   F5    S    
C10   C11   A    
O15   V3    S    
C9    H4    S    
C7    F7    S    
C35   H14   S    
C23   C26   S    
C3    C21   S    
O2    C1    A    
C24   C25   S    
C2    C36   S    
C14   C15   A    
C11   C18   A    
C8    F8    S    
C42   C46   A    
C27   H12   S    
C28   H11   S    
C38   H16   S    
C36   C46   A    
C19   C26   S    
C41   C48   A    
C26   C52   S    
O3    C4    A    
C21   C22   S    
C11   C15   A    
O6    V2    S    
O9    V2    S    
H1    C17   S    
C23   C24   S    
O2    V1    S    
C25   C26   S    
O7    V1    S    
C29   C32   S    
C7    C18   A    
C30   C31   S    
C13   C14   A    
O1    C2    A    
C5    C13   A    
C19   H7    S    
O5    V1    S    
O8    C3    A    
C29   C30   S    
C37   C48   A    
C10   C12   A    
C39   H15   S    
C29   C50   S    
C38   C39   A    
C20   C25   S    
O7    V2    S    
O4    V1    S    
O3    V1    S    
V1    O10   S    
C33   C34   S    
C35   C43   A    
O15   C51   A    
C41   C45   A    
C23   H9    S    
C39   C40   A    
C43   C44   A    
C30   F2    S    
C27   C34   S    
C8    C9    A    
C37   C38   A    
C44   Br2   S    
O18   C51   A    
C27   C28   S    
C31   C34   S    
C1    C34   S    
C12   C13   A    
C5    C17   A    
C7    C8    A    
V3    O20   S    
O19   C52   A    
O13   V3    S    
C27   C30   S    
C46   Br3   S    
H2    C14   S    
