data_mof_unit_55352.cif
_audit_creation_date              2012-12-10T17:33:00-0500
_audit_creation_method            fapswitch 2.2
_symmetry_space_group_name_H-M    P1
_symmetry_Int_Tables_number       1
_space_group_crystal_system       triclinic
_cell_length_a                    12.360921
_cell_length_b                    13.374102
_cell_length_c                    14.29895
_cell_angle_alpha                 93.439455
_cell_angle_beta                  107.735113
_cell_angle_gamma                 117.361266
_cell_volume                      1942.93261912

loop_
_atom_site_label
_atom_site_type_symbol
_atom_type_description
_atom_site_fract_x
_atom_site_fract_y
_atom_site_fract_z
_atom_type_partial_charge
C1    C     C_R   0.652937 0.714413 0.511907 0.770320
C2    C     C_R   0.846926 0.494885 0.917077 0.120230
C3    C     C_R   0.796619 0.509070 0.990628 0.163043
C4    C     C_R   0.952870 0.472551 0.943468 -0.004220
C5    C     C_R   0.020319 0.483524 0.046477 0.062622
C6    C     C_R   0.964160 0.492021 0.116988 -0.194216
C7    C     C_R   0.853880 0.504369 0.089362 -0.227838
C8    C     C_R   0.989384 0.434187 0.870197 -0.253485
C9    C     C_R   0.089223 0.407251 0.897625 0.361554
C10   C     C_R   0.162410 0.426146 0.000272 0.037145
C11   C     C_R   0.136104 0.475692 0.075143 0.022831
C12   C     C_R   0.618248 0.516425 0.686537 0.792817
C13   C     C_R   0.260870 0.396325 0.030182 -0.143077
C14   C     C_R   0.330812 0.413980 0.132170 -0.261333
C15   C     C_R   0.227350 0.516405 0.176130 0.119182
C16   C     C_R   0.267935 0.019632 0.585750 0.375489
C17   C     C_R   0.270998 0.169750 0.499305 -0.115296
C18   C     C_R   0.660746 0.887373 0.455577 -0.168688
C19   C     C_R   0.726380 0.990449 0.428894 -0.133688
C20   C     C_R   0.859805 0.039580 0.447409 -0.154330
C21   C     C_R   0.932418 0.988991 0.498384 0.112376
C22   C     C_R   0.866843 0.890531 0.534246 0.091442
C23   C     C_R   0.347378 0.286358 0.488682 0.824232
C24   C     C_R   0.067488 0.032189 0.515215 0.041052
C25   C     C_R   0.135699 0.980895 0.572573 0.071276
C26   C     C_R   0.072187 0.895508 0.618964 -0.161048
C27   C     C_R   0.940198 0.851745 0.600737 -0.209460
C28   C     C_R   0.137762 0.126108 0.478412 -0.226286
C29   C     C_R   0.334533 0.113760 0.548799 -0.213691
C30   C     C_R   0.729267 0.834577 0.505219 -0.089273
C31   C     C_R   0.251572 0.666731 0.674845 -0.202429
C32   C     C_R   0.654280 0.347622 0.359008 0.080665
C33   C     C_R   0.731595 0.315632 0.326047 -0.265942
C34   C     C_R   0.382888 0.485205 0.313584 0.799803
C35   C     C_R   0.867089 0.371947 0.379112 -0.199827
C36   C     C_R   0.927178 0.460982 0.466842 0.011152
C37   C     C_R   0.843462 0.490448 0.497701 0.301675
C38   C     C_R   0.066661 0.522308 0.525053 -0.021971
C39   C     C_R   0.116961 0.605768 0.615587 0.189234
C40   C     C_R   0.033023 0.629569 0.645839 -0.281238
C41   C     C_R   0.901226 0.577939 0.585242 -0.202530
C42   C     C_R   0.159471 0.504792 0.498475 0.028205
C43   C     C_R   0.337302 0.646409 0.644046 0.128086
C44   C     C_R   0.680834 0.519127 0.792545 -0.056343
C45   C     C_R   0.314197 0.473189 0.205975 -0.054393
C46   C     C_R   0.688254 0.526075 0.964027 -0.192818
C47   C     C_R   0.629763 0.529932 0.865167 -0.167576
C48   C     C_R   0.790538 0.504888 0.819710 -0.248464
Cu1   Cu    Cu3+1 0.416420 0.526630 0.522910 0.957873
Cu2   Cu    Cu3+1 0.583580 0.473370 0.477090 0.933447
H1    H     H_    0.813880 0.511001 0.145691 0.150884
H2    H     H_    0.280936 0.354936 0.975553 0.199156
H3    H     H_    0.438341 0.148155 0.565104 0.190040
H4    H     H_    0.124967 0.863573 0.671047 0.189857
H5    H     H_    0.093613 0.171090 0.436877 0.139492
H6    H     H_    0.555241 0.846490 0.433837 0.158146
H7    H     H_    0.902717 0.117636 0.421897 0.127600
H8    H     H_    0.672492 0.030311 0.390066 0.147902
H9    H     H_    0.896038 0.789719 0.641562 0.127050
H10   H     H_    0.441160 0.692516 0.690023 0.129590
H11   H     H_    0.070334 0.691643 0.715972 0.148670
H12   H     H_    0.290356 0.730301 0.744385 0.162216
H13   H     H_    0.129512 0.441610 0.431807 0.114419
H14   H     H_    0.549460 0.303667 0.316769 0.126402
H15   H     H_    0.922188 0.343598 0.350515 0.129692
H16   H     H_    0.686275 0.247016 0.258899 0.149142
H17   H     H_    0.847598 0.609923 0.609067 0.196011
H18   H     H_    0.399618 0.382771 0.153153 0.163187
H19   H     H_    0.648122 0.535358 0.019489 0.141169
H20   H     H_    0.544592 0.540756 0.845566 0.171738
H21   H     H_    0.832560 0.504216 0.764051 0.156550
H22   H     H_    0.001438 0.484033 0.193237 0.158890
H23   H     H_    0.936065 0.416345 0.790228 0.186673
N1    N     N_R   0.290690 0.566960 0.557640 -0.188119
N2    N     N_R   0.709100 0.433710 0.442970 -0.204595
O1    O     O_R   0.545970 0.684450 0.528810 -0.572706
O2    O     O_R   0.687130 0.639470 0.490120 -0.587613
O3    O     O_R   0.519670 0.535100 0.660030 -0.579456
O4    O     O_R   0.660830 0.490120 0.621340 -0.605697
O5    O     O_R   0.312870 0.360530 0.509880 -0.565916
O6    O     O_R   0.454030 0.315550 0.471190 -0.587049
O7    O     O_R   0.339170 0.509880 0.378660 -0.585605
O8    O     O_R   0.480330 0.464900 0.339970 -0.591969
Cl1   Cl    Cl    0.356405 0.956541 0.651629 -0.672232
C49   C     C_3   0.252774 0.622996 0.244160 -0.827787
H24   H     H_    0.212542 0.672067 0.200177 0.233721
H25   H     H_    0.209828 0.599508 0.302696 0.241445
H26   H     H_    0.360185 0.683667 0.282173 0.223079
Cl2   Cl    Cl    0.120750 0.352568 0.799709 -0.640266

loop_
_geom_bond_atom_site_label_1
_geom_bond_atom_site_label_2
_ccdc_geom_bond_type
C1    O2    A    
C35   C36   A    
C4    C8    A    
Cu2   O4    S    
C32   N2    A    
C41   H17   S    
C49   H24   S    
C6    H22   S    
C26   C27   A    
C17   C23   S    
C31   C43   A    
C36   C37   A    
C5    C11   A    
C3    C7    A    
C38   C39   A    
C35   H15   S    
C12   O4    A    
C16   Cl1   S    
C17   C29   A    
Cu1   O3    S    
C18   C19   A    
C8    H23   S    
C46   H19   S    
C11   C15   A    
C19   C20   A    
C8    C9    A    
C12   O3    A    
C33   H16   S    
C18   C30   A    
C23   O5    A    
C23   O6    A    
C9    C10   A    
C44   C47   A    
C18   H6    S    
C15   C49   S    
C43   N1    A    
C37   N2    A    
C13   C14   A    
C17   C28   A    
C31   H12   S    
C26   H4    S    
C28   H5    S    
Cu2   O8    S    
C14   C45   A    
C49   H25   S    
C19   H8    S    
C42   N1    A    
C24   C25   A    
C32   H14   S    
C9    Cl2   S    
C39   C40   A    
C2    C48   A    
C16   C29   A    
C40   H11   S    
Cu1   O7    S    
C2    C4    A    
C47   H20   S    
C13   H2    S    
Cu1   O1    S    
C34   C45   S    
C43   H10   S    
C40   C41   A    
C22   C27   A    
C34   O8    A    
C15   C45   A    
C48   H21   S    
Cu2   O2    S    
C49   H26   S    
C16   C25   A    
C46   C47   A    
C22   C30   A    
C1    O1    A    
C24   C28   A    
C4    C5    A    
C10   C13   A    
C38   C42   A    
C6    C7    A    
C3    C46   A    
Cu1   O5    S    
C32   C33   A    
C36   C38   A    
C2    C3    A    
C25   C26   A    
C7    H1    S    
C12   C44   S    
C27   H9    S    
Cu2   N2    S    
C5    C6    A    
C29   H3    S    
C1    C30   S    
C33   C35   A    
C31   C39   A    
C37   C41   A    
C10   C11   A    
C20   C21   A    
Cu1   Cu2   S    
C21   C24   A    
C14   H18   S    
Cu1   N1    S    
C34   O7    A    
C20   H7    S    
C21   C22   A    
C42   H13   S    
C44   C48   A    
Cu2   O6    S    
