data_mof_unit_14458.cif
_audit_creation_date              2013-03-05T15:55:22-0500
_audit_creation_method            fapswitch 2.2
_symmetry_space_group_name_H-M    P1
_symmetry_Int_Tables_number       1
_space_group_crystal_system       triclinic
_cell_length_a                    27.689595
_cell_length_b                    10.619806
_cell_length_c                    9.91286
_cell_angle_alpha                 89.902092
_cell_angle_beta                  89.815102
_cell_angle_gamma                 91.650313
_cell_volume                      2913.72804817

loop_
_atom_site_label
_atom_site_type_symbol
_atom_site_description
_atom_site_fract_x
_atom_site_fract_y
_atom_site_fract_z
_atom_type_partial_charge
O1    O     O_R   0.500000 0.316780 0.614690 -0.639477
O2    O     O_R   0.500000 0.316750 0.385360 -0.627962
C1    C     C_R   0.501275 0.260736 0.500117 0.856109
O3    O     O_R   0.428760 0.500030 0.614650 -0.635335
O4    O     O_R   0.428750 0.500010 0.385320 -0.640150
C2    C     C_R   0.406059 0.499023 0.500285 0.857632
Zn1   Zn    Zn3+2 0.500000 0.500020 0.653130 0.935909
Zn2   Zn    Zn3+2 0.500000 0.499980 0.346870 0.944489
O5    O     O_R   0.500000 0.683250 0.614640 -0.612805
O6    O     O_R   0.500000 0.683220 0.385310 -0.609855
O7    O     O_R   0.571250 0.499990 0.614680 -0.635104
O8    O     O_R   0.571240 0.499970 0.385350 -0.614373
C3    C     C_R   0.501403 0.739430 0.499844 0.878054
C4    C     C_R   0.593932 0.500519 0.499873 0.841175
C5    C     C_R   0.175820 0.382424 0.534230 0.536178
O9    O     O_2   0.199358 0.273819 0.549897 -0.546216
N1    N     N_R   0.201281 0.492149 0.509826 -0.359097
C6    C     C_R   0.179015 0.604251 0.494204 0.512421
C7    C     C_R   0.278212 0.483686 0.627258 -0.100405
C8    C     C_R   0.328339 0.486226 0.625185 -0.215536
C9    C     C_R   0.327337 0.501491 0.380406 -0.220441
C10   C     C_R   0.277103 0.499356 0.382938 -0.097297
C11   C     C_R   0.252654 0.490754 0.506374 0.315753
C12   C     C_R   0.101521 0.496716 0.526173 -0.051212
C13   C     C_R   0.125369 0.382580 0.542944 -0.085730
C14   C     C_R   0.098761 0.272543 0.573992 -0.185884
C15   C     C_R   0.128688 0.608873 0.502675 -0.019743
C16   C     C_R   0.353275 0.495720 0.501737 -0.041827
H1    H     H_    0.345760 0.508355 0.283978 0.167421
H2    H     H_    0.257134 0.504838 0.289441 0.141750
H3    H     H_    0.117229 0.186772 0.597848 0.226864
C17   C     C_R   0.646689 0.501722 0.500072 -0.039828
C18   C     C_R   0.973074 0.385114 0.525877 0.064823
C19   C     C_R   0.976147 0.617062 0.531670 0.045403
C20   C     C_R   0.949365 0.501575 0.525671 0.080676
C21   C     C_R   0.945875 0.274455 0.495354 -0.126983
C22   C     C_R   0.895960 0.276135 0.483326 -0.130370
C23   C     C_R   0.871793 0.389101 0.497574 -0.026548
C24   C     C_R   0.898459 0.502526 0.516973 -0.056962
C25   C     C_R   0.874234 0.616954 0.526593 -0.022895
C26   C     C_R   0.823777 0.615314 0.520321 0.509322
N2    N     N_R   0.798688 0.503886 0.503254 -0.359624
C27   C     C_R   0.821414 0.392039 0.490691 0.514101
C28   C     C_R   0.722571 0.489278 0.379760 -0.100025
C29   C     C_R   0.672363 0.488426 0.378748 -0.207403
C30   C     C_R   0.671856 0.516420 0.622077 -0.236195
C31   C     C_R   0.721994 0.517676 0.622634 -0.106132
C32   C     C_R   0.747289 0.503936 0.501665 0.322014
O10   O     O_2   0.795221 0.284159 0.473166 -0.548030
C33   C     C_R   0.023566 0.383958 0.548034 -0.075881
C34   C     C_R   0.050589 0.498696 0.532235 0.045571
C35   C     C_R   0.027072 0.615404 0.521683 0.057008
C36   C     C_R   0.048437 0.272871 0.583049 0.278919
H4    H     H_    0.653744 0.476837 0.283466 0.163247
H5    H     H_    0.742322 0.478639 0.286202 0.140257
H6    H     H_    0.876436 0.188496 0.462445 0.195242
H7    H     H_    0.962830 0.185941 0.476082 0.173906
O11   O     O_2   0.205626 0.710806 0.471833 -0.545066
C37   C     C_R   0.105207 0.722738 0.488292 -0.109794
H8    H     H_    0.347453 0.480994 0.720126 0.167111
H9    H     H_    0.259124 0.477336 0.722694 0.141252
H10   H     H_    0.125331 0.809949 0.468948 0.203735
C38   C     C_R   0.950910 0.730229 0.544511 -0.200318
C39   C     C_R   0.900760 0.729835 0.542865 -0.121786
O12   O     O_2   0.799870 0.723897 0.530679 -0.549653
C40   C     C_R   0.055282 0.726240 0.498036 -0.177555
H11   H     H_    0.969032 0.820395 0.559277 0.182633
H12   H     H_    0.652902 0.527301 0.716905 0.160566
H13   H     H_    0.882887 0.818772 0.552958 0.197658
H14   H     H_    0.741290 0.528814 0.716911 0.139784
H15   H     H_    0.039585 0.816651 0.481343 0.180078
H16   H     H_    0.438738 0.109755 0.383708 0.142782
C41   C     C_R   0.582440 0.137153 0.622876 -0.174960
H17   H     H_    0.584449 0.238913 0.622543 0.154996
C42   C     C_R   0.620449 0.074136 0.682229 -0.111193
H18   H     H_    0.650175 0.127191 0.727394 0.153068
C43   C     C_R   0.620505 0.943100 0.681911 -0.118323
H19   H     H_    0.650270 0.894335 0.726836 0.151481
C44   C     C_R   0.582562 0.874630 0.622190 -0.190767
H20   H     H_    0.584663 0.773128 0.621237 0.143098
C45   C     C_R   0.543435 0.937119 0.562868 0.094048
C46   C     C_R   0.543363 0.069098 0.563220 0.096739
C47   C     C_R   0.504564 0.128683 0.499928 -0.087717
C48   C     C_R   0.467942 0.061983 0.433158 -0.209157
H21   H     H_    0.438851 0.881351 0.383257 0.159097
C49   C     C_R   0.468017 0.933384 0.432840 -0.190069
C50   C     C_R   0.504709 0.871966 0.499288 -0.101382
H22   H     H_    0.554457 0.640934 0.124461 0.149848
C51   C     C_R   0.436525 0.335196 0.140836 -0.160358
H23   H     H_    0.434419 0.329304 0.247800 0.199566
C52   C     C_R   0.405199 0.254222 0.071014 -0.192352
H24   H     H_    0.380815 0.190945 0.125790 0.157866
C53   C     C_R   0.405181 0.254304 0.931378 -0.184403
H25   H     H_    0.380765 0.191134 0.877252 0.162902
C54   C     C_R   0.436519 0.335287 0.860743 -0.160271
H26   H     H_    0.434436 0.329581 0.753783 0.204424
C55   C     C_R   0.468711 0.418828 0.928094 0.168522
C56   C     C_R   0.468718 0.418840 0.072693 0.171724
N3    N     N_R   0.499540 0.498800 0.142780 -0.122514
C57   C     C_R   0.529967 0.577554 0.071070 -0.111623
H27   H     H_    0.554435 0.640898 0.873791 0.143770
C58   C     C_R   0.529957 0.577520 0.927945 -0.111236
N4    N     N_R   0.499520 0.498720 0.857170 -0.121610
N5    N     N_R   0.024251 0.165801 0.644918 0.193382
O13   O     O_R   0.039445 0.052739 0.623324 -0.429774
O14   O     O_R   0.991994 0.182483 0.738514 -0.367169

loop_
_geom_bond_atom_site_label_1
_geom_bond_atom_site_label_2
_geom_bond_distance
_ccdc_geom_bond_type
C53   H25   1.082788 S    
C26   N2    1.365876 A    
C20   C24   1.412829 A    
C54   H26   1.063765 S    
C12   C15   1.408930 A    
N5    O14   1.301658 A    
C55   C56   1.433389 A    
C43   H19   1.082574 S    
Zn1   O7    2.008165 S    
N1    C11   1.423325 S    
C47   C48   1.390210 A    
C21   C22   1.388247 A    
Zn2   N3    2.023255 S    
C48   C49   1.365762 A    
C37   C40   1.387026 A    
C23   C24   1.408407 A    
O7    C4    1.298020 A    
C5    C13   1.399404 A    
C52   C53   1.384190 A    
C36   N5    1.438261 S    
C5    O9    1.350001 S    
C18   C21   1.411217 A    
C5    N1    1.365276 A    
C19   C20   1.416265 A    
C17   C29   1.404487 A    
O5    C3    1.283924 A    
C22   H6    1.083393 S    
C6    O11   1.350070 S    
C2    C16   1.461005 S    
C40   H15   1.078025 S    
C51   C52   1.390642 A    
C12   C34   1.412138 A    
C14   H3    1.083513 S    
C53   C54   1.390654 A    
Zn1   N4    2.022641 S    
C9    C10   1.390616 A    
C41   C42   1.394598 A    
O3    Zn1   2.010363 S    
N5    O13   1.301499 A    
C45   C46   1.401657 A    
C43   C44   1.394458 A    
C41   H17   1.080504 S    
C38   H11   1.078606 S    
H16   C48   1.084870 S    
C33   C36   1.425976 A    
C34   C35   1.420432 A    
H27   C58   1.081992 S    
C12   C13   1.406764 A    
O3    C2    1.297973 A    
C21   H7    1.079793 S    
C52   H24   1.082831 S    
C44   C45   1.415682 A    
C49   C50   1.390177 A    
C27   O10   1.349966 S    
C26   O12   1.349966 S    
C8    C16   1.405178 A    
C33   C34   1.419582 A    
C18   C33   1.416347 A    
H21   C49   1.084855 S    
C9    H1    1.083385 S    
C44   H20   1.081230 S    
O1    C1    1.283998 A    
C7    C11   1.396633 A    
C42   H18   1.082570 S    
C31   H14   1.082966 S    
C30   H12   1.083099 S    
C22   C23   1.397577 A    
C55   N4    1.376336 A    
C31   C32   1.396736 A    
Zn2   O8    2.010360 S    
C3    C50   1.407842 S    
C57   C58   1.418773 A    
N1    C6    1.365160 A    
N2    C32   1.423379 S    
C39   H13   1.083491 S    
C42   C43   1.391635 A    
H22   C57   1.081787 S    
C25   C26   1.398336 A    
C9    C16   1.404999 A    
O8    C4    1.299248 A    
C29   H4    1.083016 S    
C56   N3    1.377041 A    
C1    C47   1.407959 S    
C8    H8    1.083361 S    
N2    C27   1.365782 A    
C14   C36   1.396164 A    
C41   C46   1.415389 A    
C24   C25   1.408066 A    
C35   C40   1.412621 A    
C28   C29   1.390066 A    
Zn1   O5    1.982282 S    
C30   C31   1.388024 A    
C37   H10   1.083523 S    
C10   H2    1.083108 S    
O1    Zn1   1.983569 S    
C17   C30   1.404452 A    
O2    Zn2   1.982280 S    
C6    C15   1.398074 A    
C4    C17   1.460510 S    
O6    C3    1.283809 A    
O4    Zn2   2.008168 S    
C54   C55   1.409870 A    
C19   C35   1.413857 A    
C25   C39   1.397595 A    
N3    C57   1.366793 A    
C51   C56   1.410109 A    
C7    C8    1.387567 A    
O2    C1    1.283870 A    
C13   C14   1.396720 A    
C23   C27   1.398088 A    
C15   C37   1.396616 A    
C45   C50   1.410294 A    
C28   H5    1.082889 S    
O4    C2    1.299459 A    
C7    H9    1.083239 S    
C19   C38   1.413226 A    
C18   C20   1.416824 A    
C58   N4    1.366759 A    
C38   C39   1.388662 A    
Zn2   O6    1.983569 S    
C46   C47   1.410819 A    
C10   C11   1.398061 A    
C51   H23   1.063366 S    
C28   C32   1.397443 A    
