data_mof_unit_38823.cif
_audit_creation_date              2012-12-10T17:31:09-0500
_audit_creation_method            fapswitch 2.2
_symmetry_space_group_name_H-M    P1
_symmetry_Int_Tables_number       1
_space_group_crystal_system       triclinic
_cell_length_a                    12.126762
_cell_length_b                    13.024326
_cell_length_c                    15.454876
_cell_angle_alpha                 84.18901
_cell_angle_beta                  116.195634
_cell_angle_gamma                 93.775065
_cell_volume                      2178.41241339

loop_
_atom_site_label
_atom_site_type_symbol
_atom_type_description
_atom_site_fract_x
_atom_site_fract_y
_atom_site_fract_z
_atom_type_partial_charge
C1    C     C_R   0.479559 0.299272 0.499603 0.977064
C2    C     C_R   0.520339 0.700978 0.497383 0.940987
C3    C     C_R   0.634769 0.472547 0.113539 -0.123115
C4    C     C_R   0.370699 0.563249 0.885195 -0.143443
C5    C     C_R   0.718125 0.446721 0.081197 -0.064486
C6    C     C_R   0.286474 0.586226 0.918256 -0.105149
C7    C     C_R   0.528350 0.813826 0.487496 -0.315118
C8    C     C_R   0.476270 0.186818 0.501263 -0.236673
C9    C     C_R   0.401877 0.023054 0.542751 0.412996
C10   C     C_R   0.642452 0.971078 0.476995 0.368834
C11   C     C_R   0.432393 0.125903 0.560330 0.238262
C12   C     C_R   0.641034 0.864727 0.500901 0.335319
C13   C     C_R   0.540706 0.137334 0.459266 0.182241
C14   C     C_R   0.425520 0.874602 0.469084 0.214212
C15   C     C_R   0.544672 0.029243 0.471470 -0.161028
C16   C     C_R   0.451718 0.976753 0.490352 -0.107822
C17   C     C_R   0.996772 0.584375 0.393441 0.315506
C18   C     C_R   0.993324 0.398455 0.592680 0.313043
C19   C     C_R   0.117289 0.574758 0.405450 -0.054965
C20   C     C_R   0.873067 0.407292 0.580115 -0.137777
C21   C     C_R   0.165513 0.467025 0.549732 0.319152
C22   C     C_R   0.839205 0.546332 0.459784 0.332195
C23   C     C_R   0.577766 0.496148 0.680544 0.973430
C24   C     C_R   0.422371 0.506355 0.318856 0.938367
C25   C     C_R   0.039649 0.464102 0.535142 -0.132331
C26   C     C_R   0.956706 0.531909 0.460973 -0.145468
C27   C     C_R   0.629853 0.494124 0.786000 -0.219441
C28   C     C_R   0.371663 0.518499 0.212374 -0.207793
C29   C     C_R   0.767984 0.424451 0.947629 0.362431
C30   C     C_R   0.232568 0.594481 0.052687 0.338532
C31   C     C_R   0.734734 0.436771 0.847763 0.090563
C32   C     C_R   0.266957 0.577473 0.152906 0.102890
C33   C     C_R   0.566506 0.544932 0.824746 0.275768
C34   C     C_R   0.436219 0.476074 0.169929 0.255663
C35   C     C_R   0.580991 0.513602 0.918614 -0.040131
C36   C     C_R   0.423607 0.516337 0.078841 -0.031127
C37   C     C_R   0.689636 0.460752 0.982884 -0.012977
C38   C     C_R   0.313639 0.567077 0.016119 -0.009018
C39   C     C_R   0.489925 0.530091 0.949873 0.118551
C40   C     C_R   0.515800 0.504811 0.047983 0.114956
H1    H     H_    0.804737 0.415484 0.134326 0.208496
H2    H     H_    0.199115 0.616865 0.865816 0.212470
H3    H     H_    0.837903 0.356169 0.622349 0.196129
H4    H     H_    0.145018 0.612123 0.352299 0.173775
H5    H     H_    0.664496 0.464385 0.190680 0.184894
H6    H     H_    0.339434 0.571059 0.808115 0.190411
N1    N     N_R   0.799120 0.480200 0.517090 -0.140476
N2    N     N_R   0.200880 0.519800 0.482910 -0.128439
O1    O     O_R   0.580150 0.341050 0.504560 -0.614900
O2    O     O_R   0.419850 0.658950 0.495440 -0.606152
O3    O     O_R   0.388090 0.353760 0.493600 -0.624830
O4    O     O_R   0.611910 0.646240 0.506400 -0.556461
O5    O     O_R   0.650890 0.490020 0.640860 -0.590236
O6    O     O_R   0.349110 0.509980 0.359140 -0.599518
O7    O     O_R   0.458830 0.502730 0.629890 -0.580485
O8    O     O_R   0.541170 0.497270 0.370110 -0.615101
Zn1   Zn    Zn3+2 0.628240 0.491510 0.507320 0.991277
Zn2   Zn    Zn3+2 0.371760 0.508490 0.492680 0.999962
Cl1   Cl    Cl    0.900158 0.651357 0.283936 -0.665297
Cl2   Cl    Cl    0.069727 0.294274 0.674615 -0.594452
Cl3   Cl    Cl    0.494361 0.351374 0.214058 -0.634102
Cl4   Cl    Cl    0.498887 0.664400 0.764345 -0.493549
N3    N     N_2   0.196450 0.619312 0.193179 -0.274710
H7    H     H_    0.103586 0.602603 0.157321 0.300499
C41   C     C_3   0.222188 0.727680 0.208262 -0.712893
H8    H     H_    0.207353 0.773913 0.139769 0.291923
H9    H     H_    0.318867 0.739312 0.262453 0.204704
H10   H     H_    0.158686 0.755808 0.234139 0.247130
N4    N     N_2   0.806564 0.392323 0.809664 -0.287539
H11   H     H_    0.829396 0.316801 0.835684 0.290760
C42   C     C_3   0.911497 0.455663 0.814381 -0.566234
H12   H     H_    0.976159 0.467215 0.890617 0.283259
H13   H     H_    0.881296 0.531911 0.773656 0.267697
H14   H     H_    0.961667 0.416766 0.782405 0.233311
Cl5   Cl    Cl    0.902834 0.356826 0.026122 -0.585747
Cl6   Cl    Cl    0.093862 0.658026 0.976231 -0.590331
N5    N     N_2   0.299573 0.837146 0.428676 -0.246027
H15   H     H_    0.283424 0.769318 0.396682 0.240317
C43   C     C_3   0.205727 0.909000 0.364087 -0.674019
H16   H     H_    0.114635 0.868406 0.334258 0.263935
H17   H     H_    0.197382 0.973373 0.402145 0.268126
H18   H     H_    0.226354 0.940194 0.303032 0.226946
N6    N     N_2   0.574331 0.191463 0.388758 -0.261065
H19   H     H_    0.552389 0.151320 0.328788 0.273293
C44   C     C_3   0.693963 0.243505 0.421127 -0.452043
H20   H     H_    0.748846 0.230246 0.500630 0.249910
H21   H     H_    0.745869 0.216704 0.384076 0.243599
H22   H     H_    0.682418 0.327352 0.400638 0.254902
Cl7   Cl    Cl    0.784335 0.802599 0.561111 -0.463926
Cl8   Cl    Cl    0.476528 0.156387 0.679326 -0.557800
Cl9   Cl    Cl    0.330538 0.947641 0.606799 -0.386368
Cl10  Cl    Cl    0.779508 0.026573 0.477985 -0.506926
N7    N     N_2   0.781698 0.643807 0.422523 -0.237171
H23   H     H_    0.843128 0.705534 0.435088 0.284198
C45   C     C_3   0.678470 0.654098 0.327512 -0.551668
H24   H     H_    0.695215 0.719145 0.282207 0.256563
H25   H     H_    0.595586 0.675072 0.333997 0.205797
H26   H     H_    0.661734 0.582859 0.289670 0.229459
N8    N     N_2   0.257944 0.431092 0.641163 -0.297451
H27   H     H_    0.244947 0.447242 0.699850 0.227061
C46   C     C_3   0.303791 0.329628 0.648937 -0.448038
H28   H     H_    0.302033 0.282051 0.712058 0.276645
H29   H     H_    0.401159 0.337408 0.664459 0.243062
H30   H     H_    0.251218 0.288790 0.582232 0.250341

loop_
_geom_bond_atom_site_label_1
_geom_bond_atom_site_label_2
_ccdc_geom_bond_type
N3    C41   S    
N7    H23   S    
C5    C37   A    
C1    C8    S    
C45   H24   S    
C9    Cl9   S    
C45   H26   S    
C4    H6    S    
N5    H15   S    
C27   C33   A    
C46   H28   S    
C17   C26   A    
C35   C37   A    
C9    C16   A    
C10   C15   A    
C21   N8    S    
C24   O6    A    
C15   C16   A    
O1    Zn1   S    
O8    Zn1   S    
C30   C38   A    
C14   N5    S    
N4    C42   S    
C21   C25   A    
C2    O2    A    
C42   H14   S    
C17   C19   A    
C7    C14   A    
C2    C7    S    
C33   Cl4   S    
C41   H9    S    
C6    C38   A    
C23   C27   S    
C18   C20   A    
C21   N2    A    
N5    C43   S    
C22   N1    A    
C10   Cl10  S    
C46   H29   S    
C18   C25   A    
C10   C12   A    
C23   O5    A    
C44   H21   S    
C7    C12   A    
C27   C31   A    
O2    Zn2   S    
C12   Cl7   S    
C36   C40   A    
C4    C6    A    
C39   C40   A    
C43   H17   S    
O5    Zn1   S    
C19   N2    A    
C25   C26   A    
C44   H20   S    
C3    H5    S    
C34   Cl3   S    
C43   H16   S    
C35   C39   A    
N1    Zn1   S    
C30   Cl6   S    
N6    H19   S    
C4    C39   A    
C28   C32   A    
C41   H10   S    
O3    Zn2   S    
N2    Zn2   S    
C1    O3    A    
C2    O4    A    
C17   Cl1   S    
C18   Cl2   S    
N6    C44   S    
C3    C40   A    
C46   H30   S    
C9    C11   A    
C6    H2    S    
C22   N7    S    
C14   C16   A    
C20   H3    S    
C19   H4    S    
C42   H13   S    
O6    Zn2   S    
C44   H22   S    
C5    H1    S    
N8    C46   S    
C24   C28   S    
C32   N3    S    
C3    C5    A    
C43   H18   S    
C45   H25   S    
C23   O7    A    
C29   Cl5   S    
C24   O8    A    
C13   N6    S    
N8    H27   S    
C13   C15   A    
C42   H12   S    
C29   C31   A    
C30   C32   A    
C11   Cl8   S    
C8    C11   A    
C36   C38   A    
C33   C35   A    
C34   C36   A    
N4    H11   S    
C20   N1    A    
O4    Zn1   S    
C28   C34   A    
N3    H7    S    
C8    C13   A    
C31   N4    S    
N7    C45   S    
C41   H8    S    
C22   C26   A    
O7    Zn2   S    
C29   C37   A    
C1    O1    A    
