data_mof_unit_33248.cif
_audit_creation_date              2012-12-11T16:35:18-0500
_audit_creation_method            fapswitch 2.2
_symmetry_space_group_name_H-M    P1
_symmetry_Int_Tables_number       1
_space_group_crystal_system       triclinic
_cell_length_a                    6.939312
_cell_length_b                    17.851946
_cell_length_c                    19.402279
_cell_angle_alpha                 108.659435
_cell_angle_beta                  90.500076
_cell_angle_gamma                 90.194714
_cell_volume                      2277.08512164

loop_
_atom_site_label
_atom_site_type_symbol
_atom_type_description
_atom_site_fract_x
_atom_site_fract_y
_atom_site_fract_z
_atom_type_partial_charge
O1    O     O_R   0.505700 0.440210 0.561730 -0.525433
O2    O     O_R   0.169350 0.406300 0.412660 -0.517745
O3    O     O_R   0.005650 0.559790 0.438270 -0.531085
C1    C     C_R   0.338221 0.383495 0.384441 0.764635
O4    O     O_R   0.175560 0.430650 0.559600 -0.550870
O5    O     O_R   0.011900 0.584320 0.586250 -0.556085
C2    C     C_R   0.345596 0.412348 0.578114 0.709702
O6    O     O_R   0.499450 0.415680 0.413750 -0.552064
O7    O     O_3   0.341370 0.550390 0.508570 -0.384834
V1    V     V_3+5 0.063940 0.490650 0.498410 1.468533
O8    O     O_R   0.682570 0.593700 0.587340 -0.494466
C3    C     C_R   0.852211 0.619088 0.613146 0.823962
O9    O     O_R   0.676370 0.569350 0.440400 -0.554449
C4    C     C_R   0.845352 0.586710 0.420708 0.753932
V2    V     V_3+5 0.564750 0.509350 0.501590 1.474840
O10   O     O_3   0.837190 0.449610 0.491430 -0.376634
C5    C     C_R   0.050322 0.717174 0.316976 -0.160087
H1    H     H_    0.191068 0.737813 0.307054 0.098650
C6    C     C_R   0.036556 0.670140 0.362287 -0.139790
H2    H     H_    0.166908 0.657254 0.387016 0.097512
C7    C     C_R   0.857213 0.640980 0.376047 -0.015637
C8    C     C_R   0.690746 0.664965 0.347075 -0.175338
H3    H     H_    0.549755 0.647042 0.358770 0.090816
C9    C     C_R   0.703963 0.712589 0.302209 -0.143458
H4    H     H_    0.572996 0.727995 0.279261 0.096592
C10   C     C_R   0.884331 0.738144 0.285548 0.118000
C11   C     C_R   0.768682 0.846323 0.238167 -0.154792
H5    H     H_    0.657157 0.861161 0.278929 0.118508
C12   C     C_R   0.780164 0.888878 0.188985 -0.283386
H6    H     H_    0.677106 0.935230 0.193081 0.127543
C13   C     C_R   0.922276 0.872020 0.135172 -0.156963
C14   C     C_R   0.057903 0.812326 0.132760 0.473987
C15   C     C_R   0.043758 0.769015 0.181798 -0.238082
H7    H     H_    0.142454 0.720728 0.176786 0.122143
C16   C     C_R   0.899753 0.785575 0.234952 0.035027
H8    H     H_    0.243064 0.649638 0.907766 0.160235
C17   C     C_R   0.750702 0.904435 0.756204 -0.115763
C18   C     C_R   0.687634 0.921400 0.695350 -0.170998
C19   C     C_R   0.674964 0.862077 0.629565 -0.187959
C20   C     C_R   0.713958 0.782704 0.623798 0.431240
C21   C     C_R   0.795955 0.764744 0.685266 -0.021749
C22   C     C_R   0.814571 0.828201 0.752618 0.019371
C23   C     C_R   0.860995 0.687259 0.682224 -0.141435
C24   C     C_R   0.944930 0.675500 0.745607 -0.032312
C25   C     C_R   0.970088 0.740545 0.810746 -0.050892
C26   C     C_R   0.901021 0.816354 0.814976 -0.157513
C27   C     C_R   0.001222 0.599310 0.747967 -0.029255
C28   C     C_R   0.141373 0.594970 0.799054 -0.207383
C29   C     C_R   0.165313 0.658159 0.862224 -0.204549
C30   C     C_R   0.055487 0.725842 0.872076 0.471346
H9    H     H_    0.751744 0.953078 0.805839 0.112653
H10   H     H_    0.647633 0.981234 0.699333 0.133582
H11   H     H_    0.628739 0.878259 0.582911 0.123781
H12   H     H_    0.202580 0.538828 0.797866 0.189948
H13   H     H_    0.051518 0.442445 0.168270 0.136373
C31   C     C_R   0.515054 0.237255 0.383267 -0.129876
C32   C     C_R   0.614138 0.170234 0.385215 -0.117054
C33   C     C_R   0.651580 0.109761 0.321147 -0.127967
C34   C     C_R   0.588633 0.115562 0.254724 -0.154915
C35   C     C_R   0.487925 0.182820 0.250763 0.076473
C36   C     C_R   0.452115 0.245782 0.316458 0.061280
C37   C     C_R   0.419321 0.186857 0.183047 -0.157344
C38   C     C_R   0.318090 0.255273 0.181123 0.022811
C39   C     C_R   0.287147 0.320192 0.246378 -0.029557
C40   C     C_R   0.353078 0.315043 0.314980 -0.185186
C41   C     C_R   0.250737 0.260851 0.113807 -0.132431
C42   C     C_R   0.152102 0.326868 0.109973 -0.204398
C43   C     C_R   0.124422 0.390425 0.172282 -0.173554
C44   C     C_R   0.195539 0.389174 0.239566 0.453674
H14   H     H_    0.486913 0.281699 0.434973 0.086754
H15   H     H_    0.661415 0.165108 0.436835 0.110258
H16   H     H_    0.728492 0.057733 0.322926 0.118440
H17   H     H_    0.619796 0.066692 0.206602 0.101279
H18   H     H_    0.274864 0.214611 0.062848 0.117007
H19   H     H_    0.100282 0.329388 0.057958 0.136164
C45   C     C_R   0.552974 0.286749 0.686164 -0.105739
H20   H     H_    0.694196 0.268980 0.698970 0.115676
C46   C     C_R   0.538961 0.332607 0.639720 -0.184883
H21   H     H_    0.669760 0.348966 0.617973 0.126642
C47   C     C_R   0.358732 0.357345 0.621720 -0.040414
C48   C     C_R   0.192330 0.328343 0.645430 -0.127921
H22   H     H_    0.051188 0.341065 0.628078 0.136248
C49   C     C_R   0.205868 0.283435 0.692676 -0.145543
H23   H     H_    0.074248 0.264942 0.712039 0.098372
C50   C     C_R   0.386705 0.264046 0.715555 0.160246
C51   C     C_R   0.273911 0.155422 0.761477 -0.322376
H24   H     H_    0.168149 0.138817 0.717743 0.148539
C52   C     C_R   0.277483 0.113441 0.811356 0.472251
C53   C     C_R   0.417275 0.130923 0.867394 -0.202708
C54   C     C_R   0.544983 0.194333 0.874801 -0.359928
H25   H     H_    0.644415 0.210937 0.920514 0.147198
C55   C     C_R   0.537689 0.239067 0.826146 0.505254
C56   C     C_R   0.401115 0.218743 0.768342 -0.071369
O11   O     O_R   0.273230 0.084330 0.086440 -0.543724
O12   O     O_R   0.596660 0.069390 0.940470 -0.563929
O13   O     O_R   0.760270 0.915710 0.913690 -0.550646
C57   C     C_R   0.427349 0.084125 0.918676 0.743255
O14   O     O_R   0.603330 0.093680 0.087390 -0.541510
O15   O     O_R   0.766990 0.940160 0.061660 -0.554768
C58   C     C_R   0.434399 0.116694 0.115275 0.675126
O16   O     O_R   0.266510 0.059870 0.938470 -0.524378
O17   O     O_3   0.431050 0.949630 0.991510 -0.365086
V3    V     V_3+5 0.708490 0.009340 0.001580 1.385630
O18   O     O_R   0.096270 0.930570 0.059390 -0.509013
C59   C     C_R   0.928813 0.917598 0.082822 0.781156
O19   O     O_R   0.089600 0.906290 0.912460 -0.515113
C60   C     C_R   0.919254 0.884166 0.884245 0.787390
V4    V     V_3+5 0.207670 0.990600 0.998190 1.491691
O20   O     O_3   0.935250 0.050360 0.008480 -0.387436
O21   O     O_3   0.680400 0.724000 0.557658 -0.570580
C61   C     C_3   0.496567 0.732949 0.528629 -0.208963
H26   H     H_    0.505010 0.774316 0.496499 0.116679
H27   H     H_    0.383843 0.751749 0.571232 0.124758
H28   H     H_    0.447827 0.675917 0.490221 0.171717
C62   C     C_2   0.873886 0.528570 0.721155 0.732318
O22   O     O_2   0.708417 0.534464 0.701539 -0.561402
O23   O     O_R   0.934168 0.457405 0.729480 -0.679628
H29   H     H_    0.825366 0.418193 0.724152 0.293508
O24   O     O_3   0.004617 0.768413 0.942183 -0.537633
C63   C     C_3   0.826949 0.737180 0.956299 -0.191209
H30   H     H_    0.835405 0.672471 0.947554 0.136869
H31   H     H_    0.708220 0.749718 0.922713 0.123598
H32   H     H_    0.788906 0.765343 0.013814 0.138842
O25   O     O_3   0.175172 0.456868 0.297972 -0.559360
C64   C     C_3   0.333445 0.507136 0.299543 -0.260362
H33   H     H_    0.304715 0.543569 0.263686 0.139943
H34   H     H_    0.472827 0.475235 0.284674 0.118308
H35   H     H_    0.351419 0.546549 0.356166 0.163379
O26   O     O_3   0.140965 0.055448 0.805586 -0.555537
C65   C     C_3   0.969767 0.091960 0.838571 -0.206148
H36   H     H_    0.988703 0.153003 0.877588 0.099184
H37   H     H_    0.911339 0.057048 0.871391 0.175680
H38   H     H_    0.863011 0.092603 0.795838 0.129216
O27   O     O_3   0.643405 0.308599 0.839357 -0.546300
C66   C     C_3   0.841016 0.295797 0.848733 -0.268357
H39   H     H_    0.892780 0.240249 0.808296 0.113620
H40   H     H_    0.872005 0.296391 0.905137 0.140540
H41   H     H_    0.924169 0.345191 0.840135 0.187720
O28   O     O_3   0.190489 0.790303 0.077279 -0.533226
C67   C     C_3   0.375126 0.814885 0.106469 -0.164409
H42   H     H_    0.377753 0.878823 0.139011 0.112583
H43   H     H_    0.476193 0.806758 0.060823 0.156689
H44   H     H_    0.427190 0.778397 0.139675 0.116008

loop_
_geom_bond_atom_site_label_1
_geom_bond_atom_site_label_2
_ccdc_geom_bond_type
C66   H41   S    
O15   V3    S    
C31   C36   A    
C11   C12   A    
C21   C23   A    
C21   C22   A    
C65   H37   S    
C61   H26   S    
C67   H44   S    
C1    O6    A    
H13   C43   S    
C54   H25   S    
C66   H39   S    
C19   H11   S    
C25   C26   A    
C31   C32   A    
C28   H12   S    
O11   V4    S    
C17   C18   A    
C5    C10   A    
C4    C7    S    
C6    C7    A    
C45   C46   A    
C3    C23   S    
O5    C3    A    
C18   C19   A    
C17   H9    S    
C51   C52   A    
C18   H10   S    
O19   C60   A    
O14   V3    S    
V2    O10   S    
C41   H18   S    
V4    O20   S    
C35   C37   A    
C22   C26   A    
C17   C22   A    
O21   C61   S    
C5    C6    A    
C50   C56   S    
C27   C28   A    
O12   V3    S    
C43   C44   A    
C62   O23   S    
C5    H1    S    
C64   H35   S    
O17   V4    S    
O1    V2    S    
O7    V1    S    
C34   H17   S    
C24   C27   A    
O16   V4    S    
C41   C42   A    
C38   C41   A    
C34   C35   A    
O9    C4    A    
C13   C59   S    
O8    V2    S    
C52   O26   S    
O18   C59   A    
C48   C49   A    
C63   H31   S    
C48   H22   S    
C67   H42   S    
O15   C59   A    
C42   C43   A    
C9    H4    S    
C14   O28   S    
C19   C20   A    
O4    C2    A    
C51   H24   S    
C20   O21   S    
C44   O25   S    
C11   C16   A    
C33   C34   A    
C32   H15   S    
C30   O24   S    
C53   C57   S    
C35   C36   A    
O2    C1    A    
C23   C24   A    
C12   H6    S    
C51   C56   A    
C54   C55   A    
C49   H23   S    
O11   C58   A    
O28   C67   S    
C26   C60   S    
C37   C38   A    
O12   C57   A    
C15   H7    S    
C61   H27   S    
C39   C44   A    
C45   H20   S    
C27   C62   S    
O3    C4    A    
C37   C58   S    
C20   C21   A    
C49   C50   A    
O13   C60   A    
O6    V2    S    
C31   H14   S    
O9    V2    S    
C64   H33   S    
C8    C9    A    
C65   H38   S    
C42   H19   S    
O2    V1    S    
O18   V4    S    
C63   H30   S    
O26   C65   S    
C66   H40   S    
C28   C29   A    
O1    C2    A    
C13   C14   A    
C55   O27   S    
C24   C25   A    
C9    C10   A    
C47   C48   A    
O5    V1    S    
O24   C63   S    
C63   H32   S    
O27   C66   S    
C67   H43   S    
O14   C58   A    
V3    O20   S    
C14   C15   A    
C6    H2    S    
C65   H36   S    
O7    V2    S    
O4    V1    S    
C12   C13   A    
O3    V1    S    
V1    O10   S    
O23   H29   S    
C39   C40   A    
C46   H21   S    
C33   H16   S    
C32   C33   A    
C1    C40   S    
O19   V4    S    
C25   C30   A    
C55   C56   A    
C15   C16   A    
C61   H28   S    
C46   C47   A    
O17   V3    S    
C38   C39   A    
C36   C40   A    
C10   C16   S    
C52   C53   A    
C29   C30   A    
O13   V3    S    
C11   H5    S    
C64   H34   S    
C8    H3    S    
C2    C47   S    
C53   C54   A    
C7    C8    A    
C45   C50   A    
C57   O16   A    
H8    C29   S    
C62   O22   D    
O8    C3    A    
O25   C64   S    
