data_mof_unit_25761.cif
_audit_creation_date              2013-03-05T15:56:22-0500
_audit_creation_method            fapswitch 2.2
_symmetry_space_group_name_H-M    P1
_symmetry_Int_Tables_number       1
_space_group_crystal_system       triclinic
_cell_length_a                    12.314147
_cell_length_b                    13.163137
_cell_length_c                    23.525555
_cell_angle_alpha                 77.655658
_cell_angle_beta                  101.283836
_cell_angle_gamma                 116.882825
_cell_volume                      3301.07636928

loop_
_atom_site_label
_atom_site_type_symbol
_atom_site_description
_atom_site_fract_x
_atom_site_fract_y
_atom_site_fract_z
_atom_type_partial_charge
O1    O     O_R   0.972510 0.318130 0.516820 -0.575972
O2    O     O_R   0.806530 0.359650 0.494230 -0.603163
C1    C     C_R   0.854570 0.286246 0.505507 0.789649
O3    O     O_R   0.082990 0.479200 0.593420 -0.582672
O4    O     O_R   0.917010 0.520720 0.570830 -0.599586
C2    C     C_R   0.999361 0.499503 0.608931 0.797114
Cu1   Cu    Cu3+1 0.098270 0.475410 0.513370 0.938590
Cu2   Cu    Cu3+1 0.901730 0.524590 0.486630 0.924731
O5    O     O_R   0.193470 0.640350 0.505770 -0.581636
O6    O     O_R   0.027490 0.681870 0.483180 -0.582782
O7    O     O_R   0.082990 0.479280 0.429170 -0.583595
O8    O     O_R   0.917010 0.520800 0.406580 -0.595520
C3    C     C_R   0.145438 0.713682 0.491228 0.805168
C4    C     C_R   0.000352 0.500110 0.391085 0.791903
C5    C     C_R   0.090086 0.585352 0.118549 0.560119
N1    N     N_R   0.999962 0.497232 0.148610 -0.467094
C6    C     C_R   0.908955 0.408847 0.121636 0.540544
C7    C     C_R   0.906034 0.407118 0.061841 -0.037691
C8    C     C_R   0.997775 0.496839 0.030051 -0.017729
C9    C     C_R   0.090816 0.586747 0.058785 -0.076272
C10   C     C_R   0.813356 0.317565 0.033710 -0.148926
C11   C     C_R   0.809484 0.314827 0.974153 0.126170
C12   C     C_R   0.902186 0.405344 0.941228 -0.002590
C13   C     C_R   0.996584 0.496795 0.969742 -0.099077
C14   C     C_R   0.089999 0.588399 0.938307 -0.103742
C15   C     C_R   0.183177 0.678335 0.968204 0.405283
C16   C     C_R   0.182296 0.676282 0.027531 -0.195135
C17   C     C_R   0.905200 0.408581 0.881014 0.538315
N2    N     N_R   0.995564 0.497510 0.851591 -0.478475
C18   C     C_R   0.086135 0.586168 0.878288 0.575355
O9    O     O_2   0.178046 0.671849 0.146321 -0.534325
O10   O     O_2   0.822043 0.322548 0.152724 -0.538493
H1    H     H_    0.742817 0.248670 0.058425 0.191507
O11   O     O_2   0.819884 0.323787 0.851538 -0.542007
O12   O     O_2   0.171127 0.671708 0.846113 -0.457828
H2    H     H_    0.254364 0.745864 0.049232 0.217424
C19   C     C_R   0.907096 0.517830 0.749042 -0.095723
H3    H     H_    0.837700 0.533601 0.762698 0.142759
C20   C     C_R   0.907954 0.518407 0.689796 -0.221395
H4    H     H_    0.838305 0.534430 0.658450 0.163235
C21   C     C_R   0.997973 0.498622 0.671474 -0.042337
C22   C     C_R   0.086635 0.477808 0.713514 -0.209953
H5    H     H_    0.156933 0.462039 0.700761 0.161002
C23   C     C_R   0.085518 0.477264 0.772697 -0.097072
H6    H     H_    0.154203 0.461113 0.804724 0.146062
C24   C     C_R   0.995946 0.497431 0.790635 0.351377
C25   C     C_R   0.908595 0.514526 0.227808 -0.099026
H7    H     H_    0.837451 0.526977 0.196095 0.145708
C26   C     C_R   0.908673 0.515414 0.286942 -0.221890
H8    H     H_    0.836661 0.528258 0.299971 0.159206
C27   C     C_R   0.000619 0.499620 0.328592 -0.038701
C28   C     C_R   0.092526 0.483148 0.309945 -0.216504
H9    H     H_    0.164628 0.470923 0.341002 0.157134
C29   C     C_R   0.092279 0.482426 0.250738 -0.104570
H10   H     H_    0.163320 0.469418 0.236845 0.142443
C30   C     C_R   0.000287 0.498002 0.209504 0.351215
C31   C     C_R   0.280355 0.015225 0.411987 -0.178941
H11   H     H_    0.097805 0.881068 0.414988 0.148536
H12   H     H_    0.465141 0.212120 0.376524 0.149242
H13   H     H_    0.251039 0.071715 0.378895 0.139418
C32   C     C_R   0.228933 0.834752 0.476779 -0.056720
C33   C     C_R   0.813771 0.084993 0.545283 -0.231311
C34   C     C_R   0.739537 0.967764 0.551145 -0.133782
C35   C     C_R   0.619322 0.924796 0.523634 0.182274
C36   C     C_R   0.570004 0.003545 0.492482 0.067391
C37   C     C_R   0.652803 0.120644 0.478379 0.043147
C38   C     C_R   0.442926 0.971987 0.474260 0.077816
C39   C     C_R   0.405069 0.047623 0.431915 0.160173
C40   C     C_R   0.492011 0.154810 0.410248 -0.227883
C41   C     C_R   0.613918 0.191648 0.433660 -0.179229
C42   C     C_R   0.351786 0.870887 0.499660 -0.244899
C43   C     C_R   0.192741 0.908006 0.433449 -0.185784
C44   C     C_R   0.772861 0.162463 0.508438 -0.102590
H14   H     H_    0.374489 0.818155 0.537367 0.172225
H15   H     H_    0.905120 0.114890 0.568722 0.163066
H16   H     H_    0.777289 0.909569 0.576378 0.153342
H17   H     H_    0.677334 0.275285 0.414914 0.176258
C45   C     C_R   0.347049 0.329972 0.594121 -0.290348
H18   H     H_    0.170012 0.311978 0.604911 0.124606
H19   H     H_    0.547292 0.296342 0.613176 0.164529
H20   H     H_    0.346718 0.264549 0.631054 0.149282
N3    N     N_R   0.246280 0.438190 0.533650 -0.180066
C46   C     C_R   0.758920 0.643880 0.420189 0.073004
C47   C     C_R   0.660452 0.672322 0.401454 -0.245788
C48   C     C_R   0.556143 0.616354 0.430736 -0.205058
C49   C     C_R   0.549783 0.531837 0.479936 -0.007476
C50   C     C_R   0.652477 0.504496 0.497026 0.287804
C51   C     C_R   0.445978 0.473529 0.512743 -0.029931
C52   C     C_R   0.446539 0.388275 0.561075 0.170982
C53   C     C_R   0.546435 0.361695 0.576358 -0.276244
C54   C     C_R   0.647043 0.418600 0.545165 -0.190385
C55   C     C_R   0.341169 0.496231 0.500244 0.022677
C56   C     C_R   0.247200 0.356497 0.579588 0.072908
N4    N     N_R   0.754320 0.561190 0.466710 -0.206401
H21   H     H_    0.332967 0.559866 0.464562 0.122484
H22   H     H_    0.839324 0.687317 0.397037 0.126755
H23   H     H_    0.482382 0.641306 0.414122 0.142457
H24   H     H_    0.664833 0.737706 0.364016 0.156849
H25   H     H_    0.718625 0.391978 0.560611 0.208618
C57   C     C_3   0.557813 0.797043 0.520930 -0.893018
H26   H     H_    0.519989 0.748729 0.562728 0.237200
H27   H     H_    0.485560 0.774790 0.483260 0.237185
H28   H     H_    0.625778 0.768168 0.514288 0.245570
C58   C     C_3   0.704785 0.213971 0.948241 -0.686029
H29   H     H_    0.740898 0.163582 0.931751 0.263394
H30   H     H_    0.642265 0.153779 0.981018 0.212826
H31   H     H_    0.648599 0.244990 0.912529 0.257277
Cl1   Cl    Cl    0.305402 0.797208 0.935310 -0.527945

loop_
_geom_bond_atom_site_label_1
_geom_bond_atom_site_label_2
_geom_bond_distance
_ccdc_geom_bond_type
C50   C54   1.406834 A    
C7    C10   1.396916 A    
C21   C22   1.406167 A    
C8    C9    1.408195 A    
C58   H30   1.111091 S    
N3    C55   1.364554 A    
Cu1   Cu2   2.705406 S    
C20   C21   1.406576 A    
C48   C49   1.410548 A    
C23   H6    1.083058 S    
Cu1   O7    1.944592 S    
C15   C16   1.392245 A    
N2    C18   1.364738 A    
C18   O12   1.347596 S    
C17   N2    1.365524 A    
H18   C56   1.081835 S    
O4    C2    1.305051 A    
O7    C4    1.305367 A    
C49   C51   1.436764 A    
C10   H1    1.083875 S    
C34   H16   1.083934 S    
C45   C56   1.386833 A    
C5    N1    1.367293 A    
C50   N4    1.383635 A    
C11   C58   1.512246 S    
C7    C8    1.405978 A    
O5    C3    1.301761 A    
C46   C47   1.391234 A    
C28   C29   1.394341 A    
N1    C6    1.367631 A    
C36   C38   1.425088 A    
C2    C21   1.472314 S    
C12   C13   1.423021 A    
C33   C44   1.400272 A    
C32   C42   1.394533 A    
C17   O11   1.347522 S    
N3    C56   1.354163 A    
C10   C11   1.400209 A    
C41   H17   1.079839 S    
C22   C23   1.393506 A    
O3    Cu1   1.942095 S    
C58   H29   1.110165 S    
C23   C24   1.400020 A    
C45   C52   1.400595 A    
C5    C9    1.403901 A    
C29   C30   1.400440 A    
C27   C28   1.406129 A    
C25   H7    1.082944 S    
C51   C55   1.415694 A    
Cu2   N4    2.026870 S    
C13   C14   1.421758 A    
O3    C2    1.304908 A    
C15   Cl1   1.766595 S    
C20   H4    1.083259 S    
C49   C50   1.428669 A    
C39   C40   1.391660 A    
C31   H13   1.083772 S    
C26   C27   1.406015 A    
C14   C15   1.422855 A    
C37   C44   1.417793 A    
C55   H21   1.076650 S    
C38   C39   1.419470 A    
O1    C1    1.304416 A    
N1    C30   1.433982 S    
C19   H3    1.083024 S    
C42   H14   1.077975 S    
C4    C27   1.472226 S    
Cu2   O8    1.942096 S    
C33   C34   1.385102 A    
C57   H27   1.108831 S    
C6    C7    1.404923 A    
C12   C17   1.415344 A    
C47   C48   1.393084 A    
H12   C40   1.084034 S    
C32   C43   1.399309 A    
O8    C4    1.304580 A    
C36   C37   1.420569 A    
C33   H15   1.083515 S    
C22   H5    1.083164 S    
C31   C39   1.404136 A    
C28   H9    1.083113 S    
C14   C18   1.409608 A    
Cu1   O5    1.932452 S    
C29   H10   1.082920 S    
O1    Cu1   1.941367 S    
O2    Cu2   1.932455 S    
O6    C3    1.302694 A    
O4    Cu2   1.944592 S    
C5    O9    1.349915 S    
C9    C16   1.397000 A    
C16   H2    1.083823 S    
C25   C26   1.393498 A    
N2    C24   1.435156 S    
C47   H24   1.082526 S    
C35   C36   1.432032 A    
O2    C1    1.303776 A    
C52   C53   1.388254 A    
C19   C20   1.394274 A    
C46   N4    1.358265 A    
C45   H20   1.083910 S    
H11   C43   1.083198 S    
C53   C54   1.384185 A    
C37   C41   1.413075 A    
C46   H22   1.081589 S    
C57   H26   1.110099 S    
C8    C13   1.416120 A    
C38   C42   1.399782 A    
C57   H28   1.110664 S    
C31   C43   1.393665 A    
H19   C53   1.084629 S    
C40   C41   1.387215 A    
C1    C44   1.472592 S    
C48   H23   1.077780 S    
C34   C35   1.398073 A    
C35   C57   1.510181 S    
Cu1   N3    2.038845 S    
C3    C32   1.461433 S    
C51   C52   1.417956 A    
Cu2   O6    1.941365 S    
C26   H8    1.083052 S    
C6    O10   1.349943 S    
C11   C12   1.429737 A    
C54   H25   1.063658 S    
C19   C24   1.400365 A    
C58   H31   1.110226 S    
C25   C30   1.400013 A    
