data_mof_unit_16679.cif
_audit_creation_date              2012-12-10T19:44:32-0500
_audit_creation_method            fapswitch 2.2
_symmetry_space_group_name_H-M    P1
_symmetry_Int_Tables_number       1
_space_group_crystal_system       triclinic
_cell_length_a                    8.575634
_cell_length_b                    14.966412
_cell_length_c                    14.228038
_cell_angle_alpha                 91.181535
_cell_angle_beta                  98.872579
_cell_angle_gamma                 90.49903
_cell_volume                      1803.75246794

loop_
_atom_site_label
_atom_site_type_symbol
_atom_type_description
_atom_site_fract_x
_atom_site_fract_y
_atom_site_fract_z
_atom_type_partial_charge
C1    C     C_R   0.499958 0.328361 0.499044 0.968857
C2    C     C_R   0.495213 0.672388 0.500576 0.914716
C3    C     C_R   0.386301 0.453583 0.093290 -0.339972
C4    C     C_R   0.560010 0.570348 0.903111 -0.324245
C5    C     C_R   0.386961 0.453633 0.191812 0.487174
C6    C     C_R   0.566308 0.569042 0.805280 0.496948
C7    C     C_R   0.619414 0.542215 0.217498 -0.165048
C8    C     C_R   0.439739 0.427770 0.787045 -0.173243
C9    C     C_R   0.629224 0.539100 0.119382 0.393353
C10   C     C_R   0.446849 0.422034 0.886605 0.389896
C11   C     C_R   0.507043 0.496392 0.054144 -0.009598
C12   C     C_R   0.503442 0.496092 0.946961 -0.028199
C13   C     C_R   0.201153 0.501341 0.475093 0.967426
C14   C     C_R   0.798954 0.500890 0.525008 0.996203
C15   C     C_2   0.036057 0.505167 0.461993 -0.385244
C16   C     C_2   0.964351 0.501611 0.538459 -0.362318
C17   C     C_R   0.358856 0.097138 0.513954 -0.125041
C18   C     C_R   0.520102 0.907314 0.425566 -0.156879
C19   C     C_R   0.361322 0.189142 0.512110 -0.248320
C20   C     C_R   0.520767 0.815348 0.423894 -0.247051
C21   C     C_R   0.498522 0.233287 0.496957 -0.186847
C22   C     C_R   0.484155 0.768813 0.502015 -0.218528
C23   C     C_R   0.634482 0.186847 0.482847 0.383725
C24   C     C_R   0.438108 0.815212 0.580666 0.432226
C25   C     C_R   0.636584 0.094472 0.493408 0.322543
C26   C     C_R   0.448066 0.908105 0.584811 0.331230
C27   C     C_R   0.496591 0.049944 0.506618 0.000212
C28   C     C_R   0.489191 0.953616 0.506708 0.008533
H1    H     H_    0.973963 0.510200 0.389653 0.181542
H2    H     H_    0.026561 0.497594 0.610893 0.186591
H3    H     H_    0.250353 0.062598 0.522247 0.213745
H4    H     H_    0.547912 0.942739 0.364434 0.177987
H5    H     H_    0.256190 0.225953 0.521283 0.182825
H6    H     H_    0.552298 0.780837 0.361949 0.196777
H7    H     H_    0.290241 0.419683 0.048105 0.233907
H8    H     H_    0.602762 0.629430 0.944378 0.248258
H9    H     H_    0.710378 0.576940 0.266227 0.171600
H10   H     H_    0.391214 0.372254 0.741654 0.189094
N1    N     N_R   0.500000 0.499980 0.252470 -0.142130
N2    N     N_R   0.500000 0.500020 0.747530 -0.157534
O1    O     O_R   0.500010 0.369070 0.579480 -0.630513
O2    O     O_R   0.499990 0.630930 0.420520 -0.640141
O3    O     O_R   0.500010 0.369060 0.420520 -0.583549
O4    O     O_R   0.499990 0.630940 0.579480 -0.527076
O5    O     O_R   0.271750 0.500000 0.560890 -0.637238
O6    O     O_R   0.728250 0.500000 0.439110 -0.638258
O7    O     O_R   0.271750 0.499990 0.401930 -0.568404
O8    O     O_R   0.728250 0.500010 0.598070 -0.590246
Zn1   Zn    Zn3+2 0.500000 0.500010 0.606140 1.003152
Zn2   Zn    Zn3+2 0.500000 0.499990 0.393860 0.986600
O9    O     O_3   0.767312 0.232735 0.465057 -0.586581
C29   C     C_3   0.771323 0.227902 0.366071 0.088152
H11   H     H_    0.658764 0.251272 0.324347 0.148735
H12   H     H_    0.793388 0.158323 0.342860 0.179706
C30   C     C_3   0.904225 0.287314 0.342902 -0.714209
H13   H     H_    0.018201 0.268247 0.385518 0.267921
H14   H     H_    0.913376 0.280298 0.266097 0.219175
H15   H     H_    0.879093 0.357981 0.358935 0.253320
O10   O     O_3   0.390264 0.770301 0.655545 -0.524309
C31   C     C_3   0.226622 0.752084 0.633128 0.135334
H16   H     H_    0.197044 0.714719 0.563955 0.099048
H17   H     H_    0.158812 0.815375 0.629808 0.177867
C32   C     C_3   0.175257 0.694686 0.710155 -0.693651
H18   H     H_    0.046374 0.680801 0.693760 0.221108
H19   H     H_    0.238713 0.630207 0.713605 0.246182
H20   H     H_    0.201633 0.729978 0.780323 0.268690
Cl1   Cl    Cl    0.815921 0.036688 0.494758 -0.599986
Cl2   Cl    Cl    0.414195 0.965380 0.689517 -0.533031
Cl3   Cl    Cl    0.242454 0.389141 0.234637 -0.664011
Cl4   Cl    Cl    0.674115 0.654890 0.761999 -0.544510
O11   O     O_3   0.755594 0.581546 0.089121 -0.615891
C33   C     C_3   0.868350 0.517250 0.072724 0.090466
H21   H     H_    0.814655 0.460554 0.026462 0.130907
H22   H     H_    0.927628 0.490716 0.141496 0.178491
C34   C     C_3   0.991617 0.561523 0.022276 -0.731586
H23   H     H_    0.059719 0.612506 0.070031 0.256506
H24   H     H_    0.073543 0.510604 0.001427 0.204914
H25   H     H_    0.933364 0.594170 0.956866 0.273345
O12   O     O_3   0.396856 0.343859 0.922993 -0.613329
C35   C     C_3   0.528847 0.288556 0.947075 0.097276
H26   H     H_    0.623307 0.323201 0.997805 0.126313
H27   H     H_    0.577450 0.267198 0.882034 0.163603
C36   C     C_3   0.477994 0.205632 0.994962 -0.727314
H28   H     H_    0.385334 0.168423 0.945922 0.277131
H29   H     H_    0.580812 0.161418 0.014136 0.209686
H30   H     H_    0.430531 0.225111 0.060725 0.255035

loop_
_geom_bond_atom_site_label_1
_geom_bond_atom_site_label_2
_ccdc_geom_bond_type
O4    Zn1   S    
C30   H13   S    
C32   H19   S    
C1    C21   S    
C25   Cl1   S    
C4    H8    S    
C14   O6    A    
C31   C32   S    
C22   C24   A    
C19   C21   A    
C24   C26   A    
C35   C36   S    
C16   H2    S    
N2    Zn1   S    
C31   H17   S    
C5    Cl3   S    
C1    O3    A    
C2    O4    A    
C2    C22   S    
O5    Zn1   S    
C4    C12   A    
C18   C20   A    
C29   C30   S    
C20   H6    S    
C32   H20   S    
O10   C31   S    
C6    Cl4   S    
C8    H10   S    
C33   C34   S    
O1    Zn1   S    
C29   H12   S    
C15   H1    S    
O7    Zn2   S    
C21   C23   A    
O9    C29   S    
C17   C27   A    
C18   C28   A    
C33   H22   S    
C19   H5    S    
C13   O7    A    
C33   H21   S    
C14   O8    A    
O12   C35   S    
C31   H16   S    
C34   H23   S    
C34   H24   S    
C23   O9    S    
C36   H28   S    
C3    H7    S    
C11   C12   S    
C36   H30   S    
C7    H9    S    
C9    C11   A    
C10   C12   A    
O2    Zn2   S    
C1    O1    A    
O8    Zn1   S    
C36   H29   S    
C20   C22   A    
C13   C15   S    
C17   H3    S    
C14   C16   S    
C4    C6    A    
C18   H4    S    
C29   H11   S    
C7    C9    A    
C5    N1    A    
C9    O11   S    
C35   H26   S    
C3    C5    A    
C10   O12   S    
O3    Zn2   S    
C25   C27   A    
O6    Zn2   S    
C26   C28   A    
C26   Cl2   S    
C30   H14   S    
O11   C33   S    
C13   O5    A    
C2    O2    A    
C24   O10   S    
C17   C19   A    
C35   H27   S    
C6    N2    A    
C23   C25   A    
C34   H25   S    
C3    C11   A    
C32   H18   S    
N1    Zn2   S    
C8    C10   A    
C30   H15   S    
C27   C28   S    
C7    N1    A    
C8    N2    A    
C15   C16   D    
