data_mof_unit_39310.cif
_audit_creation_date              2012-12-10T19:48:37-0500
_audit_creation_method            fapswitch 2.2
_symmetry_space_group_name_H-M    P1
_symmetry_Int_Tables_number       1
_space_group_crystal_system       triclinic
_cell_length_a                    13.137954
_cell_length_b                    14.202309
_cell_length_c                    14.989043
_cell_angle_alpha                 89.984669
_cell_angle_beta                  90.190032
_cell_angle_gamma                 70.555064
_cell_volume                      2637.25350891

loop_
_atom_site_label
_atom_site_type_symbol
_atom_type_description
_atom_site_fract_x
_atom_site_fract_y
_atom_site_fract_z
_atom_type_partial_charge
C1    C     C_R   0.501045 0.499613 0.672164 0.840584
C2    C     C_R   0.984788 0.450668 0.512855 0.094490
C3    C     C_R   0.878061 0.467772 0.540763 0.099178
C4    C     C_R   0.031530 0.525126 0.530383 0.080620
C5    C     C_R   0.978995 0.606676 0.587234 0.183009
C6    C     C_R   0.880095 0.613674 0.625202 -0.266432
C7    C     C_R   0.830034 0.544963 0.602243 -0.222755
C8    C     C_R   0.128371 0.521641 0.491145 -0.252464
C9    C     C_R   0.129240 0.668496 0.572170 -0.201984
C10   C     C_R   0.821315 0.408150 0.504958 -0.109357
C11   C     C_R   0.476789 0.427139 0.906815 -0.189898
C12   C     C_R   0.703960 0.444688 0.503277 0.848808
C13   C     C_R   0.471139 0.429389 0.814870 -0.174790
C14   C     C_R   0.507246 0.497186 0.767836 -0.035427
C15   C     C_R   0.551667 0.560908 0.812456 -0.204719
C16   C     C_R   0.558591 0.557752 0.904423 -0.177190
C17   C     C_R   0.519897 0.491749 0.951679 0.116769
C18   C     C_R   0.482440 0.585520 0.092310 -0.174939
C19   C     C_R   0.476450 0.587614 0.184257 -0.194835
C20   C     C_R   0.506065 0.497802 0.231907 -0.029982
C21   C     C_R   0.543009 0.405893 0.187659 -0.182014
C22   C     C_R   0.550232 0.403853 0.095789 -0.197188
C23   C     C_R   0.500708 0.499734 0.327747 0.867839
C24   C     C_R   0.519195 0.493646 0.048032 0.119923
C25   C     C_R   0.583032 0.869703 0.539403 -0.352388
C26   C     C_R   0.582368 0.770987 0.538824 -0.002384
C27   C     C_R   0.415512 0.820564 0.462482 -0.098465
C28   C     C_R   0.410124 0.921452 0.464471 0.413990
C29   C     C_R   0.497030 0.947320 0.501370 0.068639
C30   C     C_R   0.460932 0.116405 0.427197 -0.347997
C31   C     C_R   0.457502 0.217226 0.428873 0.521778
C32   C     C_R   0.543167 0.190769 0.570747 0.525097
C33   C     C_R   0.540277 0.092214 0.573159 -0.398415
C34   C     C_R   0.295986 0.555105 0.501248 0.866687
C35   C     C_R   0.498891 0.053301 0.500799 0.038581
C36   C     C_R   0.027333 0.679032 0.606240 -0.201997
C37   C     C_R   0.180642 0.587546 0.516601 -0.057713
C38   C     C_R   0.876342 0.320248 0.458635 -0.212230
C39   C     C_R   0.986086 0.295109 0.442696 -0.169680
C40   C     C_R   0.039930 0.360241 0.467957 -0.190168
H1    H     H_    0.169948 0.719839 0.592958 0.152152
H2    H     H_    0.436723 0.379744 0.780741 0.176493
H3    H     H_    0.581741 0.612256 0.776320 0.147314
H4    H     H_    0.593454 0.606959 0.938692 0.131619
H5    H     H_    0.456341 0.655355 0.055744 0.132958
H6    H     H_    0.447238 0.659104 0.217863 0.156864
H7    H     H_    0.567346 0.335876 0.223959 0.175839
H8    H     H_    0.579755 0.332489 0.062013 0.132899
H9    H     H_    0.651465 0.884755 0.568671 0.159675
H10   H     H_    0.648406 0.713023 0.569318 0.147194
H11   H     H_    0.350509 0.800836 0.432214 0.143332
H12   H     H_    0.840295 0.673456 0.671101 0.139953
H13   H     H_    0.434965 0.087449 0.367870 0.200246
H14   H     H_    0.569925 0.046929 0.631930 0.167403
H15   H     H_    0.988406 0.741115 0.650144 0.133008
H16   H     H_    0.167866 0.465146 0.443032 0.131358
H17   H     H_    0.833808 0.272790 0.432141 0.153491
H18   H     H_    0.124896 0.337004 0.453526 0.113600
H19   H     H_    0.028635 0.226971 0.407341 0.144737
H20   H     H_    0.753506 0.552385 0.633317 0.150519
H21   H     H_    0.445164 0.376866 0.942900 0.134645
N1    N     N_R   0.500000 0.747530 0.500020 -0.111854
N2    N     N_R   0.499940 0.252470 0.500020 -0.158412
O1    O     O_R   0.499990 0.420530 0.630930 -0.567492
O2    O     O_R   0.499990 0.579480 0.630940 -0.629112
O3    O     O_R   0.653620 0.381060 0.499970 -0.623467
O4    O     O_R   0.653620 0.540010 0.499980 -0.611842
O5    O     O_R   0.500010 0.420520 0.369060 -0.564182
O6    O     O_R   0.500010 0.579470 0.369070 -0.618439
O7    O     O_R   0.346380 0.459990 0.500020 -0.601199
O8    O     O_R   0.346380 0.618940 0.500030 -0.627435
Zn1   Zn    Zn3+2 0.500000 0.393860 0.499990 0.995623
Zn2   Zn    Zn3+2 0.500000 0.606140 0.500010 0.937774
O9    O     O_3   0.320604 0.992955 0.428104 -0.670365
C41   C     C_3   0.247066 0.039097 0.496672 0.077328
H22   H     H_    0.203429 0.117045 0.475295 0.160758
H23   H     H_    0.287018 0.044601 0.561432 0.133477
C42   C     C_3   0.164877 0.984935 0.509807 -0.360328
H24   H     H_    0.126823 0.978982 0.444661 0.232824
H25   H     H_    0.206384 0.908393 0.535699 0.209398
C43   C     C_3   0.077079 0.040198 0.575615 -0.971948
H26   H     H_    0.113138 0.046824 0.641452 0.270891
H27   H     H_    0.019749 0.998513 0.584507 0.262777
H28   H     H_    0.031796 0.115839 0.549883 0.272329
O10   O     O_3   0.421726 0.278410 0.355246 -0.618915
C44   C     C_3   0.317141 0.282624 0.327469 0.073116
H29   H     H_    0.264709 0.362083 0.328667 0.155223
H30   H     H_    0.278021 0.241150 0.371231 0.115877
C45   C     C_3   0.321455 0.245172 0.231471 -0.344638
H31   H     H_    0.353098 0.291897 0.187313 0.229177
H32   H     H_    0.376887 0.166821 0.227337 0.218903
C46   C     C_3   0.209746 0.249942 0.198687 -0.944316
H33   H     H_    0.177598 0.202020 0.240893 0.269089
H34   H     H_    0.215244 0.222851 0.128801 0.264643
H35   H     H_    0.153235 0.328033 0.200840 0.263699
O11   O     O_3   0.583421 0.227300 0.642978 -0.621502
C47   C     C_3   0.697301 0.190780 0.640283 0.089250
H36   H     H_    0.728075 0.201068 0.572948 0.143232
H37   H     H_    0.727631 0.109993 0.657925 0.119367
C48   C     C_3   0.740676 0.248273 0.708362 -0.291763
H38   H     H_    0.708554 0.329362 0.692857 0.223826
H39   H     H_    0.713045 0.236628 0.776212 0.222209
C49   C     C_3   0.863632 0.214669 0.707424 -0.987662
H40   H     H_    0.898431 0.133408 0.721549 0.268850
H41   H     H_    0.892161 0.255907 0.759305 0.271151
H42   H     H_    0.892229 0.230982 0.641518 0.278195

loop_
_geom_bond_atom_site_label_1
_geom_bond_atom_site_label_2
_ccdc_geom_bond_type
C22   H8    S    
C18   H5    S    
C31   O10   S    
C34   C37   S    
C23   O6    A    
C19   C20   A    
C4    C8    A    
C28   O9    S    
C8    H16   S    
C47   H36   S    
C19   H6    S    
O10   C44   S    
C30   C35   A    
C18   C24   A    
C5    C6    A    
C28   C29   A    
C3    C7    A    
C26   H10   S    
C30   C31   A    
C42   H25   S    
C15   C16   A    
C5    C36   A    
O2    Zn2   S    
C18   C19   A    
C46   H33   S    
C43   H27   S    
O3    Zn1   S    
C16   C17   A    
C9    C36   A    
C1    O2    A    
N1    Zn2   S    
O6    Zn2   S    
O4    Zn2   S    
C45   H32   S    
C16   H4    S    
O1    Zn1   S    
C21   C22   A    
C46   H34   S    
C13   H2    S    
C47   H37   S    
C27   H11   S    
C43   H26   S    
C25   C29   A    
C30   H13   S    
C17   C24   S    
C40   H18   S    
O9    C41   S    
C31   N2    A    
C39   C40   A    
O8    Zn2   S    
C44   H29   S    
C12   O4    A    
C25   C26   A    
C12   O3    A    
C48   C49   S    
C23   O5    A    
C2    C4    A    
C41   H22   S    
C27   N1    A    
C38   H17   S    
C20   C23   S    
O5    Zn1   S    
C39   H19   S    
O11   C47   S    
C48   H39   S    
C49   H41   S    
N2    Zn1   S    
C45   C46   S    
C41   H23   S    
C10   C12   S    
C32   O11   S    
C22   C24   A    
C8    C37   A    
C1    O1    A    
C7    H20   S    
C49   H40   S    
C43   H28   S    
C9    C37   A    
C33   H14   S    
C34   O7    A    
C11   C17   A    
C47   C48   S    
C42   H24   S    
C32   N2    A    
C4    C5    A    
C11   H21   S    
C44   C45   S    
C6    C7    A    
C29   C35   S    
C9    H1    S    
C10   C38   A    
C32   C33   A    
C2    C3    A    
C26   N1    A    
C15   H3    S    
C36   H15   S    
C11   C13   A    
C42   C43   S    
C38   C39   A    
C48   H38   S    
C33   C35   A    
C49   H42   S    
C44   H30   S    
C46   H35   S    
C41   C42   S    
C25   H9    S    
C2    C40   A    
C20   C21   A    
C27   C28   A    
C3    C10   A    
C14   C15   A    
O7    Zn1   S    
C1    C14   S    
C6    H12   S    
C45   H31   S    
C13   C14   A    
C34   O8    A    
C21   H7    S    
