data_mof_unit_13899.cif
_audit_creation_date              2013-03-05T16:10:50-0500
_audit_creation_method            fapswitch 2.2
_symmetry_space_group_name_H-M    P1
_symmetry_Int_Tables_number       1
_space_group_crystal_system       triclinic
_cell_length_a                    10.78358
_cell_length_b                    10.056141
_cell_length_c                    11.514847
_cell_angle_alpha                 90.125004
_cell_angle_beta                  95.250172
_cell_angle_gamma                 91.504385
_cell_volume                      1243.00340366

loop_
_atom_site_label
_atom_site_type_symbol
_atom_site_description
_atom_site_fract_x
_atom_site_fract_y
_atom_site_fract_z
_atom_type_partial_charge
O1    O     O_R   0.316770 0.614620 0.499990 -0.609806
O2    O     O_R   0.683230 0.385380 0.500010 -0.607783
O3    O     O_R   0.683230 0.614620 0.500010 -0.593231
O4    O     O_R   0.316770 0.385380 0.499990 -0.596512
N1    N     N_R   0.500000 0.857200 0.500000 -0.130075
N2    N     N_R   0.500000 0.142800 0.500000 -0.130261
C1    C     C_R   0.261848 0.498421 0.510492 0.947322
C2    C     C_R   0.740136 0.502146 0.499109 0.967765
O5    O     O_R   0.500020 0.614670 0.334450 -0.631171
O6    O     O_R   0.499980 0.385330 0.665550 -0.626742
O7    O     O_R   0.499980 0.614670 0.665550 -0.617129
O8    O     O_R   0.500020 0.385330 0.334450 -0.619456
C3    C     C_R   0.499321 0.499813 0.282431 0.913486
C4    C     C_R   0.500795 0.500113 0.717588 0.904044
Zn1   Zn    Zn3+2 0.500000 0.653120 0.500000 0.985397
Zn2   Zn    Zn3+2 0.500000 0.346880 0.500000 0.987159
C5    C     C_1   0.499634 0.499420 0.161785 -0.134647
C6    C     C_1   0.500550 0.500164 0.838227 -0.124123
C7    C     C_1   0.499943 0.499545 0.059429 0.019095
C8    C     C_1   0.500278 0.499945 0.940582 0.023507
C9    C     C_R   0.059685 0.377740 0.508270 0.144569
C10   C     C_R   0.944984 0.616471 0.551070 0.218143
C11   C     C_R   0.934799 0.392095 0.465751 0.171666
C12   C     C_R   0.073949 0.612977 0.560856 0.219956
C13   C     C_R   0.874828 0.506582 0.500884 -0.343737
C14   C     C_R   0.130996 0.495467 0.530521 -0.319945
C15   C     C_R   0.575492 0.073960 0.581066 0.197727
C16   C     C_R   0.431949 0.926486 0.413347 0.188471
C17   C     C_R   0.424431 0.069463 0.418513 0.199652
C18   C     C_R   0.567493 0.931026 0.586656 0.198725
N3    N     N_R   0.103522 0.254395 0.560160 0.228370
O9    O     O_R   0.187779 0.258199 0.648751 -0.338929
O10   O     O_R   0.043024 0.142429 0.538869 -0.332605
N4    N     N_R   0.887505 0.731915 0.592344 0.219998
O11   O     O_R   0.848338 0.822026 0.517802 -0.354201
O12   O     O_R   0.905556 0.762985 0.702446 -0.399207
N5    N     N_R   0.876235 0.308417 0.372423 0.227923
O13   O     O_R   0.791946 0.357608 0.297596 -0.379518
O14   O     O_R   0.921718 0.194903 0.346676 -0.355666
N6    N     N_R   0.145961 0.724547 0.611124 0.263600
O15   O     O_R   0.222782 0.708270 0.703557 -0.377256
O16   O     O_R   0.130514 0.843265 0.568459 -0.308704
C19   C     C_3   0.671938 0.148742 0.662915 -0.491612
C20   C     C_3   0.803048 0.134281 0.626405 -0.624112
H1    H     H_    0.843938 0.037928 0.651884 0.302798
H2    H     H_    0.801262 0.143909 0.530554 0.307632
H3    H     H_    0.864982 0.213892 0.668716 0.244802
H4    H     H_    0.657803 0.254521 0.662498 0.271890
H5    H     H_    0.667035 0.120076 0.755257 0.203669
C21   C     C_3   0.370179 0.851988 0.307820 -0.344110
C22   C     C_3   0.454594 0.851914 0.207660 -0.784145
H6    H     H_    0.551212 0.825291 0.238814 0.287523
H7    H     H_    0.416775 0.779666 0.139584 0.249030
H8    H     H_    0.458976 0.951299 0.166728 0.241553
H9    H     H_    0.339526 0.751746 0.331676 0.246624
H10   H     H_    0.280738 0.892162 0.273738 0.199815
C23   C     C_3   0.337193 0.140864 0.329146 -0.448408
C24   C     C_3   0.198829 0.106248 0.333823 -0.678085
H11   H     H_    0.157841 0.065085 0.248862 0.242868
H12   H     H_    0.183011 0.034139 0.404064 0.313964
H13   H     H_    0.148331 0.198345 0.347661 0.283670
H14   H     H_    0.342984 0.246992 0.343245 0.271384
H15   H     H_    0.364775 0.124899 0.239954 0.202604
C25   C     C_3   0.626990 0.861912 0.693611 -0.308579
C26   C     C_3   0.540131 0.859854 0.791642 -0.789053
H16   H     H_    0.445017 0.824158 0.759484 0.318003
H17   H     H_    0.577770 0.793909 0.862854 0.249883
H18   H     H_    0.532638 0.961221 0.828148 0.242532
H19   H     H_    0.657649 0.762814 0.671073 0.266921
H20   H     H_    0.715171 0.909307 0.729536 0.225065

loop_
_geom_bond_atom_site_label_1
_geom_bond_atom_site_label_2
_geom_bond_distance
_ccdc_geom_bond_type
O4    Zn2   2.023389 S    
C22   H7    1.110010 S    
C9    C14   1.404770 A    
N3    O10   1.297854 A    
N5    O13   1.302073 A    
O1    Zn1   2.003439 S    
N4    O11   1.301318 A    
C25   H20   1.098124 S    
N1    C16   1.383997 A    
O2    Zn2   2.003438 S    
C19   H4    1.078501 S    
C4    C6    1.389381 S    
N4    O12   1.301065 A    
N2    C15   1.380810 A    
C20   H3    1.111314 S    
C3    C5    1.389525 S    
C19   C20   1.521884 S    
C26   H18   1.109507 S    
C25   C26   1.531190 S    
C22   H8    1.107653 S    
C24   H13   1.105151 S    
N6    O16   1.300924 A    
C21   C22   1.533298 S    
O5    Zn1   1.944296 S    
C19   H5    1.107845 S    
C23   H14   1.078483 S    
N5    O14   1.298476 A    
O6    Zn2   1.944295 S    
C25   H19   1.096184 S    
C20   H1    1.104244 S    
C15   C18   1.439615 A    
C2    C13   1.450253 S    
C9    N3    1.449597 S    
C23   C24   1.528998 S    
C1    C14   1.450011 S    
O7    Zn1   1.945946 S    
O4    C1    1.305938 A    
N6    O15   1.300936 A    
C12   N6    1.437370 S    
C12   C14   1.404470 A    
C23   H15   1.107576 S    
C6    C8    1.178891 T    
C11   C13   1.411489 A    
C9    C11   1.401448 A    
C10   N4    1.430763 S    
O7    C4    1.299544 A    
C10   C12   1.386329 A    
N1    Zn1   2.052257 S    
C17   C23   1.523485 S    
C18   C25   1.514598 S    
C24   H12   1.109242 S    
C22   H6    1.110208 S    
O8    Zn2   1.945947 S    
N2    C17   1.383429 A    
O3    Zn1   2.023388 S    
O8    C3    1.298802 A    
O3    C2    1.301348 A    
C26   H16   1.108402 S    
O6    C4    1.298830 A    
O2    C2    1.311048 A    
C15   C19   1.520505 S    
O5    C3    1.299462 A    
C16   C17   1.443608 A    
O1    C1    1.306977 A    
C7    C8    1.368852 S    
C5    C7    1.178931 T    
C24   H11   1.110543 S    
C11   N5    1.451115 S    
C16   C21   1.517614 S    
N2    Zn2   2.052257 S    
N3    O9    1.302303 A    
C21   H10   1.095145 S    
C21   H9    1.095995 S    
N1    C18   1.382768 A    
C20   H2    1.106614 S    
C26   H17   1.110180 S    
C10   C13   1.414481 A    
