data_mof_unit_59452.cif
_audit_creation_date              2012-12-11T15:46:57-0500
_audit_creation_method            fapswitch 2.2
_symmetry_space_group_name_H-M    P1
_symmetry_Int_Tables_number       1
_space_group_crystal_system       triclinic
_cell_length_a                    11.560118
_cell_length_b                    11.525075
_cell_length_c                    19.576569
_cell_angle_alpha                 90.462304
_cell_angle_beta                  89.909676
_cell_angle_gamma                 59.923372
_cell_volume                      2256.9091677

loop_
_atom_site_label
_atom_site_type_symbol
_atom_type_description
_atom_site_fract_x
_atom_site_fract_y
_atom_site_fract_z
_atom_type_partial_charge
C1    C     C_R   0.640199 0.117392 0.599338 0.545850
C2    C     C_1   0.652467 0.149852 0.668724 0.004533
C3    C     C_R   0.677837 0.633139 0.199566 0.010151
C4    C     C_R   0.612161 0.746339 0.598726 0.544266
C5    C     C_R   0.575865 0.629348 0.235432 -0.013703
C6    C     C_R   0.567172 0.640767 0.304583 -0.008011
C7    C     C_R   0.778133 0.636496 0.307737 -0.158386
C8    C     C_R   0.786606 0.623850 0.236494 -0.157448
C9    C     C_3   0.428181 0.701341 0.224838 -0.103901
C10   C     C_3   0.416301 0.716892 0.301932 -0.271532
C11   C     C_R   0.660212 0.660532 0.340937 0.021527
C12   C     C_1   0.640747 0.704236 0.668071 0.005521
C13   C     C_R   0.117990 0.211792 0.196921 0.043100
C14   C     C_R   0.139589 0.304023 0.233012 -0.014528
C15   C     C_R   0.173891 0.281125 0.300466 -0.005203
C16   C     C_R   0.240986 0.145334 0.598237 0.546930
C17   C     C_R   0.138069 0.092328 0.302654 -0.179993
C18   C     C_R   0.107344 0.111831 0.233151 -0.138030
C19   C     C_3   0.235168 0.354812 0.218814 0.032087
C20   C     C_3   0.278679 0.320293 0.293333 -0.233656
C21   C     C_R   0.179236 0.173183 0.335777 0.019435
C22   C     C_R   0.668328 0.187854 0.193117 0.052028
C23   C     C_1   0.126792 0.198664 0.859274 0.008505
C24   C     C_R   0.725841 0.057700 0.218533 0.031429
C25   C     C_R   0.723188 0.037135 0.287255 0.021989
C26   C     C_R   0.588664 0.274628 0.307909 -0.180262
C27   C     C_R   0.591803 0.296525 0.237846 -0.131056
C28   C     C_R   0.645521 0.112807 0.402830 0.543451
C29   C     C_3   0.862792 0.937386 0.210565 -0.230516
C30   C     C_3   0.860637 0.918007 0.286836 -0.241584
C31   C     C_R   0.662525 0.143925 0.333501 0.010474
C32   C     C_R   0.081885 0.231047 0.928578 0.555074
C33   C     C_R   0.684148 0.604147 0.929433 0.550784
C34   C     C_1   0.171604 0.170272 0.727752 -0.029235
C35   C     C_R   0.708684 0.206623 0.930063 0.541050
C36   C     C_R   0.077877 0.238820 0.126588 0.575379
C37   C     C_R   0.685936 0.605309 0.127559 0.557249
C38   C     C_R   0.708464 0.211814 0.127109 0.536905
C39   C     C_R   0.618552 0.734829 0.404152 0.547810
C40   C     C_R   0.244182 0.141113 0.401547 0.546990
C41   C     C_1   0.670771 0.646152 0.860062 0.008141
C42   C     C_1   0.654468 0.683837 0.728448 -0.029418
C43   C     C_1   0.663575 0.666514 0.799667 -0.028351
C44   C     C_2   0.345878 0.268136 0.168124 0.536226
C45   C     C_1   0.150245 0.182201 0.798947 -0.028161
C46   C     C_2   0.377355 0.831579 0.187661 0.242724
C47   C     C_2   0.163030 0.506394 0.205048 0.577824
C48   C     C_1   0.195363 0.160944 0.667446 0.004723
C49   C     C_1   0.679110 0.191018 0.860738 0.007617
C50   C     C_1   0.658307 0.167255 0.729081 -0.029283
C51   C     C_1   0.665952 0.180721 0.800357 -0.027677
Cr1   Cr    Cr6+3 0.404720 0.198220 0.499960 1.028103
Cr2   Cr    Cr6+3 0.698290 0.897110 0.500380 1.032945
Cr3   Cr    Cr6+3 0.396970 0.904720 0.499610 1.026705
Cr4   Cr    Cr6+3 0.926290 0.152010 0.028150 1.073692
Cr5   Cr    Cr6+3 0.921440 0.451830 0.027490 1.051382
Cr6   Cr    Cr6+3 0.626370 0.446880 0.028730 1.082928
H1    H     H_    0.857226 0.639479 0.335751 0.142782
H2    H     H_    0.874854 0.611629 0.210620 0.176121
H3    H     H_    0.392068 0.635153 0.203998 0.188607
H4    H     H_    0.370620 0.822685 0.319777 0.158258
H5    H     H_    0.372670 0.659792 0.325456 0.146035
H6    H     H_    0.137372 0.010316 0.328871 0.122491
H7    H     H_    0.080352 0.045753 0.207364 0.162306
H8    H     H_    0.449599 0.258008 0.083275 0.344848
H9    H     H_    0.402986 0.905467 0.205194 0.150469
H10   H     H_    0.148754 0.491177 0.101938 0.356402
H11   H     H_    0.380020 0.231659 0.299712 0.159976
H12   H     H_    0.259241 0.404951 0.328019 0.168402
H13   H     H_    0.531054 0.359157 0.341909 0.127665
H14   H     H_    0.542389 0.398383 0.219608 0.149324
H15   H     H_    0.941017 0.960843 0.195301 0.169117
H16   H     H_    0.861551 0.856171 0.180100 0.178267
H17   H     H_    0.861363 0.824718 0.300214 0.167209
H18   H     H_    0.933353 0.936250 0.315285 0.143837
O1    O     O_R   0.267750 0.231960 0.575440 -0.503709
O2    O     O_R   0.596230 0.579400 0.952760 -0.490017
O3    O     O_R   0.639160 0.321170 0.958690 -0.493295
O4    O     O_R   0.527290 0.186640 0.570530 -0.494427
O5    O     O_R   0.821370 0.124220 0.104400 -0.526352
O6    O     O_R   0.037020 0.167050 0.097880 -0.484043
O7    O     O_R   0.056310 0.349620 0.102920 -0.535294
O8    O     O_R   0.797790 0.564880 0.097980 -0.503969
O9    O     O_R   0.596000 0.584270 0.104310 -0.484889
O10   O     O_R   0.638950 0.325690 0.099180 -0.490131
O11   O     O_3   0.824700 0.350240 0.028120 -0.279962
O12   O     O_R   0.685950 0.784660 0.430010 -0.505107
O13   O     O_R   0.728110 0.003450 0.576380 -0.504008
O14   O     O_R   0.682980 0.789190 0.570500 -0.494542
O15   O     O_R   0.499300 0.771880 0.575540 -0.504525
O16   O     O_R   0.285350 0.030870 0.569740 -0.492916
O17   O     O_R   0.270960 0.227070 0.423890 -0.520515
O18   O     O_R   0.530270 0.182120 0.430040 -0.509709
O19   O     O_R   0.731320 0.998570 0.424830 -0.513361
O20   O     O_2   0.404671 0.145847 0.172792 -0.543369
O21   O     O_R   0.381254 0.326884 0.116041 -0.698842
O22   O     O_2   0.307945 0.854338 0.137081 -0.473645
O23   O     O_R   0.502510 0.767000 0.423980 -0.522733
O24   O     O_2   0.139460 0.585606 0.252103 -0.537863
O25   O     O_R   0.120926 0.559797 0.139863 -0.646767
O26   O     O_R   0.288320 0.026340 0.429250 -0.508575
O27   O     O_3   0.499990 0.000020 0.499980 -0.254776
O28   O     O_R   0.821590 0.119350 0.952850 -0.500011
O29   O     O_R   0.037230 0.162540 0.957390 -0.484333
O30   O     O_R   0.056530 0.344750 0.951370 -0.502251
O31   O     O_R   0.798000 0.560370 0.957490 -0.493776

loop_
_geom_bond_atom_site_label_1
_geom_bond_atom_site_label_2
_ccdc_geom_bond_type
C25   C31   A    
C23   C45   T    
Cr3   O26   S    
C19   C20   S    
C39   O12   A    
C18   H7    S    
C16   C48   S    
Cr5   O7    S    
C7    C8    A    
C7    C11   A    
Cr1   O27   S    
C26   C27   A    
C13   C18   A    
Cr3   O15   S    
C35   O28   A    
C8    H2    S    
C5    C6    A    
C30   H17   S    
C19   C47   S    
C29   H16   S    
C22   C38   S    
Cr4   O28   S    
C47   O24   D    
Cr6   O11   S    
C28   O19   A    
C1    C2    S    
C24   C29   S    
C12   C42   T    
C2    C50   T    
C40   O26   A    
H8    O21   S    
C36   O7    A    
C49   C51   T    
C35   C49   S    
C32   O29   A    
C37   O9    A    
Cr4   O6    S    
Cr1   O4    S    
C9    C10   S    
C36   O6    A    
C7    H1    S    
C29   H15   S    
C1    O13   A    
C9    C46   S    
C13   C14   A    
C41   C43   T    
C10   H5    S    
C14   C19   S    
C20   H11   S    
C50   C51   S    
C4    O15   A    
C15   C20   S    
C38   O10   A    
Cr6   O2    S    
C24   C25   A    
C13   C36   S    
C3    C8    A    
C6    C11   A    
C39   O23   A    
Cr1   O1    S    
Cr4   O29   S    
C17   C21   A    
C47   O25   S    
C28   O18   A    
C5    C9    S    
C29   C30   S    
C44   O21   S    
Cr5   O11   S    
Cr2   O27   S    
C17   C18   A    
Cr6   O9    S    
Cr1   O18   S    
Cr2   O12   S    
C34   C45   S    
C40   O17   A    
C11   C39   S    
Cr5   O31   S    
H10   O25   S    
C46   O22   D    
C32   O30   A    
Cr2   O14   S    
C26   H13   S    
C22   C24   A    
C20   H12   S    
Cr1   O17   S    
C10   H4    S    
C4    C12   S    
C42   C43   S    
C27   H14   S    
C19   C44   S    
Cr5   O8    S    
C4    O14   A    
C25   C30   S    
Cr2   O19   S    
C16   O1    A    
C26   C31   A    
Cr6   O3    S    
Cr3   O27   S    
C28   C31   S    
Cr3   O23   S    
C33   O31   A    
C3    C5    A    
C6    C10   S    
C46   H9    S    
C35   O3    A    
C22   C27   A    
C9    H3    S    
C33   C41   S    
C23   C32   S    
Cr4   O11   S    
Cr3   O16   S    
C30   H18   S    
C44   O20   D    
C17   H6    S    
Cr4   O5    S    
C33   O2    A    
C21   C40   S    
C38   O5    A    
C1    O4    A    
Cr6   O10   S    
Cr2   O13   S    
Cr5   O30   S    
C15   C21   A    
C34   C48   T    
C3    C37   S    
C16   O16   A    
C14   C15   A    
C37   O8    A    
