data_mof_unit_62328.cif
_audit_creation_date              2012-12-10T18:52:37-0500
_audit_creation_method            fapswitch 2.2
_symmetry_space_group_name_H-M    P1
_symmetry_Int_Tables_number       1
_space_group_crystal_system       triclinic
_cell_length_a                    25.486274
_cell_length_b                    25.493497
_cell_length_c                    59.997315
_cell_angle_alpha                 89.998838
_cell_angle_beta                  89.998269
_cell_angle_gamma                 90.001292
_cell_volume                      38982.3104134

loop_
_atom_site_label
_atom_site_type_symbol
_atom_type_description
_atom_site_fract_x
_atom_site_fract_y
_atom_site_fract_z
_atom_type_partial_charge
C1    C     C_R   0.000000 0.499998 0.335270 -0.018761
C2    C     C_1   0.860417 0.639483 0.249866 -0.111339
C3    C     C_R   0.499999 0.000001 0.452721 -0.049049
C4    C     C_R   0.015738 0.544933 0.059214 -0.024593
C5    C     C_R   0.980585 0.456534 0.940823 -0.024293
C6    C     C_R   0.984273 0.455066 0.059215 -0.024593
C7    C     C_R   0.019412 0.543466 0.940821 -0.024302
C8    C     C_R   0.483426 0.044633 0.559212 -0.024528
C9    C     C_R   0.520207 0.956900 0.440822 -0.024238
C10   C     C_R   0.516583 0.955376 0.559213 -0.024536
C11   C     C_R   0.479789 0.043103 0.440821 -0.024239
C12   C     C_R   0.499979 0.999996 0.023562 0.073720
C13   C     C_1   0.860418 0.639484 0.750137 -0.111595
C14   C     C_R   0.499984 0.999995 0.976401 0.073782
C15   C     C_R   0.000002 0.500003 0.523597 0.073747
C16   C     C_R   0.000001 0.500001 0.476437 0.073685
C17   C     C_R   0.031120 0.589738 0.047561 -0.131073
C18   C     C_R   0.961074 0.413365 0.952476 -0.131016
C19   C     C_R   0.968890 0.410260 0.047563 -0.131070
C20   C     C_R   0.038925 0.586635 0.952473 -0.130978
C21   C     C_R   0.467196 0.089138 0.547560 -0.131064
C22   C     C_R   0.540519 0.914101 0.452474 -0.130994
C23   C     C_R   0.532812 0.910870 0.547561 -0.131075
C24   C     C_1   0.139583 0.360516 0.249865 -0.111354
C25   C     C_R   0.459479 0.085903 0.452473 -0.130995
C26   C     C_R   0.000002 0.500000 0.164591 -0.018393
C27   C     C_R   0.999998 0.500000 0.835410 -0.018411
C28   C     C_R   0.500002 0.000002 0.664593 -0.018302
C29   C     C_R   0.499998 0.000000 0.335408 -0.018498
C30   C     C_R   0.480468 0.044373 0.488163 0.044348
C31   C     C_R   0.517934 0.954961 0.511872 0.044296
C32   C     C_R   0.519535 0.955633 0.488163 0.044348
C33   C     C_R   0.482072 0.045046 0.511871 0.044297
C34   C     C_R   0.018703 0.544727 0.988164 0.044336
C35   C     C_1   0.639583 0.139482 0.749865 -0.111533
C36   C     C_R   0.982925 0.454628 0.011873 0.044292
C37   C     C_R   0.981301 0.455273 0.988165 0.044342
C38   C     C_R   0.017081 0.545371 0.011872 0.044293
C39   C     C_R   0.500001 0.000002 0.476451 0.073588
C40   C     C_R   0.500003 0.000004 0.523583 0.073649
C41   C     C_R   0.000001 0.500000 0.976452 0.073604
C42   C     C_R   0.000004 0.499999 0.023585 0.073671
C43   C     C_R   0.459633 0.086582 0.475620 -0.207958
C44   C     C_R   0.533408 0.910506 0.524414 -0.207960
C45   C     C_R   0.540369 0.913423 0.475621 -0.207962
C46   C     C_1   0.360416 0.860519 0.250134 -0.111536
C47   C     C_R   0.466599 0.089501 0.524413 -0.207957
C48   C     C_R   0.038751 0.587315 0.975620 -0.207942
C49   C     C_R   0.968302 0.409886 0.024416 -0.207948
C50   C     C_R   0.961251 0.412685 0.975623 -0.207949
C51   C     C_R   0.031706 0.590113 0.024414 -0.207942
C52   C     C_R   0.545037 0.017914 0.011844 0.044195
C53   C     C_R   0.454359 0.983574 0.988119 0.044144
C54   C     C_R   0.454924 0.982078 0.011844 0.044194
C55   C     C_R   0.545607 0.016416 0.988120 0.044135
C56   C     C_R   0.045019 0.481989 0.511878 0.044172
C57   C     C_1   0.360420 0.860515 0.749866 -0.111489
C58   C     C_R   0.955600 0.519483 0.488156 0.044223
C59   C     C_R   0.954984 0.518016 0.511879 0.044163
C60   C     C_R   0.044403 0.480521 0.488155 0.044223
C61   C     C_R   0.042432 0.480371 0.417356 0.508215
C62   C     C_R   0.956202 0.516355 0.582677 0.508401
C63   C     C_R   0.957570 0.519626 0.417356 0.508210
C64   C     C_R   0.043800 0.483653 0.582677 0.508337
C65   C     C_R   0.544329 0.014821 0.917319 0.508484
C66   C     C_R   0.456904 0.981813 0.082646 0.508295
C67   C     C_R   0.455651 0.985166 0.917318 0.508405
C68   C     C_1   0.639583 0.139482 0.250134 -0.111537
C69   C     C_R   0.543044 0.018185 0.082646 0.508285
C70   C     C_R   0.000598 0.547507 0.370406 -0.100755
C71   C     C_R   0.998422 0.547491 0.629595 -0.101387
C72   C     C_R   0.999405 0.452489 0.370406 -0.100759
C73   C     C_R   0.001579 0.452515 0.629595 -0.101354
C74   C     C_R   0.502510 0.047443 0.870410 -0.101725
C75   C     C_R   0.500380 0.047511 0.129587 -0.101027
C76   C     C_R   0.497480 0.952548 0.870410 -0.101670
C77   C     C_R   0.499567 0.952490 0.129588 -0.101044
C78   C     C_R   0.000580 0.547555 0.347136 -0.204663
C79   C     C_1   0.639582 0.860516 0.250135 -0.111409
C80   C     C_R   0.998465 0.547541 0.652865 -0.203978
C81   C     C_R   0.999421 0.452442 0.347136 -0.204639
C82   C     C_R   0.001535 0.452464 0.652865 -0.204080
C83   C     C_R   0.502443 0.047498 0.847139 -0.203769
C84   C     C_R   0.500377 0.047559 0.152858 -0.204387
C85   C     C_R   0.497553 0.952496 0.847139 -0.203741
C86   C     C_R   0.499586 0.952442 0.152859 -0.204416
C87   C     C_R   0.000001 0.499998 0.382159 0.306137
C88   C     C_R   0.000001 0.500003 0.617853 0.308060
C89   C     C_R   0.499994 0.999995 0.882148 0.308964
C90   C     C_1   0.360418 0.139484 0.749865 -0.111412
C91   C     C_R   0.499971 1.000000 0.117837 0.306952
C92   C     C_R   0.086040 0.459775 0.452446 -0.130926
C93   C     C_R   0.910998 0.533170 0.547588 -0.130940
C94   C     C_R   0.913963 0.540226 0.452447 -0.130928
C95   C     C_R   0.089005 0.466837 0.547587 -0.131000
C96   C     C_R   0.590104 0.030013 0.952410 -0.130935
C97   C     C_R   0.412595 0.962771 0.047554 -0.130920
C98   C     C_R   0.409869 0.969975 0.952409 -0.131001
C99   C     C_R   0.587359 0.037224 0.047553 -0.130928
C100  C     C_R   0.000001 0.500000 0.452692 -0.048752
C101  C     C_1   0.360418 0.139484 0.250136 -0.111421
C102  C     C_R   0.000002 0.500003 0.547341 -0.048631
C103  C     C_R   0.499987 0.999994 0.952656 -0.048584
C104  C     C_R   0.499977 0.999997 0.047308 -0.048705
C105  C     C_R   0.043164 0.479930 0.440785 -0.024535
C106  C     C_R   0.955440 0.516755 0.559248 -0.024871
C107  C     C_R   0.956839 0.520069 0.440786 -0.024528
C108  C     C_R   0.044563 0.483252 0.559248 -0.024796
C109  C     C_R   0.545111 0.015176 0.940748 -0.025004
C110  C     C_R   0.456147 0.981421 0.059215 -0.024655
C111  C     C_R   0.454865 0.984811 0.940748 -0.024932
C112  C     C_R   1.000000 0.500002 0.664731 -0.018654
C113  C     C_1   0.639582 0.860515 0.749862 -0.111444
C114  C     C_R   0.543805 0.018575 0.059215 -0.024650
C115  C     C_R   0.588033 0.037061 0.024400 -0.207772
C116  C     C_R   0.409464 0.969437 0.975563 -0.207791
C117  C     C_R   0.411925 0.962932 0.024400 -0.207778
C118  C     C_R   0.590505 0.030552 0.975563 -0.207777
C119  C     C_R   0.089388 0.466278 0.524434 -0.207817
C120  C     C_R   0.913294 0.540108 0.475600 -0.207802
C121  C     C_R   0.910615 0.533728 0.524435 -0.207806
C122  C     C_R   0.086709 0.459894 0.475598 -0.207807
C123  C     C_R   0.000000 0.499999 0.310665 0.812043
C124  C     C_3   0.221303 0.753629 0.268767 -0.213532
C125  C     C_R   1.000000 0.500000 0.689335 0.812227
C126  C     C_R   0.500000 0.999999 0.810665 0.812136
C127  C     C_R   0.499998 0.000000 0.189334 0.812032
C128  C     C_R   0.000001 0.500000 0.189169 0.804158
C129  C     C_R   0.999999 0.500000 0.810831 0.804196
C130  C     C_R   0.500001 0.000000 0.689170 0.804208
C131  C     C_R   0.499999 1.000000 0.310830 0.804194
C132  C     C_R   0.099860 0.400191 0.249887 0.828541
C133  C     C_R   0.900140 0.599809 0.750113 0.828787
C134  C     C_R   0.900140 0.599809 0.249887 0.828418
C135  C     C_3   0.779801 0.245266 0.731593 -0.213285
C136  C     C_R   0.099859 0.400191 0.750113 0.828242
C137  C     C_R   0.099859 0.599809 0.750113 0.828395
C138  C     C_R   0.900141 0.400191 0.249887 0.828252
C139  C     C_R   0.900140 0.400191 0.750113 0.828707
C140  C     C_R   0.099860 0.599808 0.249887 0.828253
C141  C     C_R   0.599860 0.900190 0.749887 0.828898
C142  C     C_R   0.400140 0.099809 0.250113 0.828476
C143  C     C_R   0.400141 0.099809 0.749887 0.828352
C144  C     C_R   0.599859 0.900191 0.250113 0.828355
C145  C     C_R   0.599859 0.099808 0.250113 0.828282
C146  C     C_3   0.779082 0.245980 0.268648 -0.213461
C147  C     C_R   0.400141 0.900191 0.749887 0.828328
C148  C     C_R   0.400140 0.900192 0.250113 0.828284
C149  C     C_R   0.599860 0.099808 0.749887 0.828642
C150  C     C_3   0.227275 0.797104 0.250974 0.222725
C151  C     C_3   0.772755 0.202857 0.749775 0.222631
C152  C     C_3   0.772744 0.202876 0.250716 0.222716
C153  C     C_3   0.227262 0.797128 0.749332 0.222654
C154  C     C_3   0.227261 0.202878 0.749272 0.222683
C155  C     C_3   0.772745 0.797130 0.250586 0.222630
C156  C     C_3   0.772670 0.797072 0.751392 0.222528
C157  C     C_3   0.220854 0.754088 0.731377 -0.213392
C158  C     C_3   0.227244 0.202854 0.250030 0.222586
C159  C     C_3   0.727246 0.297142 0.750228 0.222654
C160  C     C_3   0.272725 0.702896 0.249025 0.222692
C161  C     C_3   0.272737 0.702873 0.750670 0.222686
C162  C     C_3   0.727261 0.297121 0.249290 0.222676
C163  C     C_3   0.727253 0.702869 0.249415 0.222638
C164  C     C_3   0.272740 0.297123 0.750726 0.222659
C165  C     C_3   0.272757 0.297146 0.249971 0.222610
C166  C     C_3   0.727329 0.702926 0.748606 0.222555
C167  C     C_3   0.218698 0.756572 0.232150 -0.214999
C168  C     C_3   0.220939 0.246003 0.731348 -0.212363
C169  C     C_3   0.780228 0.244493 0.768246 -0.214982
C170  C     C_3   0.780936 0.243800 0.232013 -0.215035
C171  C     C_3   0.219130 0.756141 0.768015 -0.214941
C172  C     C_3   0.219048 0.243778 0.767982 -0.216088
C173  C     C_3   0.780749 0.756021 0.231943 -0.216148
C174  C     C_3   0.777827 0.753120 0.769018 -0.216300
C175  C     C_3   0.220059 0.244779 0.231656 -0.216212
C176  C     C_3   0.719772 0.255506 0.731757 -0.216019
C177  C     C_3   0.281301 0.743429 0.267850 -0.216206
C178  C     C_3   0.280868 0.743860 0.731988 -0.215975
C179  C     C_3   0.779271 0.754207 0.268584 -0.212092
C180  C     C_3   0.719069 0.256198 0.267993 -0.216247
C181  C     C_3   0.719250 0.743978 0.268058 -0.214971
C182  C     C_3   0.280953 0.256223 0.732017 -0.215052
C183  C     C_3   0.279942 0.255221 0.268345 -0.215023
C184  C     C_3   0.722172 0.746879 0.730980 -0.215246
C185  C     C_3   0.782115 0.757049 0.732446 -0.211876
C186  C     C_3   0.219912 0.244977 0.268311 -0.211958
C187  C     C_3   0.720199 0.254733 0.768410 -0.212312
C188  C     C_R   0.499999 0.999998 0.835271 -0.018598
C189  C     C_3   0.278697 0.746372 0.231233 -0.212315
C190  C     C_3   0.279145 0.745913 0.768625 -0.212412
C191  C     C_3   0.720923 0.254018 0.231358 -0.212254
C192  C     C_3   0.720728 0.745792 0.231417 -0.213318
C193  C     C_3   0.279062 0.253998 0.768650 -0.213322
C194  C     C_3   0.280089 0.255023 0.231690 -0.213175
C195  C     C_3   0.717884 0.742949 0.767552 -0.212787
C196  C     C_3   0.213506 0.713423 0.249937 0.097061
C197  C     C_3   0.786495 0.286576 0.750065 0.096950
C198  C     C_3   0.786495 0.286577 0.249941 0.097054
C199  C     C_R   0.499987 0.000001 0.164726 -0.018782
C200  C     C_3   0.213502 0.713428 0.750064 0.096959
C201  C     C_3   0.213506 0.286576 0.750062 0.097007
C202  C     C_3   0.786494 0.713424 0.249938 0.096920
C203  C     C_3   0.786493 0.713423 0.750063 0.096979
C204  C     C_3   0.213506 0.286576 0.249937 0.096916
C205  C     C_3   0.713506 0.213423 0.749938 0.096966
C206  C     C_3   0.286493 0.786577 0.250063 0.097055
C207  C     C_3   0.286497 0.786573 0.749939 0.096969
C208  C     C_3   0.713509 0.213421 0.250065 0.097051
C209  C     C_3   0.713505 0.786575 0.250064 0.096920
C210  C     C_1   0.139583 0.639481 0.249865 -0.111583
C211  C     C_3   0.286495 0.213425 0.749936 0.096996
C212  C     C_3   0.286494 0.213425 0.250064 0.096906
C213  C     C_3   0.713506 0.786575 0.749935 0.096940
C214  C     C_1   0.172940 0.672873 0.249883 -0.001136
C215  C     C_1   0.827061 0.327125 0.750119 -0.000933
C216  C     C_1   0.827061 0.327127 0.249887 -0.001140
C217  C     C_1   0.172934 0.672879 0.750117 -0.000973
C218  C     C_1   0.172940 0.327125 0.750116 -0.001093
C219  C     C_1   0.827060 0.672875 0.249884 -0.000897
C220  C     C_1   0.827060 0.672875 0.750120 -0.000999
C221  C     C_1   0.860418 0.360517 0.750136 -0.111407
C222  C     C_1   0.172939 0.327124 0.249882 -0.000881
C223  C     C_1   0.672939 0.172874 0.749883 -0.001019
C224  C     C_1   0.327059 0.827127 0.250116 -0.001112
C225  C     C_1   0.327065 0.827122 0.749885 -0.001057
C226  C     C_1   0.672942 0.172872 0.250117 -0.001119
C227  C     C_1   0.672939 0.827124 0.250117 -0.000958
C228  C     C_1   0.327061 0.172876 0.749883 -0.000993
C229  C     C_1   0.327061 0.172876 0.250119 -0.000936
C230  C     C_1   0.672939 0.827124 0.749879 -0.000880
C231  C     C_R   0.015356 0.544156 0.082630 0.508505
C232  C     C_1   0.860418 0.360519 0.249867 -0.111573
C233  C     C_R   0.981006 0.457282 0.917406 0.508289
C234  C     C_R   0.984656 0.455843 0.082631 0.508501
C235  C     C_R   0.018988 0.542719 0.917405 0.508293
C236  C     C_R   0.483830 0.043866 0.582628 0.508428
C237  C     C_R   0.519758 0.957633 0.417406 0.508262
C238  C     C_R   0.516179 0.956143 0.582628 0.508430
C239  C     C_R   0.480235 0.042367 0.417405 0.508262
C240  C     C_R   0.047499 0.502006 0.129481 -0.102270
C241  C     C_R   0.047531 0.499658 0.870519 -0.101490
C242  C     C_R   0.952510 0.497994 0.129482 -0.102262
C243  C     C_1   0.139579 0.639485 0.750135 -0.111363
C244  C     C_R   0.952463 0.500341 0.870520 -0.101574
C245  C     C_R   0.452490 0.001502 0.629485 -0.102064
C246  C     C_R   0.452468 0.999108 0.370515 -0.101362
C247  C     C_R   0.547517 0.998505 0.629484 -0.102160
C248  C     C_R   0.547524 0.000892 0.370515 -0.101358
C249  C     C_R   0.047553 0.501952 0.152739 -0.204447
C250  C     C_R   0.047582 0.499669 0.847262 -0.204957
C251  C     C_R   0.952454 0.498047 0.152739 -0.204415
C252  C     C_R   0.952413 0.500331 0.847263 -0.205213
C253  C     C_R   0.452436 0.001461 0.652741 -0.204537
C254  C     C_1   0.139583 0.360517 0.750134 -0.111552
C255  C     C_R   0.452419 0.999134 0.347259 -0.205148
C256  C     C_R   0.547570 0.998543 0.652741 -0.204784
C257  C     C_R   0.547575 0.000867 0.347258 -0.205116
C258  C     C_R   0.000005 0.500000 0.117762 0.308648
C259  C     C_R   0.999997 0.500000 0.882251 0.306540
C260  C     C_R   0.500004 0.000004 0.617763 0.308238
C261  C     C_R   0.499996 1.000000 0.382248 0.306045
C262  C     C_R   0.000005 0.499999 0.047315 -0.048907
C263  C     C_R   0.999999 0.500000 0.952721 -0.049031
C264  C     C_R   0.500004 0.000004 0.547313 -0.048929
H1    H     H_    0.998919 0.415207 0.338453 0.172410
H2    H     H_    0.945366 0.379661 0.943728 0.192582
H3    H     H_    0.957209 0.374961 0.056313 0.192623
H4    H     H_    0.054631 0.620339 0.943724 0.192595
H5    H     H_    0.454844 0.124208 0.556311 0.192641
H6    H     H_    0.556847 0.880695 0.443724 0.192591
H7    H     H_    0.545165 0.875801 0.556312 0.192649
H8    H     H_    0.443151 0.119308 0.443723 0.192593
H9    H     H_    0.442266 0.120766 0.483109 0.145376
H10   H     H_    0.545585 0.874150 0.516925 0.145509
H11   H     H_    0.557738 0.879240 0.483109 0.145375
H12   H     H_    0.002732 0.415245 0.661549 0.172278
H13   H     H_    0.454421 0.125857 0.516924 0.145504
H14   H     H_    0.055478 0.621820 0.983108 0.145388
H15   H     H_    0.956821 0.373302 0.016928 0.145508
H16   H     H_    0.944525 0.378180 0.983112 0.145384
H17   H     H_    0.043186 0.626697 0.016924 0.145509
H18   H     H_    0.998756 0.415579 0.379334 0.150151
H19   H     H_    0.002660 0.415628 0.620659 0.148897
H20   H     H_    0.001246 0.584417 0.379333 0.150163
H21   H     H_    0.997341 0.584379 0.620659 0.148872
H22   H     H_    0.495654 0.915694 0.879349 0.148285
H23   H     H_    0.001082 0.584789 0.338452 0.172428
H24   H     H_    0.499416 0.915579 0.120657 0.149619
H25   H     H_    0.504334 0.084296 0.879350 0.148295
H26   H     H_    0.500526 0.084421 0.120655 0.149602
H27   H     H_    0.192495 0.761736 0.217535 0.172992
H28   H     H_    0.805552 0.240201 0.783188 0.173050
H29   H     H_    0.806840 0.238946 0.217282 0.172983
H30   H     H_    0.193280 0.760948 0.782765 0.173069
H31   H     H_    0.193131 0.238899 0.782707 0.172294
H32   H     H_    0.806499 0.760735 0.217156 0.172329
H33   H     H_    0.801183 0.755454 0.784604 0.172191
H34   H     H_    0.997267 0.584759 0.661549 0.172259
H35   H     H_    0.194970 0.240723 0.216631 0.172301
H36   H     H_    0.694448 0.259797 0.716815 0.172356
H37   H     H_    0.307504 0.738265 0.282465 0.172203
H38   H     H_    0.306719 0.739053 0.717237 0.172391
H39   H     H_    0.693166 0.261051 0.282724 0.172184
H40   H     H_    0.693500 0.739264 0.282846 0.173062
H41   H     H_    0.306870 0.261102 0.717291 0.173003
H42   H     H_    0.305030 0.259277 0.283371 0.173056
H43   H     H_    0.698816 0.744545 0.715395 0.172969
H44   H     H_    0.302773 0.743616 0.215858 0.173635
H45   H     H_    0.495626 0.915309 0.838454 0.172139
H46   H     H_    0.695218 0.258393 0.783487 0.173624
H47   H     H_    0.696533 0.257090 0.216084 0.173648
H48   H     H_    0.303588 0.742783 0.783881 0.173558
H49   H     H_    0.303437 0.257059 0.783928 0.172990
H50   H     H_    0.696182 0.742560 0.216195 0.172995
H51   H     H_    0.691006 0.737389 0.781919 0.173279
H52   H     H_    0.305306 0.258922 0.216695 0.173066
H53   H     H_    0.804782 0.241606 0.716516 0.173037
H54   H     H_    0.197227 0.756384 0.284141 0.172839
H55   H     H_    0.196410 0.757218 0.716121 0.172958
H56   H     H_    0.499306 0.915205 0.161543 0.172375
H57   H     H_    0.803472 0.242909 0.283922 0.172864
H58   H     H_    0.803817 0.757440 0.283806 0.173804
H59   H     H_    0.196564 0.242942 0.716070 0.173592
H60   H     H_    0.194695 0.241078 0.283306 0.173853
H61   H     H_    0.808993 0.762609 0.718079 0.173811
H62   H     H_    0.119526 0.443597 0.443697 0.192669
H63   H     H_    0.875983 0.545702 0.556338 0.192777
H64   H     H_    0.880476 0.556403 0.443698 0.192665
H65   H     H_    0.124020 0.454305 0.556336 0.192727
H66   H     H_    0.625540 0.041302 0.943660 0.192759
H67   H     H_    0.504372 0.084686 0.838454 0.172171
H68   H     H_    0.378568 0.947762 0.056303 0.192655
H69   H     H_    0.374435 0.958685 0.943659 0.192717
H70   H     H_    0.621385 0.052234 0.056302 0.192654
H71   H     H_    0.622911 0.053029 0.016921 0.145338
H72   H     H_    0.372747 0.958330 0.983043 0.145466
H73   H     H_    0.377049 0.946964 0.016921 0.145333
H74   H     H_    0.627220 0.041659 0.983043 0.145479
H75   H     H_    0.125687 0.453876 0.516955 0.145457
H76   H     H_    0.878997 0.557287 0.483077 0.145327
H77   H     H_    0.874316 0.546130 0.516957 0.145473
H78   H     H_    0.500660 0.084797 0.161541 0.172354
H79   H     H_    0.121006 0.442717 0.483076 0.145322
H80   H     H_    0.915233 0.496513 0.161421 0.174560
H81   H     H_    0.915163 0.500631 0.838581 0.174452
H82   H     H_    0.084772 0.503486 0.161421 0.174531
H83   H     H_    0.084833 0.499368 0.838580 0.174718
H84   H     H_    0.584804 0.997405 0.661423 0.174342
H85   H     H_    0.584821 0.001597 0.338576 0.174740
H86   H     H_    0.415200 0.002599 0.661424 0.174611
H87   H     H_    0.415174 0.998403 0.338577 0.174710
H88   H     H_    0.915634 0.496569 0.120537 0.149159
H89   H     H_    0.042801 0.625038 0.056309 0.192619
H90   H     H_    0.915548 0.500781 0.879456 0.150405
H91   H     H_    0.084376 0.503431 0.120536 0.149147
H92   H     H_    0.084445 0.499219 0.879454 0.150533
H93   H     H_    0.584410 0.997484 0.620541 0.149343
H94   H     H_    0.584434 0.001769 0.379447 0.150823
H95   H     H_    0.415598 0.002525 0.620542 0.149475
H96   H     H_    0.415558 0.998232 0.379449 0.150811
I1    I     I_    0.190893 0.872443 0.252537 -0.296862
I2    I     I_    0.309106 0.627557 0.247462 -0.297077
I3    I     I_    0.309125 0.627488 0.751746 -0.296844
I4    I     I_    0.690864 0.372496 0.248144 -0.297172
I5    I     I_    0.690834 0.627490 0.248474 -0.296944
I6    I     I_    0.309148 0.372491 0.751895 -0.296904
I7    I     I_    0.309187 0.372555 0.249917 -0.297106
I8    I     I_    0.691032 0.627635 0.746387 -0.297439
I9    I     I_    0.809180 0.127454 0.749408 -0.296981
I10   I     I_    0.809150 0.127506 0.251864 -0.296914
I11   I     I_    0.190874 0.872513 0.748256 -0.296936
I12   I     I_    0.190853 0.127510 0.748104 -0.296932
I13   I     I_    0.809165 0.872509 0.251528 -0.296728
I14   I     I_    0.808967 0.872364 0.753611 -0.297786
I15   I     I_    0.190813 0.127446 0.250085 -0.296983
I16   I     I_    0.690820 0.372544 0.750595 -0.296980
N1    N     N_R   0.000006 0.499999 0.093828 -0.354836
N2    N     N_R   0.999997 0.500000 0.906198 -0.354418
N3    N     N_R   0.500005 0.000005 0.593827 -0.354746
N4    N     N_R   0.499996 1.000000 0.406196 -0.354330
N5    N     N_R   0.000001 0.499998 0.406130 -0.354277
N6    N     N_R   0.000001 0.500004 0.593893 -0.354681
N7    N     N_R   0.499991 0.999994 0.906105 -0.354852
N8    N     N_R   0.499973 0.999999 0.093869 -0.354431
O1    O     O_3   1.000000 0.500000 0.249900 -0.489842
O2    O     O_R   0.500000 0.957050 0.200150 -0.642503
O3    O     O_R   0.500000 0.957050 0.799850 -0.642467
O4    O     O_R   0.500000 0.042950 0.200150 -0.642502
O5    O     O_R   0.043100 0.500000 0.199950 -0.643204
O6    O     O_R   0.956900 0.500000 0.800050 -0.643375
O7    O     O_R   0.956900 0.500000 0.199950 -0.643168
O8    O     O_R   0.043100 0.500000 0.800050 -0.643131
O9    O     O_R   0.543100 0.000000 0.699950 -0.643403
O10   O     O_R   0.456900 1.000000 0.300050 -0.643203
O11   O     O_R   0.456900 0.000000 0.699950 -0.643159
O12   O     O_3   1.000000 0.500000 0.750100 -0.489786
O13   O     O_R   0.543100 1.000000 0.300050 -0.643168
O14   O     O_R   0.060660 0.396130 0.262970 -0.635564
O15   O     O_R   0.939340 0.603870 0.737030 -0.635618
O16   O     O_R   0.939340 0.603870 0.262970 -0.635589
O17   O     O_R   0.060660 0.396130 0.737030 -0.635824
O18   O     O_R   0.060660 0.603870 0.737030 -0.636223
O19   O     O_R   0.939340 0.396130 0.262970 -0.636274
O20   O     O_R   0.939340 0.396130 0.737030 -0.636028
O21   O     O_R   0.060660 0.603870 0.262970 -0.636245
O22   O     O_R   0.560660 0.896130 0.762970 -0.635839
O23   O     O_3   0.500000 0.000000 0.749900 -0.489786
O24   O     O_R   0.439340 0.103870 0.237030 -0.636197
O25   O     O_R   0.439340 0.103870 0.762970 -0.636044
O26   O     O_R   0.560660 0.896130 0.237030 -0.636218
O27   O     O_R   0.560660 0.103870 0.237030 -0.635681
O28   O     O_R   0.439340 0.896130 0.762970 -0.635999
O29   O     O_R   0.439340 0.896130 0.237030 -0.635657
O30   O     O_R   0.560660 0.103870 0.762970 -0.635803
O31   O     O_R   0.896240 0.560540 0.236830 -0.625428
O32   O     O_R   0.103760 0.439460 0.763170 -0.625541
O33   O     O_R   0.103760 0.439460 0.236830 -0.625553
O34   O     O_3   0.500000 1.000000 0.250100 -0.489841
O35   O     O_R   0.896240 0.560540 0.763170 -0.626105
O36   O     O_R   0.896240 0.439460 0.763170 -0.625202
O37   O     O_R   0.103760 0.560540 0.236830 -0.625103
O38   O     O_R   0.103760 0.560540 0.763170 -0.624932
O39   O     O_R   0.896240 0.439460 0.236830 -0.625121
O40   O     O_R   0.396240 0.060540 0.736830 -0.625133
O41   O     O_R   0.603760 0.939460 0.263170 -0.624885
O42   O     O_R   0.603760 0.939460 0.736830 -0.625691
O43   O     O_R   0.396240 0.060540 0.263170 -0.625007
O44   O     O_R   0.396240 0.939460 0.263170 -0.625596
O45   O     O_R   1.000000 0.542950 0.299850 -0.642511
O46   O     O_R   0.603760 0.060540 0.736830 -0.625634
O47   O     O_R   0.603760 0.060540 0.263170 -0.625617
O48   O     O_R   0.396240 0.939460 0.736830 -0.625364
O49   O     O_2   0.029835 0.587302 0.094124 -0.553731
O50   O     O_2   0.963014 0.415457 0.905925 -0.554410
O51   O     O_2   0.970176 0.412697 0.094127 -0.553724
O52   O     O_2   0.036979 0.584543 0.905922 -0.554346
O53   O     O_2   0.468557 0.086740 0.594121 -0.553883
O54   O     O_2   0.538488 0.916132 0.405925 -0.554521
O55   O     O_2   0.531453 0.913269 0.594122 -0.553890
O56   O     O_R   1.000000 0.457050 0.700150 -0.642511
O57   O     O_2   0.461503 0.083867 0.405925 -0.554524
O58   O     O_2   0.084010 0.461767 0.405883 -0.553948
O59   O     O_2   0.913368 0.531801 0.594161 -0.553079
O60   O     O_2   0.915992 0.538229 0.405884 -0.553978
O61   O     O_2   0.086635 0.468206 0.594160 -0.553340
O62   O     O_2   0.587658 0.028804 0.905830 -0.552777
O63   O     O_2   0.414741 0.964589 0.094122 -0.553676
O64   O     O_2   0.412325 0.971182 0.905830 -0.553022
O65   O     O_2   0.585205 0.035409 0.094122 -0.553701
O66   O     O_R   1.000000 0.457050 0.299850 -0.642512
O67   O     O_R   1.000000 0.542950 0.700150 -0.642502
O68   O     O_R   0.500000 0.042950 0.799850 -0.642486
Zn1   Zn    Zn3+2 0.061590 0.500000 0.231190 1.000422
Zn2   Zn    Zn3+2 1.000000 0.561700 0.731400 0.992228
Zn3   Zn    Zn3+2 0.000000 0.561700 0.268600 0.992092
Zn4   Zn    Zn3+2 1.000000 0.438300 0.731400 0.992215
Zn5   Zn    Zn3+2 0.500000 0.938300 0.768600 0.992259
Zn6   Zn    Zn3+2 0.500000 0.061700 0.231400 0.992068
Zn7   Zn    Zn3+2 0.500000 0.061700 0.768600 0.992243
Zn8   Zn    Zn3+2 0.500000 0.938300 0.231400 0.992067
Zn9   Zn    Zn3+2 0.938410 0.500000 0.768810 1.000047
Zn10  Zn    Zn3+2 0.938410 0.500000 0.231190 1.000474
Zn11  Zn    Zn3+2 0.061590 0.500000 0.768810 1.000507
Zn12  Zn    Zn3+2 0.561590 1.000000 0.731190 1.000054
Zn13  Zn    Zn3+2 0.438410 1.000000 0.268810 1.000421
Zn14  Zn    Zn3+2 0.438410 1.000000 0.731190 1.000510
Zn15  Zn    Zn3+2 0.561590 1.000000 0.268810 1.000471
Zn16  Zn    Zn3+2 1.000000 0.438300 0.268600 0.992092

loop_
_geom_bond_atom_site_label_1
_geom_bond_atom_site_label_2
_ccdc_geom_bond_type
C44   H10   S    
C237  N4    A    
C96   H66   S    
O45   Zn3   S    
C249  H82   S    
C36   C42   A    
O14   Zn16  S    
C74   C83   A    
C162  I4    S    
C117  H73   S    
C113  C230  T    
C156  I14   S    
C156  C185  S    
C147  O28   A    
C2    C134  S    
C242  C251  A    
C90   C228  T    
C93   C121  A    
C160  C189  S    
C12   C104  A    
C68   C226  T    
C165  I7    S    
C246  C255  A    
C129  O8    A    
C46   C224  T    
C83   H67   S    
C32   C45   A    
C185  H61   S    
C46   C148  S    
C246  H96   S    
C175  H35   S    
C163  C192  S    
O23   Zn12  S    
C8    C264  A    
C61   C105  A    
C90   C143  S    
C160  C196  S    
C85   C188  A    
C3    C39   A    
C240  C249  A    
C66   O63   S    
C146  H57   S    
C242  C258  A    
C17   C51   A    
C215  C221  T    
C141  O42   A    
C93   H63   S    
O11   Zn14  S    
C173  H32   S    
C191  H47   S    
C26   C128  S    
C134  O16   A    
C165  C183  S    
C234  O51   S    
C155  C209  S    
C166  C184  S    
C169  C187  S    
C169  H28   S    
C18   H2    S    
C5    C18   A    
C95   C119  A    
C130  O9    A    
C245  C253  A    
C205  C223  S    
C192  H50   S    
C260  N3    S    
C142  O43   A    
C73   C88   A    
C26   C249  A    
O37   Zn1   S    
C152  C170  S    
C19   C49   A    
C179  C202  S    
C189  C206  S    
C23   H7    S    
C80   C112  A    
C64   O61   S    
C146  C180  S    
C16   C58   A    
C66   C110  A    
O1    Zn16  S    
C112  C125  S    
C246  C261  A    
C57   C147  S    
C33   C47   A    
C183  H42   S    
C30   C43   A    
C143  O25   A    
C34   C48   A    
O12   Zn4   S    
O31   Zn10  S    
C52   C115  A    
C142  O24   A    
C127  O4    A    
C77   C91   A    
C13   C133  S    
O23   Zn7   S    
C179  H58   S    
C135  C197  S    
C187  C205  S    
C62   C106  A    
C115  H71   S    
C238  N3    A    
C151  I9    S    
C96   C109  A    
C162  C198  S    
C178  H38   S    
C138  C232  S    
O32   Zn11  S    
C104  C110  A    
C37   C50   A    
C28   C130  S    
C236  O53   S    
C123  O45   A    
O48   Zn14  S    
C154  I12   S    
C29   C255  A    
C97   C117  A    
O3    Zn5   S    
C133  O15   A    
C3    C11   A    
C95   C108  A    
C166  I8    S    
C71   C88   A    
C137  C243  S    
C22   C45   A    
C4    C262  A    
C5    C263  A    
C1    C81   A    
C76   C85   A    
C47   H13   S    
C138  O39   A    
C172  H31   S    
C98   H69   S    
C67   N7    A    
C163  C181  S    
C138  O19   A    
C25   C43   A    
C99   C114  A    
C253  H86   S    
C6    C19   A    
C36   C37   A    
C165  C204  S    
C175  C204  S    
C21   H5    S    
C64   N6    A    
O36   Zn9   S    
O43   Zn13  S    
C159  I16   S    
C239  O57   S    
C11   C25   A    
C99   H70   S    
O41   Zn15  S    
C50   H16   S    
C177  C206  S    
C16   C60   A    
C159  C187  S    
C245  C260  A    
C252  H81   S    
C137  O38   A    
C235  N2    A    
C208  C226  S    
C94   C120  A    
C206  C224  S    
C231  O49   S    
C157  H55   S    
C152  I10   S    
C162  C180  S    
C259  N2    S    
C75   C91   A    
C76   C89   A    
O67   Zn2   S    
C57   C225  T    
C247  C256  A    
C139  C221  S    
C14   C55   A    
C6    C234  A    
C127  O2    A    
C35   C223  T    
C128  O5    A    
C81   H1    S    
C76   H22   S    
C126  O3    A    
O23   Zn5   S    
C70   C87   A    
C61   O58   S    
C148  O44   A    
C195  H51   S    
C64   C108  A    
C84   C199  A    
C167  C189  S    
C94   C107  A    
C33   C40   A    
C250  H83   S    
C186  C204  S    
C129  O6    A    
C28   C253  A    
C150  C206  S    
C189  H44   S    
C91   N8    S    
C183  C186  S    
C16   C100  A    
O6    Zn9   S    
C61   N5    A    
C38   C51   A    
C183  C212  S    
C194  C212  S    
C170  C191  S    
O35   Zn9   S    
C171  C190  S    
O34   Zn8   S    
C62   O59   S    
C168  H59   S    
C146  C198  S    
C187  H46   S    
C171  C200  S    
C3    C9    A    
C92   C122  A    
C93   C106  A    
C196  C214  S    
C101  C142  S    
C92   C105  A    
C86   H56   S    
C31   C32   A    
C124  C196  S    
C218  C254  T    
C6    C262  A    
C151  C205  S    
C124  C177  S    
O7    Zn10  S    
C139  O36   A    
C84   H78   S    
C211  C228  S    
C9    C237  A    
C56   C119  A    
C92   H62   S    
C83   C188  A    
C72   C87   A    
O2    Zn8   S    
C19   H3    S    
C171  H30   S    
C132  O33   A    
C88   N6    S    
C161  C200  S    
C152  C208  S    
C161  C190  S    
C127  C199  S    
C237  O54   S    
C120  H76   S    
O8    Zn11  S    
C170  H29   S    
C235  O52   S    
C35   C149  S    
O10   Zn13  S    
C136  O17   A    
C151  C169  S    
C255  H87   S    
C159  C176  S    
C157  C200  S    
C135  C176  S    
C126  C188  S    
C134  O31   A    
O1    Zn10  S    
C14   C103  A    
C29   C131  S    
C71   H21   S    
C133  O35   A    
C113  C141  S    
C30   C39   A    
C166  C203  S    
C13   C220  T    
C37   C41   A    
C164  C201  S    
C36   C49   A    
C190  H48   S    
C190  C207  S    
C14   C53   A    
C128  O7    A    
C156  C213  S    
C131  O10   A    
C147  O48   A    
O22   Zn5   S    
C242  H88   S    
C55   C118  A    
O1    Zn1   S    
C21   C47   A    
C1    C78   A    
C150  I1    S    
C118  H74   S    
C165  C194  S    
C20   H4    S    
C69   O65   S    
C247  C260  A    
C140  C210  S    
C156  C174  S    
C203  C220  S    
O34   Zn6   S    
C169  C197  S    
C201  C218  S    
C99   C115  A    
C49   H15   S    
C167  H27   S    
C87   N5    S    
C31   C40   A    
C66   N8    A    
C103  C111  A    
C32   C39   A    
C140  O37   A    
O12   Zn2   S    
C153  C207  S    
O56   Zn4   S    
C136  O32   A    
O47   Zn15  S    
O27   Zn6   S    
C241  C259  A    
C72   C81   A    
C52   C55   A    
C86   C199  A    
C73   H19   S    
C174  C195  S    
C240  H91   S    
O46   Zn12  S    
C200  C217  S    
C154  C168  S    
C172  C193  S    
C34   C41   A    
C75   H26   S    
C158  C186  S    
C162  C191  S    
C12   C52   A    
C155  C179  S    
C238  O55   S    
C158  C212  S    
C7    C235  A    
C143  O40   A    
C158  I15   S    
C145  O27   A    
C4    C231  A    
C63   O60   S    
C135  H53   S    
C85   H45   S    
C198  C216  S    
C53   C54   A    
C23   C44   A    
C56   C60   A    
C181  H40   S    
C121  H77   S    
C173  C202  S    
C82   C112  A    
C176  C205  S    
O18   Zn2   S    
C27   C252  A    
C1    C123  S    
O42   Zn12  S    
C154  C211  S    
C95   H65   S    
C24   C132  S    
C119  H75   S    
C180  H39   S    
C178  C207  S    
C58   C120  A    
O29   Zn8   S    
C60   C122  A    
C65   C109  A    
O1    Zn3   S    
O21   Zn3   S    
C4    C17   A    
C8    C236  A    
C67   C111  A    
C168  C182  S    
C2    C219  T    
O38   Zn11  S    
C125  O67   A    
O19   Zn16  S    
O12   Zn11  S    
C73   C82   A    
C18   C50   A    
C248  C261  A    
C258  N1    S    
C96   C118  A    
C164  I6    S    
C124  C150  S    
O5    Zn1   S    
C20   C48   A    
C204  C222  S    
C176  H36   S    
C15   C59   A    
O20   Zn4   S    
C241  C250  A    
C145  O47   A    
C69   N8    A    
C233  N2    A    
O26   Zn8   S    
C43   H9    S    
C24   C222  T    
C149  O30   A    
C173  C192  S    
C131  O13   A    
C182  H41   S    
C103  C109  A    
C74   H25   S    
C185  C203  S    
C58   C59   A    
C65   O62   S    
C45   H11   S    
C125  O56   A    
O40   Zn14  S    
C135  C151  S    
C150  C167  S    
C186  H60   S    
C182  C211  S    
C141  O22   A    
C213  C230  S    
C153  C157  S    
C75   C84   A    
C193  H49   S    
C139  O20   A    
C195  C213  S    
C164  C182  S    
C236  N3    A    
C137  O18   A    
C159  C197  S    
C192  C209  S    
C257  H85   S    
C7    C20   A    
C248  H94   S    
C62   N6    A    
C67   O64   S    
C101  C229  T    
C209  C227  S    
C161  C178  S    
C144  O41   A    
C12   C54   A    
C68   C145  S    
C244  H90   S    
O9    Zn12  S    
C59   C121  A    
C234  N1    A    
C163  C202  S    
C212  C229  S    
O23   Zn14  S    
C70   C78   A    
C167  C196  S    
C42   C262  A    
C184  C185  S    
C261  N4    S    
C100  C105  A    
C63   N5    A    
C74   C89   A    
C136  C254  S    
C27   C250  A    
C38   C42   A    
C9    C22   A    
O34   Zn15  S    
C11   C239  A    
C168  C201  S    
C181  C209  S    
C89   N7    S    
O12   Zn9   S    
C207  C225  S    
C102  C108  A    
O13   Zn15  S    
C175  C194  S    
C197  C215  S    
C53   C116  A    
C80   H34   S    
C157  C178  S    
C155  C173  S    
C132  O14   A    
C5    C233  A    
O30   Zn7   S    
O24   Zn6   S    
C116  H72   S    
C244  C259  A    
O28   Zn5   S    
C79   C227  T    
C71   C80   A    
C29   C257  A    
C148  O29   A    
C153  I11   S    
C144  O26   A    
C69   C114  A    
C31   C44   A    
C247  H93   S    
C25   H8    S    
O39   Zn10  S    
C126  O68   A    
C41   C263  A    
C166  C195  S    
O17   Zn4   S    
O44   Zn13  S    
C164  C193  S    
C241  H92   S    
C210  C214  T    
C17   H89   S    
C140  O21   A    
C245  H95   S    
C184  H43   S    
C202  C219  S    
C82   H12   S    
C217  C243  T    
C194  H52   S    
C158  C175  S    
C98   C116  A    
C79   C144  S    
C163  I5    S    
C160  C177  S    
C153  C171  S    
C177  H37   S    
C8    C21   A    
C154  C172  S    
C160  I2    S    
O68   Zn7   S    
C7    C263  A    
C104  C114  A    
C146  C152  S    
C77   C86   A    
C10   C238  A    
C94   H64   S    
C122  H79   S    
C155  I13   S    
C27   C129  S    
C54   C117  A    
C72   H18   S    
C77   H24   S    
C63   C107  A    
C65   N7    A    
C78   H23   S    
C170  C198  S    
C149  O46   A    
O15   Zn2   S    
C100  C107  A    
C98   C111  A    
C244  C252  A    
C30   C33   A    
C34   C38   A    
C28   C256  A    
C161  I3    S    
C123  O66   A    
O34   Zn13  S    
C48   H14   S    
C10   C23   A    
C256  H84   S    
O4    Zn6   S    
C174  H33   S    
O33   Zn1   S    
C233  O50   S    
C240  C258  A    
C15   C56   A    
O66   Zn16  S    
C124  H54   S    
C251  H80   S    
C97   C110  A    
C40   C264  A    
C22   H6    S    
C184  C213  S    
O16   Zn3   S    
C70   H20   S    
C130  O11   A    
C174  C203  S    
C216  C232  T    
C10   C264  A    
C102  C106  A    
C191  C208  S    
C15   C102  A    
C172  C201  S    
C193  C211  S    
C26   C251  A    
C97   H68   S    
C248  C257  A    
C231  N1    A    
C51   H17   S    
O25   Zn7   S    
C239  N4    A    
C180  C208  S    
C179  C181  S    
