data_mof_unit_9480.cif
_audit_creation_date              2012-12-10T17:02:02-0500
_audit_creation_method            fapswitch 2.2
_symmetry_space_group_name_H-M    P1
_symmetry_Int_Tables_number       1
_space_group_crystal_system       triclinic
_cell_length_a                    10.848264
_cell_length_b                    11.060089
_cell_length_c                    9.818084
_cell_angle_alpha                 111.292175
_cell_angle_beta                  98.238479
_cell_angle_gamma                 90.996112
_cell_volume                      1083.18222958

loop_
_atom_site_label
_atom_site_type_symbol
_atom_type_description
_atom_site_fract_x
_atom_site_fract_y
_atom_site_fract_z
_atom_type_partial_charge
C1    C     C_R   0.487084 0.253867 0.440763 0.833343
C2    C     C_R   0.078712 0.515141 0.639221 0.071465
C3    C     C_R   0.128525 0.511876 0.511293 -0.104295
C4    C     C_R   0.047386 0.496718 0.380527 -0.204260
C5    C     C_R   0.919658 0.484646 0.374698 -0.207314
C6    C     C_R   0.870479 0.476105 0.494981 -0.098179
C7    C     C_2   0.479222 0.113520 0.407915 -0.033356
C8    C     C_2   0.458968 0.066850 0.512965 0.189929
C9    C     C_2   0.499596 0.884284 0.593234 -0.388575
C10   C     C_2   0.467301 0.927847 0.483821 -0.170839
C11   C     C_2   0.507269 0.510583 0.078637 0.046667
C12   C     C_R   0.262462 0.507041 0.504073 0.801109
C13   C     C_2   0.487446 0.489875 0.916152 -0.078268
C14   C     C_R   0.506248 0.745772 0.559520 0.876266
C15   C     C_R   0.736723 0.488514 0.496614 0.795609
C16   C     C_R   0.148661 0.557756 0.784074 -0.256846
C17   C     C_R   0.101362 0.536756 0.900106 0.195536
C18   C     C_R   0.984020 0.469918 0.871367 0.208951
C19   C     C_R   0.910228 0.438878 0.732236 -0.246587
C20   C     C_R   0.951808 0.475356 0.621523 0.066926
Cu1   Cu    Cu3+1 0.521920 0.521810 0.644910 0.937183
Cu2   Cu    Cu3+1 0.478080 0.478190 0.355090 0.941388
H1    H     H_    0.413855 0.419926 0.841032 0.218857
H2    H     H_    0.577506 0.585927 0.151813 0.113445
H3    H     H_    0.625003 0.620054 0.935302 0.190866
H4    H     H_    0.236707 0.614532 0.812138 0.174197
H5    H     H_    0.820549 0.385775 0.711505 0.165222
H6    H     H_    0.859203 0.482655 0.275980 0.163867
H7    H     H_    0.449819 0.860102 0.369424 0.199784
N1    N     N_2   0.445130 0.445430 0.137370 -0.118506
N2    N     N_2   0.554930 0.554500 0.862630 -0.311412
O1    O     O_R   0.511700 0.332330 0.577400 -0.556132
O2    O     O_R   0.474680 0.295500 0.332650 -0.594044
O3    O     O_R   0.338160 0.518420 0.622400 -0.590528
O4    O     O_R   0.301140 0.481590 0.377650 -0.575490
O5    O     O_R   0.525320 0.704500 0.667350 -0.572880
O6    O     O_R   0.488300 0.667670 0.422600 -0.584392
O7    O     O_R   0.698860 0.518410 0.622350 -0.579632
O8    O     O_R   0.661840 0.481580 0.377600 -0.588711
H8    H     H_    0.082550 0.496687 0.282697 0.194914
N3    N     N_3   0.499570 0.026762 0.264473 -0.632300
H9    H     H_    0.431592 0.039266 0.184709 0.224848
H10   H     H_    0.586835 0.054227 0.246890 0.220121
N4    N     N_3   0.360281 0.344457 0.041749 -0.509734
H11   H     H_    0.275134 0.359527 0.081010 0.267621
H12   H     H_    0.390790 0.258651 0.051951 0.227584
N5    N     N_3   0.172713 0.580601 0.046653 -0.574584
H13   H     H_    0.259890 0.623590 0.048750 0.216390
H14   H     H_    0.125564 0.653856 0.115729 0.205712
N6    N     N_3   0.938499 0.438974 0.986030 -0.589502
H15   H     H_    0.917099 0.526269 0.063818 0.197957
H16   H     H_    0.854861 0.380199 0.943996 0.208835
N7    N     N_3   0.426613 0.151108 0.651808 -0.581423
H17   H     H_    0.346597 0.109468 0.670576 0.221339
H18   H     H_    0.499880 0.159254 0.736986 0.219144
H19   H     H_    0.519281 0.949701 0.708286 0.152714

loop_
_geom_bond_atom_site_label_1
_geom_bond_atom_site_label_2
_ccdc_geom_bond_type
C8    N7    S    
H3    N2    S    
N6    H16   S    
C9    C14   S    
C15   O7    A    
Cu1   O3    S    
C5    H6    S    
C2    C16   A    
C9    C10   D    
C19   C20   A    
C18   N6    S    
C15   O8    A    
Cu1   N2    S    
C7    N3    S    
N6    H15   S    
C1    O2    A    
C7    C8    D    
N5    H14   S    
Cu1   O5    S    
C1    C7    S    
N7    H17   S    
C12   O4    A    
C14   O5    A    
Cu2   O4    S    
N3    H10   S    
C10   H7    S    
N1    N4    S    
Cu2   O8    S    
C19   H5    S    
N4    H12   S    
C17   C18   A    
C2    C3    A    
N7    H18   S    
C16   H4    S    
C5    C6    A    
Cu1   O1    S    
C12   O3    A    
C3    C4    A    
N5    H13   S    
C17   N5    S    
C11   H2    S    
C11   C13   S    
C6    C20   A    
N4    H11   S    
C13   H1    S    
C8    C10   S    
C18   C19   A    
N3    H9    S    
C9    H19   S    
Cu2   O2    S    
C16   C17   A    
C3    C12   S    
Cu2   N1    S    
C6    C15   S    
Cu1   Cu2   S    
Cu2   O6    S    
C2    C20   A    
C13   N2    D    
C1    O1    A    
Cu1   O7    S    
C4    H8    S    
C11   N1    D    
C4    C5    A    
C14   O6    A    
