data_mof_unit_54892.cif
_audit_creation_date              2012-12-10T17:31:28-0500
_audit_creation_method            fapswitch 2.2
_symmetry_space_group_name_H-M    P1
_symmetry_Int_Tables_number       1
_space_group_crystal_system       triclinic
_cell_length_a                    18.868193
_cell_length_b                    18.490893
_cell_length_c                    12.366143
_cell_angle_alpha                 89.99977
_cell_angle_beta                  129.045945
_cell_angle_gamma                 90.000525
_cell_volume                      3350.75604598

loop_
_atom_site_label
_atom_site_type_symbol
_atom_type_description
_atom_site_fract_x
_atom_site_fract_y
_atom_site_fract_z
_atom_type_partial_charge
C1    C     C_R   0.612880 0.898501 0.653213 0.776839
C2    C     C_R   0.612882 0.101498 0.653215 0.776832
C3    C     C_R   0.112882 0.398502 0.653215 0.776834
C4    C     C_R   0.112885 0.601496 0.653219 0.776829
C5    C     C_R   0.244439 0.777072 0.034661 0.072810
C6    C     C_R   0.244442 0.222936 0.034675 0.072813
C7    C     C_R   0.744430 0.277073 0.034660 0.072812
C8    C     C_R   0.744433 0.722933 0.034667 0.072814
C9    C     C_R   0.663616 0.271784 0.019258 0.151586
C10   C     C_R   0.663625 0.728233 0.019282 0.151579
C11   C     C_R   0.163609 0.771801 0.019229 0.151578
C12   C     C_R   0.163625 0.228220 0.019268 0.151579
C13   C     C_R   0.585656 0.240825 0.900098 -0.233959
C14   C     C_R   0.585660 0.759184 0.900115 -0.233938
C15   C     C_R   0.085645 0.740852 0.900054 -0.233932
C16   C     C_R   0.085660 0.259168 0.900096 -0.233940
C17   C     C_R   0.588982 0.209742 0.801696 -0.209025
C18   C     C_R   0.588979 0.790251 0.801693 -0.209013
C19   C     C_R   0.088980 0.709757 0.801668 -0.209015
C20   C     C_R   0.088984 0.290246 0.801689 -0.209016
C21   C     C_R   0.316928 0.817128 0.146933 -0.273271
C22   C     C_R   0.316922 0.182865 0.146921 -0.273286
C23   C     C_R   0.816909 0.317144 0.146908 -0.273300
C24   C     C_R   0.816903 0.682844 0.146888 -0.273302
C25   C     C_R   0.237847 0.830757 0.242652 -0.001675
C26   C     C_R   0.237872 0.169269 0.242696 -0.001674
C27   C     C_R   0.737857 0.330746 0.242674 -0.001677
C28   C     C_R   0.737883 0.669287 0.242718 -0.001675
C29   C     C_R   0.680858 0.157602 0.742428 -0.101032
C30   C     C_R   0.680858 0.842400 0.742428 -0.101035
C31   C     C_R   0.180868 0.657595 0.742435 -0.101025
C32   C     C_R   0.180863 0.342403 0.742432 -0.101032
C33   C     C_R   0.685474 0.999997 0.285930 -0.297418
C34   C     C_R   0.185474 0.499994 0.285930 -0.297418
C35   C     C_R   0.343101 0.000004 0.628129 0.131567
C36   C     C_R   0.843101 0.500011 0.628129 0.131581
C37   C     C_R   0.308625 0.000007 0.700082 -0.240988
C38   C     C_R   0.808624 0.500019 0.700081 -0.240996
C39   C     C_R   0.384907 0.100202 0.344058 0.792003
C40   C     C_R   0.384905 0.899799 0.344056 0.791997
C41   C     C_R   0.884905 0.600200 0.344055 0.792000
C42   C     C_R   0.884903 0.399801 0.344053 0.791998
C43   C     C_R   0.367453 0.000005 0.845095 -0.218650
C44   C     C_R   0.867452 0.500014 0.845094 -0.218655
C45   C     C_R   0.462591 0.000001 0.921382 -0.002735
C46   C     C_R   0.962591 0.500004 0.921382 -0.002732
C47   C     C_R   0.495075 0.999999 0.842882 0.277560
C48   C     C_R   0.995075 0.499999 0.842882 0.277568
C49   C     C_R   0.526536 0.000000 0.072032 -0.037489
C50   C     C_R   0.026535 0.500000 0.072032 -0.037485
C51   C     C_R   0.621155 0.999998 0.140013 0.172951
C52   C     C_R   0.121155 0.499996 0.140013 0.172954
C53   C     C_R   0.651412 0.999998 0.062345 -0.271401
C54   C     C_R   0.151412 0.499994 0.062344 -0.271405
C55   C     C_R   0.590081 0.999998 0.917762 -0.164407
C56   C     C_R   0.090080 0.499996 0.917762 -0.164411
C57   C     C_R   0.501485 0.000001 0.159547 0.014273
C58   C     C_R   0.001485 0.500002 0.159546 0.014268
C59   C     C_R   0.656531 0.999998 0.365287 0.071998
C60   C     C_R   0.156531 0.499996 0.365287 0.072004
C61   C     C_R   0.661699 0.296638 0.124062 -0.234360
C62   C     C_R   0.661720 0.703393 0.124109 -0.234362
C63   C     C_R   0.161684 0.796661 0.124023 -0.234353
C64   C     C_R   0.161711 0.203371 0.124078 -0.234357
C65   C     C_R   0.313443 0.846684 0.247713 -0.111020
C66   C     C_R   0.313451 0.153322 0.247724 -0.111009
C67   C     C_R   0.813439 0.346687 0.247710 -0.111008
C68   C     C_R   0.813446 0.653318 0.247716 -0.111002
C69   C     C_R   0.761377 0.158437 0.758591 -0.179749
C70   C     C_R   0.761383 0.841578 0.758607 -0.179744
C71   C     C_R   0.261392 0.658421 0.758610 -0.179748
C72   C     C_R   0.261385 0.341579 0.758605 -0.179746
C73   C     C_R   0.335369 0.699579 0.862506 -0.175925
C74   C     C_R   0.335366 0.300428 0.862511 -0.175923
C75   C     C_R   0.835352 0.199596 0.862487 -0.175913
C76   C     C_R   0.835366 0.800433 0.862524 -0.175920
C77   C     C_R   0.330853 0.739804 0.952857 -0.194136
C78   C     C_R   0.330853 0.260207 0.952869 -0.194156
C79   C     C_R   0.830837 0.239816 0.952843 -0.194153
C80   C     C_R   0.830851 0.760213 0.952881 -0.194172
C81   C     C_R   0.749907 0.241598 0.938025 0.083339
C82   C     C_R   0.749911 0.758411 0.938035 0.083328
C83   C     C_R   0.249919 0.741593 0.938031 0.083336
C84   C     C_R   0.249919 0.258412 0.938039 0.083333
C85   C     C_R   0.672429 0.203104 0.825821 0.077528
C86   C     C_R   0.672428 0.796895 0.825820 0.077508
C87   C     C_R   0.172437 0.703105 0.825818 0.077512
C88   C     C_R   0.172435 0.296896 0.825824 0.077515
Cu1   Cu    Cu3+1 0.526340 0.000000 0.421010 0.932707
Cu2   Cu    Cu3+1 0.026340 0.500000 0.421010 0.932707
Cu3   Cu    Cu3+1 0.473640 0.000000 0.578990 0.925941
Cu4   Cu    Cu3+1 0.973640 0.500000 0.578990 0.925951
H1    H     H_    0.723871 0.999997 0.114153 0.150743
H2    H     H_    0.223871 0.499991 0.114153 0.150743
H3    H     H_    0.758010 0.999996 0.338512 0.132955
H4    H     H_    0.258010 0.499991 0.338512 0.132954
H5    H     H_    0.430965 0.000002 0.116346 0.124588
H6    H     H_    0.930965 0.500004 0.116346 0.124578
H7    H     H_    0.296464 0.000006 0.515556 0.143904
H8    H     H_    0.796463 0.500015 0.515556 0.143889
H9    H     H_    0.336715 0.000008 0.894763 0.136813
H10   H     H_    0.836715 0.500020 0.894762 0.136808
H11   H     H_    0.235611 0.000012 0.642974 0.143306
H12   H     H_    0.735610 0.500029 0.642972 0.143297
H13   H     H_    0.620602 0.999999 0.868856 0.206704
H14   H     H_    0.120602 0.499997 0.868856 0.206700
H15   H     H_    0.521934 0.240267 0.883237 0.129418
H16   H     H_    0.521939 0.759742 0.883260 0.129422
H17   H     H_    0.021914 0.740309 0.883174 0.129395
H18   H     H_    0.021935 0.259715 0.883228 0.129412
H19   H     H_    0.601771 0.286641 0.115813 0.133793
H20   H     H_    0.601801 0.713403 0.115880 0.133792
H21   H     H_    0.101744 0.786675 0.115753 0.133785
H22   H     H_    0.101781 0.213367 0.115829 0.133792
H23   H     H_    0.376595 0.827816 0.156393 0.160646
H24   H     H_    0.376564 0.172147 0.156328 0.160658
H25   H     H_    0.876553 0.327855 0.156326 0.160664
H26   H     H_    0.876521 0.672096 0.156245 0.160672
H27   H     H_    0.769008 0.124258 0.695344 0.148215
H28   H     H_    0.769014 0.875760 0.695363 0.148219
H29   H     H_    0.269025 0.624237 0.695369 0.148206
H30   H     H_    0.269016 0.375761 0.695359 0.148215
H31   H     H_    0.392830 0.767243 0.034646 0.129121
H32   H     H_    0.392836 0.232781 0.034676 0.129135
H33   H     H_    0.892814 0.267254 0.034636 0.129131
H34   H     H_    0.892841 0.732800 0.034709 0.129147
H35   H     H_    0.398197 0.697926 0.876925 0.126595
H36   H     H_    0.398195 0.302087 0.876936 0.126600
H37   H     H_    0.898178 0.197946 0.876904 0.126592
H38   H     H_    0.898199 0.802098 0.876962 0.126597
H39   H     H_    0.525470 0.189904 0.707873 0.165063
H40   H     H_    0.525464 0.810077 0.707859 0.165040
H41   H     H_    0.025471 0.689921 0.707836 0.165048
H42   H     H_    0.025471 0.310073 0.707854 0.165036
H43   H     H_    0.706217 0.999998 0.477760 0.112991
H44   H     H_    0.206217 0.499994 0.477760 0.112987
N1    N     N_R   0.566260 1.000000 0.302220 -0.176398
N2    N     N_R   0.066260 0.500000 0.302220 -0.176395
N3    N     N_R   0.434410 1.000000 0.697680 -0.215290
N4    N     N_R   0.934410 0.500000 0.697680 -0.215284
O1    O     O_R   0.608610 0.924520 0.551740 -0.578625
O2    O     O_R   0.608610 0.075480 0.551740 -0.578620
O3    O     O_R   0.108610 0.424520 0.551740 -0.578623
O4    O     O_R   0.108610 0.575480 0.551740 -0.578616
O5    O     O_R   0.564110 0.924510 0.685150 -0.599873
O6    O     O_R   0.564110 0.075490 0.685150 -0.599884
O7    O     O_R   0.064110 0.424510 0.685150 -0.599874
O8    O     O_R   0.064110 0.575490 0.685150 -0.599874
O9    O     O_R   0.435880 0.075470 0.314850 -0.581725
O10   O     O_R   0.435880 0.924530 0.314850 -0.581719
O11   O     O_R   0.935880 0.575470 0.314850 -0.581734
O12   O     O_R   0.935880 0.424530 0.314850 -0.581725
O13   O     O_R   0.391380 0.075460 0.448260 -0.584886
O14   O     O_R   0.391380 0.924540 0.448260 -0.584881
O15   O     O_R   0.891380 0.575460 0.448260 -0.584879
O16   O     O_R   0.891380 0.424540 0.448260 -0.584880
C89   C     C_R   0.238156 0.841638 0.361734 0.140353
C90   C     C_R   0.307523 0.810198 0.491252 -0.105002
C91   C     C_R   0.302522 0.811717 0.599181 -0.125015
C92   C     C_R   0.227041 0.842614 0.577800 -0.092812
C93   C     C_R   0.157809 0.874300 0.449610 -0.172952
C94   C     C_R   0.163335 0.874109 0.342017 -0.182108
H45   H     H_    0.364423 0.783104 0.507482 0.104893
H46   H     H_    0.356731 0.788159 0.698765 0.121970
H47   H     H_    0.222805 0.842871 0.661131 0.141005
H48   H     H_    0.099732 0.898838 0.433499 0.128831
H49   H     H_    0.108487 0.897883 0.242576 0.126041
C95   C     C_R   0.238193 0.158395 0.361791 0.140348
C96   C     C_R   0.163365 0.125948 0.342089 -0.182109
C97   C     C_R   0.157853 0.125766 0.449698 -0.172942
C98   C     C_R   0.227107 0.157438 0.577891 -0.092791
C99   C     C_R   0.302596 0.188310 0.599258 -0.125019
C100  C     C_R   0.307582 0.189821 0.491312 -0.104996
H50   H     H_    0.108500 0.102186 0.242646 0.126039
H51   H     H_    0.099770 0.101249 0.433596 0.128828
H52   H     H_    0.222882 0.157188 0.661234 0.141022
H53   H     H_    0.356821 0.211855 0.698843 0.121942
H54   H     H_    0.364487 0.216899 0.507531 0.104889
C101  C     C_R   0.738170 0.341629 0.361759 0.140347
C102  C     C_R   0.807546 0.310200 0.491281 -0.104989
C103  C     C_R   0.802555 0.311727 0.599220 -0.125016
C104  C     C_R   0.727072 0.342617 0.577843 -0.092804
C105  C     C_R   0.657829 0.374290 0.449647 -0.172956
C106  C     C_R   0.663347 0.374092 0.342045 -0.182114
H55   H     H_    0.864447 0.283110 0.507509 0.104890
H56   H     H_    0.856772 0.288182 0.698808 0.121957
H57   H     H_    0.722844 0.342880 0.661181 0.141013
H58   H     H_    0.599751 0.398821 0.433538 0.128834
H59   H     H_    0.608491 0.397857 0.242600 0.126047
C107  C     C_R   0.738225 0.658430 0.361837 0.140355
C108  C     C_R   0.663405 0.625996 0.342173 -0.182115
C109  C     C_R   0.657923 0.625823 0.449811 -0.172949
C110  C     C_R   0.727198 0.657492 0.577992 -0.092753
C111  C     C_R   0.802675 0.688356 0.599316 -0.125023
C112  C     C_R   0.807632 0.689858 0.491343 -0.104992
H60   H     H_    0.608525 0.602234 0.242742 0.126042
H61   H     H_    0.599846 0.601314 0.433741 0.128826
H62   H     H_    0.722996 0.657248 0.661357 0.141048
H63   H     H_    0.856913 0.711903 0.698889 0.121908
H64   H     H_    0.864531 0.716928 0.507531 0.104876

loop_
_geom_bond_atom_site_label_1
_geom_bond_atom_site_label_2
_ccdc_geom_bond_type
C99   H53   S    
C83   C87   A    
C98   C99   A    
C3    O7    A    
C107  C108  A    
C17   H39   S    
C96   C97   A    
C14   C18   A    
C53   C55   A    
C18   H40   S    
C58   H6    S    
C21   H23   S    
C93   C94   A    
C16   H18   S    
C32   C72   A    
C103  C104  A    
C99   C100  A    
C15   C19   A    
C26   C95   S    
C4    O4    A    
C89   C90   A    
C55   H13   S    
C2    C29   S    
C9    C61   A    
C1    C30   S    
C28   C68   A    
C34   H4    S    
C5    C11   A    
C19   C87   A    
C6    C12   A    
C12   C64   A    
Cu1   O1    S    
Cu4   O8    S    
C97   C98   A    
C59   N1    A    
Cu1   O2    S    
C6    C22   A    
C49   C57   A    
C48   C56   A    
C25   C63   A    
C23   C67   A    
C9    C13   A    
C108  H60   S    
C22   C66   A    
C38   H12   S    
C27   C61   A    
C35   N3    A    
C104  C105  A    
C76   H38   S    
C3    O3    A    
C74   H36   S    
C12   C16   A    
C52   C54   A    
C49   C51   A    
C50   C52   A    
C96   H50   S    
C30   C86   A    
C78   H32   S    
C60   H44   S    
C29   C85   A    
Cu2   O3    S    
C13   H15   S    
C21   C65   A    
C58   N2    A    
C62   H20   S    
C22   H24   S    
C111  C112  A    
C79   H33   S    
C33   C59   A    
Cu4   O7    S    
C34   C60   A    
C40   O14   A    
C10   C62   A    
C11   C15   A    
C35   H7    S    
C33   H3    S    
Cu2   N2    S    
C44   C46   A    
C75   H37   S    
C41   C68   S    
C29   C69   A    
C97   H51   S    
C45   C47   A    
C95   C100  A    
C46   C48   A    
Cu1   O9    S    
C6    C84   A    
C28   C62   A    
C48   N4    A    
C57   N1    A    
C53   H1    S    
C108  C109  A    
C26   C66   A    
C84   C88   A    
C31   C87   A    
Cu3   O14   S    
C72   C74   A    
C10   C14   A    
C70   H28   S    
C71   C73   A    
C44   H10   S    
C82   C86   A    
C92   H47   S    
C69   H27   S    
C101  C102  A    
C51   C53   A    
C4    O8    A    
C50   C58   A    
C37   C43   A    
C42   O16   A    
C105  C106  A    
C43   H9    S    
C5    C83   A    
C38   C44   A    
C77   H31   S    
C43   C45   A    
Cu2   Cu4   S    
C91   C92   A    
C45   C49   A    
C16   C20   A    
C57   H5    S    
C40   O10   A    
C36   H8    S    
C18   C86   A    
C109  H61   S    
C36   N4    A    
C56   H14   S    
C107  C112  A    
Cu3   N3    S    
C19   H41   S    
C90   H45   S    
Cu2   O12   S    
C95   C96   A    
C7    C81   A    
C39   O13   A    
C110  C111  A    
Cu1   N1    S    
C40   C65   S    
C25   C89   S    
C42   C67   S    
C2    O2    A    
C39   C66   S    
C17   C85   A    
C33   C51   A    
C1    O5    A    
Cu4   O16   S    
Cu4   N4    S    
Cu3   O5    S    
C8    C82   A    
C42   O12   A    
C102  C103  A    
C35   C37   A    
C47   C55   A    
C112  H64   S    
C101  C106  A    
C7    C9    A    
C46   C50   A    
Cu1   O10   S    
C73   C77   A    
C72   H30   S    
C106  H59   S    
C34   C52   A    
C71   H29   S    
C76   C80   A    
C27   C101  S    
Cu2   O11   S    
C28   C107  S    
C23   H25   S    
C37   H11   S    
C103  H56   S    
C54   C56   A    
Cu3   O13   S    
C41   O11   A    
C26   C64   A    
C2    O6    A    
C98   H52   S    
C39   O9    A    
C79   C81   A    
C13   C17   A    
C109  C110  A    
C36   C38   A    
C73   H35   S    
C105  H58   S    
C92   C93   A    
C70   C76   A    
C14   H16   S    
C15   H17   S    
C1    O1    A    
C90   C91   A    
C80   H34   S    
C100  H54   S    
C61   H19   S    
C7    C23   A    
C20   C88   A    
C59   H43   S    
C24   H26   S    
C8    C24   A    
C80   C82   A    
C69   C75   A    
Cu4   O15   S    
C104  H57   S    
C3    C32   S    
C81   C85   A    
C54   H2    S    
C4    C31   S    
C27   C67   A    
C102  H55   S    
C24   C68   A    
C93   H48   S    
C94   H49   S    
C63   H21   S    
C111  H63   S    
C78   C84   A    
C30   C70   A    
C5    C21   A    
C64   H22   S    
C8    C10   A    
Cu1   Cu3   S    
C74   C78   A    
C47   N3    A    
C25   C65   A    
C77   C83   A    
C91   H46   S    
C20   H42   S    
C11   C63   A    
C75   C79   A    
C89   C94   A    
Cu3   O6    S    
Cu2   O4    S    
C110  H62   S    
C60   N2    A    
C31   C71   A    
C41   O15   A    
C32   C88   A    
