data_mof_unit_56085.cif
_audit_creation_date              2013-03-05T16:31:33-0500
_audit_creation_method            fapswitch 2.2
_symmetry_space_group_name_H-M    P1
_symmetry_Int_Tables_number       1
_space_group_crystal_system       triclinic
_cell_length_a                    15.04278
_cell_length_b                    14.077491
_cell_length_c                    15.064898
_cell_angle_alpha                 89.582555
_cell_angle_beta                  90.829985
_cell_angle_gamma                 90.116507
_cell_volume                      3189.78679068

loop_
_atom_site_label
_atom_site_type_symbol
_atom_site_description
_atom_site_fract_x
_atom_site_fract_y
_atom_site_fract_z
_atom_type_partial_charge
O1    O     O_R   0.369060 0.579480 0.500010 -0.610881
O2    O     O_R   0.630940 0.420520 0.499990 -0.606622
O3    O     O_R   0.630940 0.579480 0.499990 -0.630395
O4    O     O_R   0.369060 0.420520 0.500010 -0.633060
C1    C     C_R   0.328061 0.499911 0.498957 0.869172
C2    C     C_R   0.673114 0.500033 0.499082 0.844331
O5    O     O_R   0.499980 0.579490 0.367850 -0.594363
O6    O     O_R   0.500020 0.420510 0.632150 -0.585747
O7    O     O_R   0.500020 0.579490 0.632150 -0.594100
O8    O     O_R   0.499980 0.420510 0.367850 -0.588994
C3    C     C_R   0.500911 0.500428 0.326513 0.957272
C4    C     C_R   0.500214 0.499892 0.673644 0.954913
Zn1   Zn    Zn3+2 0.500000 0.606140 0.500000 0.952435
Zn2   Zn    Zn3+2 0.500000 0.393860 0.500000 0.965981
C5    C     C_R   0.537774 0.423831 0.816390 0.454829
C6    C     C_R   0.457848 0.574056 0.183734 0.420298
C7    C     C_R   0.498096 0.499491 0.769648 -0.347630
C8    C     C_R   0.501569 0.500936 0.230702 -0.344303
C9    C     C_R   0.455646 0.573873 0.814391 0.406896
C10   C     C_R   0.543000 0.425689 0.186506 0.446702
C11   C     C_R   0.444823 0.567496 0.906606 -0.088718
C12   C     C_R   0.534957 0.419196 0.093981 -0.096079
C13   C     C_R   0.487558 0.492555 0.953821 -0.089326
C14   C     C_R   0.489485 0.492358 0.046689 -0.094086
C15   C     C_R   0.530759 0.419204 0.908348 -0.041140
C16   C     C_R   0.447605 0.566779 0.091977 -0.027164
C17   C     C_R   0.393416 0.634764 0.952473 0.547562
C18   C     C_R   0.571992 0.342073 0.047643 0.561609
C19   C     C_R   0.394620 0.632271 0.045299 -0.310285
C20   C     C_R   0.567497 0.342297 0.955143 -0.294148
H1    H     H_    0.354076 0.681777 0.081352 0.196218
H2    H     H_    0.593579 0.282086 0.919734 0.204938
C21   C     C_R   0.095124 0.549377 0.562893 -0.203982
C22   C     C_R   0.911276 0.420037 0.522203 -0.215190
C23   C     C_R   0.909521 0.581265 0.466376 -0.222801
C24   C     C_R   0.093895 0.453980 0.429161 -0.205636
H3    H     H_    0.058384 0.585553 0.614013 0.145147
H4    H     H_    0.949897 0.358536 0.543043 0.142983
H5    H     H_    0.947188 0.642474 0.443912 0.139710
H6    H     H_    0.055950 0.418967 0.377035 0.140259
C25   C     C_R   0.187261 0.548216 0.565891 0.079017
C26   C     C_R   0.819241 0.417478 0.524285 0.118063
C27   C     C_R   0.817207 0.582240 0.464353 0.134764
C28   C     C_R   0.186008 0.453211 0.428521 0.130495
C29   C     C_R   0.232741 0.499964 0.498035 -0.082278
C30   C     C_R   0.770372 0.499934 0.495823 -0.122028
C31   C     C_R   0.049801 0.501991 0.495496 0.057599
C32   C     C_R   0.954897 0.501306 0.495011 0.057419
C33   C     C_R   0.525964 0.104619 0.423254 0.434266
C34   C     C_R   0.564862 0.895416 0.547625 0.432225
C35   C     C_R   0.475309 0.103390 0.575485 0.432275
C36   C     C_R   0.433807 0.895915 0.451533 0.421391
C37   C     C_R   0.523559 0.205314 0.425288 -0.172790
C38   C     C_R   0.562479 0.795429 0.548201 -0.168038
C39   C     C_R   0.477041 0.203430 0.574494 -0.115381
C40   C     C_R   0.436958 0.795153 0.451859 -0.177877
H7    H     H_    0.540166 0.246109 0.367056 0.215687
H8    H     H_    0.611134 0.755905 0.586921 0.148185
H9    H     H_    0.459200 0.241800 0.633509 0.189412
H10   H     H_    0.389518 0.754231 0.413456 0.178697
N1    N     N_R   0.500000 0.252470 0.500000 -0.140367
N2    N     N_R   0.500000 0.747530 0.500000 -0.123212
C41   C     C_R   0.500054 0.053086 0.499189 -0.004824
C42   C     C_R   0.499696 0.946552 0.499206 0.003582
O9    O     O_3   0.586552 0.355878 0.772301 -0.578729
C43   C     C_3   0.676511 0.384853 0.772209 -0.355909
H11   H     H_    0.686291 0.444253 0.724236 0.151091
H12   H     H_    0.717741 0.323915 0.751648 0.187064
H13   H     H_    0.701449 0.406012 0.839219 0.151026
O10   O     O_3   0.420000 0.649399 0.228354 -0.609263
C44   C     C_3   0.477918 0.728402 0.223275 -0.273809
H14   H     H_    0.542654 0.713445 0.257025 0.174979
H15   H     H_    0.446865 0.789136 0.257428 0.206926
H16   H     H_    0.489554 0.751101 0.153542 0.144256
O11   O     O_3   0.423911 0.651913 0.767229 -0.558854
C45   C     C_3   0.488204 0.725220 0.771934 -0.171132
H17   H     H_    0.498772 0.750141 0.841090 0.138155
H18   H     H_    0.464025 0.786494 0.731700 0.188703
H19   H     H_    0.553024 0.702576 0.744512 0.136866
O12   O     O_3   0.590503 0.357731 0.234244 -0.559480
C46   C     C_3   0.677742 0.391468 0.249837 -0.294411
H20   H     H_    0.707869 0.423451 0.189400 0.140373
H21   H     H_    0.720101 0.330575 0.270431 0.177586
H22   H     H_    0.678896 0.443277 0.304883 0.149858
O13   O     O_3   0.336140 0.694839 0.905099 -0.563501
C47   C     C_3   0.336462 0.788115 0.939171 -0.320751
H23   H     H_    0.403564 0.811271 0.962834 0.141769
H24   H     H_    0.287144 0.794455 0.992928 0.168184
H25   H     H_    0.315785 0.837614 0.885115 0.194661
O14   O     O_3   0.604712 0.263182 0.093337 -0.554754
C48   C     C_3   0.692795 0.243231 0.068121 -0.332248
H26   H     H_    0.733524 0.308732 0.059006 0.136767
H27   H     H_    0.693169 0.199584 0.007043 0.167413
H28   H     H_    0.725076 0.200707 0.121793 0.184056
C49   C     C_3   0.233849 0.596019 0.643680 -0.342312
C50   C     C_3   0.239216 0.703398 0.629562 -0.778108
H29   H     H_    0.273348 0.736591 0.687383 0.281116
H30   H     H_    0.277223 0.720512 0.568879 0.258333
H31   H     H_    0.171476 0.734116 0.622919 0.225434
H32   H     H_    0.196887 0.581025 0.705634 0.202238
H33   H     H_    0.301616 0.567261 0.655360 0.228071
C51   C     C_3   0.779113 0.325269 0.558851 -0.365333
C52   C     C_3   0.761311 0.255169 0.483681 -0.838738
H34   H     H_    0.729885 0.189873 0.510807 0.243382
H35   H     H_    0.716178 0.286201 0.432436 0.272618
H36   H     H_    0.824726 0.235305 0.451904 0.236102
H37   H     H_    0.825605 0.290755 0.607236 0.177204
H38   H     H_    0.718553 0.336973 0.597672 0.235910
C53   C     C_3   0.774363 0.671999 0.426018 -0.367422
C54   C     C_3   0.731595 0.654985 0.334930 -0.860599
H39   H     H_    0.674317 0.605996 0.339424 0.260103
H40   H     H_    0.707396 0.723508 0.306871 0.236877
H41   H     H_    0.781056 0.624734 0.289012 0.245554
H42   H     H_    0.726975 0.704018 0.472573 0.217160
H43   H     H_    0.825015 0.728738 0.416677 0.178824
C55   C     C_3   0.231313 0.406643 0.350695 -0.445871
C56   C     C_3   0.263882 0.481049 0.284570 -0.791332
H44   H     H_    0.310408 0.531363 0.317317 0.275511
H45   H     H_    0.298826 0.445515 0.229562 0.246271
H46   H     H_    0.206678 0.521536 0.256360 0.255752
H47   H     H_    0.287089 0.360725 0.373187 0.238115
H48   H     H_    0.184307 0.358768 0.314927 0.202691
O15   O     O_3   0.547386 0.054644 0.347223 -0.573966
C57   C     C_3   0.625026 0.091271 0.307818 -0.326465
H49   H     H_    0.677617 0.109252 0.357839 0.133031
H50   H     H_    0.608972 0.153783 0.265141 0.237327
H51   H     H_    0.652762 0.035943 0.264143 0.188787
O16   O     O_3   0.628182 0.943148 0.597571 -0.572236
C58   C     C_3   0.708383 0.944383 0.550246 -0.347790
H52   H     H_    0.699436 0.977352 0.483203 0.164734
H53   H     H_    0.736490 0.871616 0.544512 0.147485
H54   H     H_    0.757501 0.988186 0.587409 0.196222
O17   O     O_3   0.453767 0.055000 0.652359 -0.568897
C59   C     C_3   0.360420 0.049252 0.657174 -0.337873
H55   H     H_    0.331382 0.011888 0.598635 0.165089
H56   H     H_    0.330227 0.120923 0.663748 0.159416
H57   H     H_    0.343022 0.007373 0.717141 0.192651
O18   O     O_3   0.371474 0.946982 0.401691 -0.573322
C60   C     C_3   0.285201 0.908825 0.410884 -0.346314
H58   H     H_    0.270943 0.887312 0.480598 0.140979
H59   H     H_    0.274850 0.848318 0.364959 0.178112
H60   H     H_    0.236290 0.964451 0.391789 0.195698

loop_
_geom_bond_atom_site_label_1
_geom_bond_atom_site_label_2
_geom_bond_distance
_ccdc_geom_bond_type
C43   H12   1.108202 S    
C3    C8    1.443524 S    
C33   C41   1.409439 A    
C39   H9    1.081077 S    
C17   C19   1.398456 A    
C34   C42   1.409153 A    
C49   C50   1.527114 S    
C22   C26   1.385649 A    
C45   H19   1.112605 S    
O3    C2    1.287199 A    
O16   C58   1.410232 S    
C59   H57   1.109356 S    
C46   H20   1.114560 S    
O18   C60   1.411835 S    
O15   C57   1.412625 S    
O13   C47   1.413308 S    
O5    C3    1.279518 A    
C34   C38   1.407924 A    
C55   H48   1.112143 S    
O1    C1    1.277688 A    
C9    C11   1.403262 A    
C14   C16   1.409087 A    
C56   H45   1.110407 S    
C60   H60   1.109159 S    
C47   H24   1.110385 S    
C5    C15   1.391918 A    
C43   H13   1.114225 S    
C33   O15   1.390706 S    
C50   H31   1.110670 S    
C55   C56   1.525251 S    
C24   C31   1.387916 A    
C26   C30   1.434836 A    
C17   O13   1.394002 S    
O7    Zn1   2.023175 S    
C54   H39   1.105054 S    
C37   N1    1.362533 A    
Zn1   N2    1.990416 S    
C50   H30   1.109974 S    
C4    C7    1.447074 S    
C36   O18   1.390798 S    
C13   C14   1.398905 A    
C51   H38   1.102971 S    
O10   C44   1.413713 S    
C23   C27   1.388641 A    
C35   C39   1.408463 A    
O3    Zn1   2.005890 S    
C58   H54   1.109406 S    
C43   H11   1.112188 S    
C11   C17   1.414285 A    
C12   C18   1.414636 A    
O2    C2    1.285581 A    
C23   C32   1.380781 A    
C26   C51   1.522037 S    
C46   H21   1.108924 S    
C6    C16   1.393146 A    
C55   H47   1.107881 S    
C10   O12   1.385973 S    
C24   H6    1.084866 S    
C6    O10   1.387405 S    
C45   H17   1.110879 S    
C36   C42   1.410768 A    
C56   H46   1.110770 S    
C48   H26   1.114796 S    
C44   H15   1.108570 S    
C37   H7    1.077141 S    
C47   H23   1.114513 S    
O12   C46   1.411759 S    
C59   H56   1.112967 S    
C38   N2    1.360177 A    
Zn2   N1    1.990416 S    
C1    C29   1.433746 S    
C21   H3    1.084933 S    
C40   H10   1.080314 S    
C22   H4    1.085567 S    
O1    Zn1   2.004392 S    
C23   H5    1.085071 S    
O11   C45   1.414347 S    
O7    C4    1.279110 A    
C48   H27   1.110229 S    
C31   C32   1.427546 S    
O6    C4    1.284398 A    
C50   H29   1.110270 S    
C35   C41   1.409419 A    
C51   H37   1.112642 S    
C52   H35   1.108545 S    
C60   H59   1.110573 S    
C54   H41   1.110840 S    
C40   N2    1.360263 A    
C53   H42   1.106167 S    
C57   H51   1.109231 S    
C10   C12   1.401015 A    
C11   C13   1.418013 A    
O8    Zn2   2.023175 S    
O17   C59   1.409253 S    
C21   C31   1.388770 A    
C12   C14   1.419252 A    
C24   C28   1.385874 A    
C34   O16   1.381639 S    
C46   H22   1.108261 S    
C28   C29   1.418058 A    
C57   H50   1.110954 S    
C58   H52   1.114951 S    
C38   H8    1.081697 S    
C15   C20   1.398058 A    
C5    C7    1.402150 A    
O6    Zn2   2.028547 S    
C2    C30   1.464570 S    
C49   H32   1.111976 S    
C45   H18   1.109508 S    
O4    C1    1.277484 A    
C47   H25   1.109383 S    
C44   H16   1.111998 S    
C60   H58   1.114587 S    
C59   H55   1.113489 S    
C21   C25   1.386199 A    
C9    O11   1.385836 S    
C44   H14   1.111791 S    
C19   H1    1.081440 S    
C53   C54   1.527383 S    
C48   H28   1.109367 S    
C20   H2    1.082101 S    
C35   O17   1.381571 S    
O14   C48   1.412987 S    
C25   C49   1.517593 S    
C33   C37   1.418625 A    
C39   N1    1.361717 A    
C18   C20   1.394148 A    
C7    C9    1.408550 A    
C52   H36   1.110696 S    
C8    C10   1.406698 A    
C13   C15   1.408471 A    
O4    Zn2   2.005891 S    
C51   C52   1.527859 S    
O2    Zn2   2.004390 S    
C27   C30   1.435962 A    
C54   H40   1.110295 S    
O8    C3    1.282069 A    
C53   H43   1.112359 S    
C41   C42   1.499731 S    
C49   H33   1.108834 S    
O5    Zn1   2.028547 S    
C22   C32   1.380277 A    
C28   C55   1.518216 S    
C16   C19   1.398962 A    
C6    C8    1.404066 A    
O9    C43   1.412599 S    
C52   H34   1.110735 S    
C25   C29   1.416572 A    
C18   O14   1.389529 S    
C27   C53   1.525590 S    
C56   H44   1.108129 S    
C36   C40   1.419341 A    
C57   H49   1.114669 S    
C58   H53   1.113413 S    
C5    O9    1.385958 S    
