data_mof_unit_51365.cif
_audit_creation_date              2012-12-10T20:26:24-0500
_audit_creation_method            fapswitch 2.2
_symmetry_space_group_name_H-M    P1
_symmetry_Int_Tables_number       1
_space_group_crystal_system       triclinic
_cell_length_a                    10.737863
_cell_length_b                    10.685925
_cell_length_c                    9.862962
_cell_angle_alpha                 90.208631
_cell_angle_beta                  89.905336
_cell_angle_gamma                 90.182367
_cell_volume                      1131.70094029

loop_
_atom_site_label
_atom_site_type_symbol
_atom_type_description
_atom_site_fract_x
_atom_site_fract_y
_atom_site_fract_z
_atom_type_partial_charge
C1    C     C_R   0.496405 0.260257 0.499858 0.887118
C2    C     C_R   0.481639 0.128842 0.500706 -0.129099
C3    C     C_R   0.445710 0.064248 0.383080 -0.231607
C4    C     C_R   0.445827 0.934622 0.383470 -0.229077
C5    C     C_R   0.480774 0.871336 0.501921 -0.081578
C6    C     C_R   0.495072 0.936942 0.622937 0.035607
C7    C     C_3   0.589924 0.927140 0.733915 -0.576062
C8    C     C_3   0.594776 0.069830 0.731810 0.357571
C9    C     C_R   0.454144 0.399676 0.070781 0.162212
C10   C     C_R   0.556528 0.593163 0.072256 -0.134257
C11   C     C_R   0.556819 0.592969 0.928258 -0.146624
C12   C     C_R   0.262631 0.495539 0.499998 0.932561
C13   C     C_R   0.453852 0.399915 0.928319 0.214974
C14   C     C_3   0.324496 0.349561 0.921646 0.258352
C15   C     C_3   0.324742 0.348928 0.076342 -0.602094
C16   C     C_R   0.497204 0.739946 0.500277 0.882455
C17   C     C_R   0.737445 0.501304 0.499847 0.929782
C18   C     C_2   0.932917 0.481461 0.386903 -0.166489
C19   C     C_2   0.869264 0.508669 0.499461 -0.327620
C20   C     C_2   0.066853 0.489150 0.385572 -0.160844
C21   C     C_2   0.131428 0.478803 0.500406 -0.334263
C22   C     C_R   0.498493 0.064196 0.621067 0.057232
H1    H     H_    0.886499 0.456853 0.292614 0.172628
H2    H     H_    0.600213 0.669539 0.126711 0.149953
H3    H     H_    0.601259 0.668757 0.874208 0.152799
H4    H     H_    0.258526 0.416936 0.874339 0.084627
H5    H     H_    0.257700 0.416445 0.121052 0.179661
H6    H     H_    0.321606 0.253745 0.121247 0.212769
H7    H     H_    0.912700 0.540025 0.592775 0.147340
H8    H     H_    0.112006 0.504926 0.288516 0.164342
H9    H     H_    0.089025 0.454835 0.596790 0.140050
H10   H     H_    0.424778 0.112883 0.289786 0.171499
H11   H     H_    0.425386 0.884889 0.290167 0.170248
H12   H     H_    0.548163 0.890047 0.828848 0.177338
H13   H     H_    0.676956 0.879334 0.701862 0.204875
H14   H     H_    0.555638 0.111477 0.826066 0.151067
N1    N     N_R   0.499170 0.499140 0.142800 -0.102891
N2    N     N_R   0.499170 0.499180 0.857150 -0.136407
O1    O     O_R   0.500020 0.316790 0.614690 -0.581920
O2    O     O_R   0.500000 0.316760 0.385350 -0.628650
O3    O     O_R   0.319080 0.500020 0.614640 -0.631136
O4    O     O_R   0.319070 0.499980 0.385300 -0.615785
O5    O     O_R   0.500000 0.683240 0.614650 -0.617889
O6    O     O_R   0.499980 0.683210 0.385310 -0.633341
O7    O     O_R   0.680930 0.500020 0.614700 -0.610784
O8    O     O_R   0.680920 0.499980 0.385360 -0.618521
Zn1   Zn    Zn3+2 0.500010 0.500020 0.653130 0.968432
Zn2   Zn    Zn3+2 0.499990 0.499980 0.346870 0.939865
O9    O     O_3   0.714382 0.122101 0.702009 -0.596449
C23   C     C_3   0.761574 0.096935 0.570294 0.149761
H15   H     H_    0.736546 0.174968 0.501709 0.141747
H16   H     H_    0.727588 0.007740 0.525361 0.134202
C24   C     C_3   0.902862 0.090630 0.576684 -0.848357
H17   H     H_    0.931309 0.010656 0.640946 0.247974
H18   H     H_    0.941543 0.077135 0.473187 0.211815
H19   H     H_    0.941116 0.178825 0.619979 0.261034
O10   O     O_3   0.324732 0.228202 0.864607 -0.599559
C25   C     C_3   0.200986 0.185430 0.850679 0.116163
H20   H     H_    0.148738 0.244936 0.777948 0.135301
H21   H     H_    0.152137 0.185322 0.950393 0.144473
C26   C     C_3   0.202131 0.052059 0.796386 -0.828602
H22   H     H_    0.262855 0.992545 0.860271 0.254948
H23   H     H_    0.106352 0.012897 0.797979 0.209811
H24   H     H_    0.237192 0.050896 0.690472 0.257319

loop_
_geom_bond_atom_site_label_1
_geom_bond_atom_site_label_2
_ccdc_geom_bond_type
C2    C22   A    
C11   N2    A    
C8    C22   S    
C6    C7    S    
C26   H24   S    
C16   O6    A    
C15   H5    S    
C20   C21   D    
C25   C26   S    
N2    Zn1   S    
C2    C3    A    
C15   H6    S    
C7    C8    S    
C20   H8    S    
C24   H17   S    
C14   H4    S    
N1    Zn2   S    
C21   H9    S    
C16   O5    A    
O10   C25   S    
C3    H10   S    
C7    H13   S    
C10   N1    A    
C5    C6    A    
C12   C21   S    
C9    N1    A    
C17   C19   S    
C17   O7    A    
C23   H15   S    
O4    Zn2   S    
C18   C20   S    
C24   H18   S    
O3    Zn1   S    
C26   H22   S    
O9    C23   S    
O8    Zn2   S    
C24   H19   S    
C23   C24   S    
C10   C11   A    
C1    O1    A    
C25   H21   S    
C18   H1    S    
C6    C22   A    
O6    Zn2   S    
C7    H12   S    
C9    C13   A    
C17   O8    A    
C12   O3    A    
O1    Zn1   S    
C1    C2    S    
C8    H14   S    
O7    Zn1   S    
C23   H16   S    
O2    Zn2   S    
C14   O10   S    
C11   H3    S    
C14   C15   S    
C18   C19   D    
C5    C16   S    
C12   O4    A    
C4    H11   S    
C1    O2    A    
C10   H2    S    
C25   H20   S    
C13   C14   S    
O5    Zn1   S    
C8    O9    S    
C26   H23   S    
C13   N2    A    
C3    C4    A    
C9    C15   S    
C4    C5    A    
C19   H7    S    
