data_mof_unit_32507.cif
_audit_creation_date              2012-12-11T16:29:23-0500
_audit_creation_method            fapswitch 2.2
_symmetry_space_group_name_H-M    P1
_symmetry_Int_Tables_number       1
_space_group_crystal_system       triclinic
_cell_length_a                    6.951386
_cell_length_b                    17.468551
_cell_length_c                    18.648279
_cell_angle_alpha                 106.066261
_cell_angle_beta                  88.865271
_cell_angle_gamma                 89.913071
_cell_volume                      2175.5429062

loop_
_atom_site_label
_atom_site_type_symbol
_atom_type_description
_atom_site_fract_x
_atom_site_fract_y
_atom_site_fract_z
_atom_type_partial_charge
O1    O     O_R   0.494360 0.415680 0.413760 -0.488155
O2    O     O_R   0.818810 0.432910 0.557230 -0.517624
O3    O     O_R   0.994290 0.584320 0.586240 -0.545116
C1    C     C_R   0.649496 0.415859 0.580530 0.685526
O4    O     O_R   0.823740 0.406440 0.412520 -0.538432
O5    O     O_R   0.999250 0.557660 0.440500 -0.516346
C2    C     C_R   0.658353 0.383736 0.384047 0.802653
O6    O     O_R   0.489400 0.442340 0.559500 -0.522576
O7    O     O_3   0.662500 0.549650 0.509350 -0.359228
V1    V     V_3+5 0.935340 0.490790 0.498270 1.587537
O8    O     O_R   0.329270 0.567090 0.442770 -0.484794
C3    C     C_R   0.160978 0.585041 0.420307 0.779808
O9    O     O_R   0.324340 0.593560 0.587480 -0.548035
C4    C     C_R   0.153813 0.615001 0.616201 0.671822
V2    V     V_3+5 0.435970 0.509210 0.501730 1.615750
O10   O     O_3   0.158940 0.450350 0.490650 -0.337738
C5    C     C_R   0.170705 0.593443 0.770270 -0.058503
C6    C     C_R   0.192893 0.585847 0.842370 -0.165744
C7    C     C_R   0.195096 0.652360 0.903539 -0.007737
C8    C     C_R   0.171757 0.727697 0.893680 -0.169687
C9    C     C_R   0.150249 0.738956 0.821815 0.060989
C10   C     C_R   0.153711 0.670920 0.757842 0.019402
C11   C     C_R   0.126455 0.817346 0.814389 -0.157874
C12   C     C_R   0.115008 0.829817 0.741723 0.017706
C13   C     C_R   0.118670 0.761695 0.677841 0.064552
C14   C     C_R   0.139684 0.683118 0.685326 -0.163774
C15   C     C_R   0.102603 0.907626 0.729328 -0.101610
C16   C     C_R   0.087957 0.915626 0.656230 -0.077538
C17   C     C_R   0.085882 0.848011 0.595073 -0.043880
C18   C     C_R   0.102015 0.772830 0.605911 -0.181004
H1    H     H_    0.207582 0.527192 0.851109 0.136411
H2    H     H_    0.172529 0.777486 0.943427 0.075962
H3    H     H_    0.101462 0.722717 0.556420 0.079710
C19   C     C_1   0.110294 0.862278 0.131159 -0.086918
C20   C     C_1   0.117151 0.819472 0.174560 0.074430
C21   C     C_1   0.126768 0.769646 0.226804 0.066080
C22   C     C_1   0.135301 0.727957 0.271149 0.115040
C23   C     C_1   0.145285 0.678603 0.323790 0.146031
C24   C     C_1   0.153107 0.636643 0.367906 -0.081561
C25   C     C_1   0.640546 0.363658 0.632289 -0.151038
C26   C     C_1   0.636715 0.320827 0.675669 0.038203
C27   C     C_1   0.634055 0.270389 0.727384 0.044486
C28   C     C_1   0.632144 0.227974 0.771150 0.043435
C29   C     C_1   0.629286 0.177757 0.823057 0.048438
C30   C     C_1   0.625136 0.135277 0.866746 -0.099755
C31   C     C_R   0.664348 0.402693 0.226321 0.240795
C32   C     C_R   0.720691 0.402378 0.152684 0.443380
C33   C     C_R   0.674958 0.336332 0.094264 -0.265853
C34   C     C_R   0.575471 0.274029 0.110434 0.252390
C35   C     C_R   0.608829 0.259890 0.180097 -0.027226
C36   C     C_R   0.640796 0.327112 0.242174 -0.100057
C37   C     C_R   0.603330 0.181492 0.187821 -0.079887
C38   C     C_R   0.616988 0.169929 0.260688 -0.025454
C39   C     C_R   0.677119 0.235362 0.320955 -0.011298
C40   C     C_R   0.659494 0.315143 0.314791 -0.108324
C41   C     C_R   0.574549 0.096232 0.277488 0.399040
C42   C     C_R   0.625490 0.085073 0.345831 -0.169140
C43   C     C_R   0.718270 0.143549 0.398452 -0.089069
C44   C     C_R   0.752923 0.217517 0.385495 -0.133965
H4    H     H_    0.676837 0.341744 0.037758 0.185032
H5    H     H_    0.595649 0.029268 0.358372 0.164813
O11   O     O_R   0.775690 0.057750 0.940570 -0.530443
O12   O     O_R   0.441200 0.093570 0.087490 -0.460473
O13   O     O_R   0.265840 0.942320 0.059480 -0.484344
C45   C     C_R   0.606072 0.113443 0.117939 0.831644
O14   O     O_R   0.446270 0.067110 0.942790 -0.497662
O15   O     O_R   0.270950 0.915660 0.913750 -0.554314
C46   C     C_R   0.615690 0.083676 0.919059 0.716795
O16   O     O_R   0.770580 0.084400 0.086300 -0.533573
O17   O     O_3   0.602640 0.950400 0.990690 -0.377142
V3    V     V_3+5 0.329740 0.009200 0.001730 1.741307
O18   O     O_R   0.940900 0.906360 0.912450 -0.550532
C47   C     C_R   0.111548 0.884959 0.883805 0.658643
O19   O     O_R   0.935830 0.932820 0.057160 -0.532566
C48   C     C_R   0.103626 0.915026 0.079763 0.771486
V4    V     V_3+5 0.829130 0.990680 0.998180 1.581248
O20   O     O_3   0.106100 0.049590 0.009310 -0.316336
C49   C     C_1   0.069585 0.854334 0.519668 0.305502
N1    N     N_1   0.056508 0.859457 0.459394 -0.333221
S1    S     S_3+6 0.530916 0.486689 0.278791 0.054099
O21   O     O_2   0.642971 0.531199 0.345237 -0.326033
O22   O     O_2   0.481941 0.543414 0.234273 -0.266922
O23   O     O_3   0.322225 0.452927 0.305071 -0.513611
H6    H     H_    0.255023 0.428564 0.257941 0.360712
S2    S     S_3+6 0.814653 0.486759 0.129312 0.104382
O24   O     O_2   0.655176 0.529986 0.103151 -0.287129
O25   O     O_2   0.908652 0.541725 0.195736 -0.290590
O26   O     O_3   0.976650 0.457015 0.058996 -0.482701
H7    H     H_    0.012553 0.506118 0.045440 0.374658
S3    S     S_3+6 0.337510 0.263888 0.077041 0.023437
O27   O     O_2   0.336186 0.222181 0.995113 -0.347427
O28   O     O_2   0.212061 0.220051 0.118804 -0.294258
O29   O     O_3   0.244264 0.355661 0.090621 -0.454625
H8    H     H_    0.308029 0.377116 0.052386 0.372303
S4    S     S_3+6 0.423698 0.021581 0.224865 -0.041288
O30   O     O_2   0.256344 0.059580 0.197757 -0.324973
O31   O     O_2   0.537961 0.969400 0.160461 -0.382917
O32   O     O_3   0.335316 0.964879 0.277478 -0.505534
H9    H     H_    0.427100 0.919787 0.270155 0.339670
C50   C     C_1   0.906485 0.262698 0.428215 0.319539
N2    N     N_1   0.033231 0.295572 0.462599 -0.290892
C51   C     C_1   0.160588 0.518714 0.712727 0.247671
N3    N     N_1   0.152180 0.458195 0.667567 -0.322856
C52   C     C_1   0.220712 0.643405 0.977311 0.300486
N4    N     N_1   0.241694 0.636401 0.036587 -0.282543
C53   C     C_1   0.110809 0.981387 0.788866 0.234631
N5    N     N_1   0.117440 0.041055 0.835263 -0.307289
C54   C     C_1   0.077759 0.994025 0.643656 0.332705
N6    N     N_1   0.070235 0.056566 0.633941 -0.288675
C55   C     C_1   0.777369 0.125943 0.466246 0.359511
N7    N     N_1   0.824149 0.111963 0.520493 -0.294037

loop_
_geom_bond_atom_site_label_1
_geom_bond_atom_site_label_2
_ccdc_geom_bond_type
C41   S4    S    
O14   C46   A    
O12   C45   A    
O29   H8    S    
S4    O30   D    
C26   C27   S    
C7    C8    A    
C12   C15   A    
C2    C40   S    
C34   S3    S    
C1    O6    A    
S3    O27   D    
S4    O32   S    
C38   C39   A    
C41   C42   A    
C16   C17   A    
C22   C23   S    
O19   V4    S    
C32   S2    S    
C21   C22   T    
C6    C7    A    
O5    C3    A    
C23   C24   T    
S2    O26   S    
C53   N5    T    
V2    O10   S    
C54   N6    T    
O16   V4    S    
C19   C20   T    
O13   V3    S    
C55   N7    T    
C31   C32   A    
O8    V2    S    
C17   C49   S    
O23   H6    S    
C35   C37   A    
C11   C12   A    
O17   V3    S    
O15   C47   A    
O7    V1    S    
C36   C40   A    
C5    C51   S    
O18   V4    S    
C19   C48   S    
O26   H7    S    
O1    C2    A    
O9    C4    A    
C44   C50   S    
O11   V4    S    
C11   C47   S    
S1    O23   S    
C52   N4    T    
C33   H4    S    
C39   C44   A    
S2    O25   D    
O19   C48   A    
C32   C33   A    
C1    C25   S    
V4    O20   S    
S1    O22   D    
O4    C2    A    
C49   N1    T    
S1    O21   D    
C15   C53   S    
C35   C36   A    
C43   C44   A    
S2    O24   D    
C31   C36   A    
C4    C14   S    
C20   C21   S    
O2    C1    A    
C28   C29   S    
C17   C18   A    
C7    C52   S    
S3    O28   D    
O14   V3    S    
C30   C46   S    
C5    C6    A    
C12   C13   A    
O3    C4    A    
O1    V2    S    
C25   C26   T    
O12   V3    S    
O32   H9    S    
O6    V2    S    
C9    C11   A    
O17   V4    S    
C27   C28   T    
O2    V1    S    
V3    O20   S    
C37   C38   A    
S3    O29   S    
C8    H2    S    
C38   C41   A    
C13   C18   A    
C39   C40   A    
C33   C34   A    
C18   H3    S    
C43   C55   S    
C29   C30   T    
O18   C47   A    
O5    V1    S    
O8    C3    A    
S4    O31   D    
C42   H5    S    
C5    C10   A    
O11   C46   A    
C3    C24   S    
O9    V2    S    
C13   C14   A    
O4    V1    S    
O3    V1    S    
V1    O10   S    
C31   S1    S    
C42   C43   A    
C16   C54   S    
C45   O16   A    
C50   N2    T    
O13   C48   A    
O15   V3    S    
O7    V2    S    
C51   N3    T    
C8    C9    A    
C34   C35   A    
C10   C14   A    
C15   C16   A    
C6    H1    S    
C9    C10   A    
C37   C45   S    
