data_mof_unit_23314.cif
_audit_creation_date              2012-12-10T17:14:40-0500
_audit_creation_method            fapswitch 2.2
_symmetry_space_group_name_H-M    P1
_symmetry_Int_Tables_number       1
_space_group_crystal_system       triclinic
_cell_length_a                    10.629282
_cell_length_b                    12.970679
_cell_length_c                    11.671329
_cell_angle_alpha                 99.85669
_cell_angle_beta                  93.795654
_cell_angle_gamma                 90.798711
_cell_volume                      1581.36210806

loop_
_atom_site_label
_atom_site_type_symbol
_atom_type_description
_atom_site_fract_x
_atom_site_fract_y
_atom_site_fract_z
_atom_type_partial_charge
C1    C     C_R   0.499034 0.299101 0.478602 0.793876
C2    C     C_R   0.500966 0.700899 0.521398 0.793876
C3    C     C_R   0.484956 0.138925 0.563922 -0.271686
C4    C     C_R   0.515044 0.861075 0.436078 -0.271684
C5    C     C_R   0.489477 0.030941 0.554370 0.175375
C6    C     C_R   0.510523 0.969059 0.445630 0.175375
C7    C     C_R   0.387002 0.393371 0.021157 -0.012560
C8    C     C_R   0.612998 0.606629 0.978843 -0.012560
C9    C     C_R   0.397973 0.406326 0.144594 0.095437
C10   C     C_R   0.602027 0.593674 0.855406 0.095436
C11   C     C_R   0.546970 0.545661 0.157820 -0.001687
C12   C     C_R   0.453030 0.454339 0.842180 -0.001688
C13   C     C_R   0.540605 0.538674 0.034551 -0.006660
C14   C     C_R   0.459395 0.461326 0.965449 -0.006661
C15   C     C_R   0.259479 0.497477 0.499913 0.831160
C16   C     C_R   0.740521 0.502522 0.500086 0.831161
C17   C     C_3   0.045123 0.440877 0.578977 -0.314762
C18   C     C_3   0.954877 0.559122 0.421023 -0.314752
C19   C     C_3   0.952548 0.401979 0.471273 0.008500
C20   C     C_3   0.047451 0.598021 0.528727 0.008505
C21   C     C_3   0.876713 0.502162 0.499672 -0.117165
C22   C     C_3   0.123287 0.497838 0.500328 -0.117165
C23   C     C_3   0.968639 0.541221 0.605257 0.450751
C24   C     C_3   0.031361 0.458778 0.394743 0.450753
C25   C     C_R   0.498814 0.814208 0.533672 -0.047476
C26   C     C_R   0.501186 0.185792 0.466328 -0.047477
C27   C     C_R   0.526471 0.016077 0.348121 -0.220559
C28   C     C_R   0.473529 0.983923 0.651879 -0.220559
C29   C     C_R   0.521535 0.124190 0.358374 -0.203032
C30   C     C_R   0.478465 0.875809 0.641626 -0.203033
Cu1   Cu    Cu3+1 0.509400 0.507730 0.615930 0.939163
Cu2   Cu    Cu3+1 0.490600 0.492270 0.384070 0.939164
H1    H     H_    0.083938 0.394223 0.643881 0.149767
H2    H     H_    0.916062 0.605776 0.356119 0.149768
H3    H     H_    0.531446 0.813698 0.352641 0.145372
H4    H     H_    0.468554 0.186302 0.647359 0.145372
H5    H     H_    0.465051 0.840426 0.717681 0.153684
H6    H     H_    0.534949 0.159574 0.282319 0.153685
H7    H     H_    0.542929 0.969414 0.264393 0.133139
H8    H     H_    0.457071 0.030586 0.735607 0.133139
H9    H     H_    0.391551 0.397287 0.786186 0.124570
H10   H     H_    0.608449 0.602713 0.213814 0.124570
H11   H     H_    0.655398 0.642927 0.809540 0.145222
H12   H     H_    0.344602 0.357073 0.190460 0.145222
N1    N     N_R   0.523540 0.519360 0.790140 -0.197120
N2    N     N_R   0.476460 0.480640 0.209860 -0.197120
O1    O     O_R   0.506670 0.354460 0.582000 -0.591799
O2    O     O_R   0.493330 0.645540 0.418000 -0.591799
O3    O     O_R   0.490800 0.341410 0.386200 -0.598875
O4    O     O_R   0.509200 0.658590 0.613800 -0.598875
O5    O     O_R   0.324790 0.506500 0.597880 -0.602639
O6    O     O_R   0.675210 0.493500 0.402120 -0.602639
O7    O     O_R   0.308910 0.493440 0.402080 -0.541431
O8    O     O_R   0.691090 0.506560 0.597920 -0.541432
C31   C     C_3   0.891981 0.292346 0.437927 -0.387975
C32   C     C_3   0.991550 0.207792 0.421750 -0.325271
C33   C     C_3   0.929736 0.098736 0.390518 -0.850142
H13   H     H_    0.870402 0.083303 0.460937 0.259736
H14   H     H_    0.870087 0.091558 0.307552 0.254425
H15   H     H_    0.003781 0.038960 0.379628 0.244601
H16   H     H_    0.051949 0.220548 0.351006 0.242053
H17   H     H_    0.052517 0.212052 0.503664 0.215292
H18   H     H_    0.831127 0.278734 0.508047 0.200075
H19   H     H_    0.831477 0.288659 0.355857 0.194118
C34   C     C_3   0.108017 0.707653 0.562076 -0.387966
C35   C     C_3   0.008447 0.792207 0.578245 -0.325286
C36   C     C_3   0.070258 0.901262 0.609492 -0.850142
H20   H     H_    0.129919 0.908428 0.692451 0.254431
H21   H     H_    0.129581 0.916708 0.539070 0.259732
H22   H     H_    0.996211 0.961036 0.620400 0.244603
H23   H     H_    0.947495 0.787953 0.496326 0.215292
H24   H     H_    0.948037 0.779445 0.648978 0.242063
H25   H     H_    0.168515 0.711340 0.644150 0.194120
H26   H     H_    0.168878 0.721267 0.491961 0.200072
O9    O     O_3   0.931361 0.585165 0.715324 -0.747330
H27   H     H_    0.010737 0.601513 0.765100 0.312957
O10   O     O_3   0.068639 0.414835 0.284675 -0.747330
H28   H     H_    0.989262 0.398474 0.234905 0.312956
C37   C     C_3   0.300616 0.308387 0.947979 -0.440992
C38   C     C_3   0.229312 0.236916 0.015529 -0.348190
C39   C     C_3   0.148792 0.154151 0.932489 -0.844461
H29   H     H_    0.078045 0.192018 0.880007 0.255803
H30   H     H_    0.209159 0.103911 0.872957 0.248363
H31   H     H_    0.098209 0.103887 0.983453 0.242975
H32   H     H_    0.297685 0.196266 0.067532 0.212187
H33   H     H_    0.166244 0.284332 0.074974 0.244371
H34   H     H_    0.229754 0.346956 0.896172 0.204039
H35   H     H_    0.358970 0.257862 0.886559 0.194790
C40   C     C_3   0.699384 0.691613 0.052020 -0.440995
C41   C     C_3   0.770688 0.763083 0.984471 -0.348186
C42   C     C_3   0.851208 0.845849 0.067511 -0.844460
H36   H     H_    0.790842 0.896089 0.127043 0.248361
H37   H     H_    0.921955 0.807982 0.119993 0.255803
H38   H     H_    0.901792 0.896113 0.016547 0.242976
H39   H     H_    0.833757 0.715668 0.925026 0.244372
H40   H     H_    0.702315 0.803734 0.932467 0.212187
H41   H     H_    0.641030 0.742137 0.113441 0.194790
H42   H     H_    0.770246 0.653044 0.103828 0.204039

loop_
_geom_bond_atom_site_label_1
_geom_bond_atom_site_label_2
_ccdc_geom_bond_type
C31   C32   S    
C16   C21   S    
C27   C29   A    
C18   C21   S    
C37   H34   S    
C4    C25   A    
C33   H13   S    
C41   H39   S    
O10   H28   S    
C38   H32   S    
C18   C24   S    
C15   O7    A    
C19   C21   S    
C5    C6    A    
C38   C39   S    
C33   H14   S    
C28   H8    S    
C34   H25   S    
C32   C33   S    
C11   H10   S    
Cu2   O6    S    
C38   H33   S    
C2    O4    A    
C15   C22   S    
C35   H24   S    
Cu1   Cu2   S    
C27   H7    S    
C31   H18   S    
C29   H6    S    
C15   O5    A    
C18   C20   S    
C6    C27   A    
C35   C36   S    
C4    H3    S    
C9    N2    A    
Cu1   O1    S    
C13   C14   A    
Cu2   O2    S    
C17   H1    S    
C37   H35   S    
C39   H30   S    
C39   H29   S    
C7    C14   A    
C36   H20   S    
C20   C34   S    
C4    C6    A    
C23   O9    S    
C42   H36   S    
C1    O1    A    
C33   H15   S    
C2    O2    A    
C34   H26   S    
C30   H5    S    
C40   H41   S    
C36   H21   S    
O9    H27   S    
C12   H9    S    
Cu1   O5    S    
C42   H37   S    
C5    C28   A    
C35   H23   S    
C20   C23   S    
C31   H19   S    
C10   N1    A    
C17   C23   S    
C18   H2    S    
C20   C22   S    
C21   C23   S    
C1    C26   S    
C22   C24   S    
Cu1   O4    S    
Cu2   O7    S    
C39   H31   S    
C7    C37   S    
C19   C31   S    
C25   C30   A    
C7    C9    A    
C9    H12   S    
C10   H11   S    
Cu2   N2    S    
C3    C26   A    
C16   O6    A    
C12   C14   A    
C12   N1    A    
C3    C5    A    
C41   H40   S    
C17   C22   S    
C40   H42   S    
C36   H22   S    
C28   C30   A    
C19   C24   S    
C42   H38   S    
C11   C13   A    
C41   C42   S    
C3    H4    S    
C17   C19   S    
C2    C25   S    
C32   H17   S    
Cu1   O8    S    
C16   O8    A    
Cu2   O3    S    
C37   C38   S    
C8    C13   A    
C24   O10   S    
C26   C29   A    
C8    C10   A    
C34   C35   S    
Cu1   N1    S    
C32   H16   S    
C11   N2    A    
C8    C40   S    
C40   C41   S    
C1    O3    A    
