data_mof_unit_14900.cif
_audit_creation_date              2013-03-05T16:34:52-0500
_audit_creation_method            fapswitch 2.2
_symmetry_space_group_name_H-M    P1
_symmetry_Int_Tables_number       1
_space_group_crystal_system       triclinic
_cell_length_a                    15.095615
_cell_length_b                    9.096511
_cell_length_c                    7.78305
_cell_angle_alpha                 89.993807
_cell_angle_beta                  90.021838
_cell_angle_gamma                 89.999042
_cell_volume                      1068.74832319

loop_
_atom_site_label
_atom_site_type_symbol
_atom_site_description
_atom_site_fract_x
_atom_site_fract_y
_atom_site_fract_z
_atom_type_partial_charge
O1    O     O_R   0.500000 0.288390 0.642760 -0.574191
O2    O     O_R   0.500000 0.711610 0.357240 -0.574191
O3    O     O_R   0.500000 0.711610 0.642760 -0.578509
O4    O     O_R   0.500000 0.288390 0.357240 -0.578509
C1    C     C_R   0.500000 0.220010 0.500005 0.847640
C2    C     C_R   0.500000 0.779989 0.499995 0.847640
O5    O     O_R   0.370260 0.500000 0.642800 -0.583125
O6    O     O_R   0.629740 0.500000 0.357200 -0.583125
O7    O     O_R   0.629740 0.500000 0.642800 -0.586011
O8    O     O_R   0.370260 0.500000 0.357200 -0.586012
C3    C     C_R   0.328225 0.500304 0.499949 0.800430
C4    C     C_R   0.671775 0.499695 0.500051 0.800430
Cu1   Cu    Cu3+1 0.500000 0.500000 0.669080 1.015135
Cu2   Cu    Cu3+1 0.500000 0.500000 0.330920 1.015135
N1    N     N_1   0.500000 0.500000 0.076820 -0.045683
N2    N     N_1   0.500000 0.500000 0.923180 -0.045683
C5    C     C_R   0.814385 0.544141 0.646327 -0.134855
C6    C     C_R   0.185614 0.455860 0.353672 -0.134858
C7    C     C_R   0.814399 0.450557 0.355120 -0.175816
C8    C     C_R   0.185601 0.549441 0.644879 -0.175818
C9    C     C_R   0.768402 0.498138 0.500428 -0.114208
C10   C     C_R   0.231598 0.501862 0.499572 -0.114207
C11   C     C_R   0.907122 0.444362 0.355067 -0.000547
C12   C     C_R   0.092878 0.555637 0.644932 -0.000545
C13   C     C_R   0.906916 0.547768 0.647244 0.040810
C14   C     C_R   0.093084 0.452232 0.352754 0.040806
C15   C     C_R   0.953593 0.498072 0.500528 -0.073955
C16   C     C_R   0.046407 0.501927 0.499470 -0.073955
C17   C     C_R   0.954243 0.388950 0.211424 0.293073
C18   C     C_R   0.045757 0.611049 0.788572 0.293091
C19   C     C_R   0.952521 0.602684 0.791506 0.410205
C20   C     C_R   0.047478 0.397316 0.208490 0.410203
C21   C     C_1   0.500000 0.065364 0.500007 -0.167638
C22   C     C_1   0.500000 0.934636 0.499993 -0.167638
H1    H     H_    0.777400 0.581226 0.757483 0.205625
H2    H     H_    0.222600 0.418776 0.242516 0.205624
H3    H     H_    0.776851 0.418901 0.242655 0.175539
H4    H     H_    0.223149 0.581096 0.757345 0.175539
O9    O     O_3   0.911432 0.325944 0.072946 -0.731654
H5    H     H_    0.862658 0.263826 0.117197 0.326510
O10   O     O_3   0.088567 0.674055 0.927047 -0.731658
H6    H     H_    0.137343 0.736169 0.882797 0.326511
O11   O     O_3   0.903793 0.651864 0.930996 -0.721733
H7    H     H_    0.943687 0.683401 0.024900 0.372955
O12   O     O_3   0.096207 0.348138 0.068998 -0.721728
H8    H     H_    0.056313 0.316586 0.975098 0.372953

loop_
_geom_bond_atom_site_label_1
_geom_bond_atom_site_label_2
_geom_bond_distance
_ccdc_geom_bond_type
C13   C19   1.408439 A    
C7    C11   1.400841 A    
O11   H7    0.989366 S    
C18   O10   1.381046 S    
C14   C20   1.408452 A    
C7    H3    1.081696 S    
C11   C15   1.418477 A    
C13   C15   1.416149 A    
C8    H4    1.081695 S    
C20   O12   1.385866 S    
C3    C10   1.458710 S    
C14   C16   1.416150 A    
O3    Cu1   1.935760 S    
O6    C4    1.279942 A    
O3    C2    1.273341 A    
C5    C13   1.397215 A    
C17   O9    1.381071 S    
C21   C22   1.189170 T    
O12   H8    0.989380 S    
O5    C3    1.279942 A    
O2    C2    1.273392 A    
C19   O11   1.385853 S    
O1    C1    1.273392 A    
C11   C17   1.417970 A    
C7    C9    1.396128 A    
C8    C10   1.396124 A    
C17   C20   1.409700 A    
C1    C21   1.406744 S    
O4    Cu2   1.935761 S    
C18   C19   1.409701 A    
O2    Cu2   1.935804 S    
O7    C4    1.279671 A    
C12   C18   1.417958 A    
O1    Cu1   1.935805 S    
O8    C3    1.279671 A    
N1    N2    1.195789 T    
C12   C16   1.418474 A    
O5    Cu1   1.969081 S    
O10   H6    0.990033 S    
Cu1   N2    1.977672 S    
O9    H5    0.990044 S    
O7    Cu1   1.969234 S    
Cu2   N1    1.977672 S    
O6    Cu2   1.969079 S    
C5    H1    1.083699 S    
Cu1   Cu2   2.631917 S    
C6    C10   1.394970 A    
C6    H2    1.083699 S    
C4    C9    1.458710 S    
C8    C12   1.400840 A    
C5    C9    1.394967 A    
C2    C22   1.406744 S    
O8    Cu2   1.969236 S    
O4    C1    1.273341 A    
C15   C16   1.401548 A    
C6    C14   1.397214 A    
