data_mof_unit_44589.cif
_audit_creation_date              2012-12-10T17:17:29-0500
_audit_creation_method            fapswitch 2.2
_symmetry_space_group_name_H-M    P1
_symmetry_Int_Tables_number       1
_space_group_crystal_system       triclinic
_cell_length_a                    10.169396
_cell_length_b                    10.836536
_cell_length_c                    12.562852
_cell_angle_alpha                 90.79386
_cell_angle_beta                  109.862627
_cell_angle_gamma                 95.721122
_cell_volume                      1293.90714356

loop_
_atom_site_label
_atom_site_type_symbol
_atom_type_description
_atom_site_fract_x
_atom_site_fract_y
_atom_site_fract_z
_atom_type_partial_charge
C1    C     C_R   0.053465 0.732526 0.495624 0.934421
C2    C     C_R   0.221303 0.576545 0.828421 -0.156718
C3    C     C_2   0.089749 0.865127 0.502765 -0.381458
C4    C     C_R   0.138888 0.531354 0.710515 0.875632
C5    C     C_2   0.009373 0.936446 0.535372 -0.149868
C6    C     C_2   0.927718 0.136910 0.525876 -0.381513
C7    C     C_2   0.031669 0.068404 0.531893 -0.142335
C8    C     C_2   0.430379 0.518429 0.499694 -0.136776
C9    C     C_2   0.567312 0.489030 0.489485 -0.132625
C10   C     C_R   0.950196 0.267908 0.510380 0.958033
C11   C     C_R   0.863962 0.485034 0.287155 0.879969
C12   C     C_R   0.438201 0.561406 0.984902 0.082546
C13   C     C_R   0.784233 0.484569 0.973827 -0.203884
C14   C     C_R   0.788845 0.481769 0.166329 -0.061954
C15   C     C_R   0.156528 0.616891 0.904567 0.206667
C16   C     C_R   0.231050 0.619897 0.020897 -0.145998
C17   C     C_R   0.367151 0.586184 0.060936 -0.249272
C18   C     C_3   0.017519 0.670717 0.864637 -0.894007
C19   C     C_R   0.368512 0.573737 0.868758 0.049983
C20   C     C_R   0.577249 0.528264 0.019584 0.090771
C21   C     C_R   0.648286 0.521017 0.940311 0.177088
C22   C     C_R   0.584874 0.555377 0.830188 -0.253282
C23   C     C_R   0.448491 0.586377 0.796440 -0.170447
C24   C     C_R   0.647519 0.501176 0.130736 -0.260101
C25   C     C_R   0.856477 0.468878 0.087464 -0.199023
H1    H     H_    0.964945 0.449120 0.113617 0.162938
H2    H     H_    0.416729 0.589255 0.151738 0.145577
H3    H     H_    0.183681 0.648073 0.081383 0.147535
H4    H     H_    0.406918 0.623840 0.714278 0.159619
H5    H     H_    0.131721 0.108502 0.526855 0.189170
H6    H     H_    0.319453 0.366608 0.412000 0.161725
H7    H     H_    0.641232 0.559954 0.770835 0.140177
H8    H     H_    0.993058 0.711600 0.936409 0.231335
H9    H     H_    0.021932 0.745806 0.806266 0.240335
H10   H     H_    0.929673 0.599584 0.820097 0.250105
H11   H     H_    0.920039 0.897612 0.557914 0.186676
H12   H     H_    0.827832 0.096369 0.530732 0.149521
H13   H     H_    0.178810 0.904375 0.480210 0.149793
H14   H     H_    0.566697 0.411884 0.433254 0.161189
H15   H     H_    0.429344 0.603000 0.545933 0.148883
H16   H     H_    0.682651 0.627261 0.596264 0.152729
H17   H     H_    0.835537 0.470778 0.912966 0.148305
H18   H     H_    0.594777 0.497574 0.191960 0.158388
N1    N     N_2   0.313640 0.446500 0.454900 -0.192646
N2    N     N_2   0.686360 0.553430 0.545150 -0.198596
O1    O     O_R   0.936910 0.692950 0.509080 -0.610888
O2    O     O_R   0.138320 0.658600 0.480130 -0.621857
O3    O     O_R   0.002900 0.525670 0.675280 -0.606234
O4    O     O_R   0.204310 0.491320 0.646330 -0.608581
O5    O     O_R   0.861680 0.341400 0.519870 -0.608967
O6    O     O_R   0.063090 0.307050 0.490920 -0.608437
O7    O     O_R   0.795690 0.508680 0.353670 -0.615217
O8    O     O_R   0.997100 0.474330 0.324720 -0.612793
Zn1   Zn    Zn3+2 0.865520 0.522940 0.519330 0.929250
Zn2   Zn    Zn3+2 0.134480 0.477060 0.480670 0.935111

loop_
_geom_bond_atom_site_label_1
_geom_bond_atom_site_label_2
_ccdc_geom_bond_type
C12   C17   A    
C6    C10   S    
C15   C18   S    
C19   C23   A    
C16   H3    S    
C6    C7    D    
C18   H10   S    
C2    C4    S    
C11   O8    A    
C4    O4    A    
O1    Zn1   S    
C2    C19   A    
C6    H12   S    
C13   C21   A    
C7    H5    S    
C21   C22   A    
C9    N2    D    
C2    C15   A    
C18   H9    S    
N1    Zn2   S    
C13   C25   A    
O5    Zn1   S    
C22   H7    S    
C12   C20   A    
C10   O6    A    
C23   H4    S    
C12   C19   A    
C13   H17   S    
C11   C14   S    
O7    Zn1   S    
N2    Zn1   S    
O6    Zn2   S    
O8    Zn2   S    
C14   C25   A    
C18   H8    S    
C1    O1    A    
C16   C17   A    
H6    N1    S    
C15   C16   A    
C10   O5    A    
C5    H11   S    
C8    N1    D    
O3    Zn1   S    
C9    H14   S    
C20   C21   A    
O2    Zn2   S    
C4    O3    A    
C14   C24   A    
C5    C7    S    
C24   H18   S    
H16   N2    S    
C22   C23   A    
C1    O2    A    
C11   O7    A    
C8    H15   S    
C3    C5    D    
C25   H1    S    
O4    Zn2   S    
C20   C24   A    
C3    H13   S    
C8    C9    S    
C1    C3    S    
C17   H2    S    
