data_mof_unit_52081.cif
_audit_creation_date              2012-12-10T16:37:25-0500
_audit_creation_method            fapswitch 2.2
_symmetry_space_group_name_H-M    P1
_symmetry_Int_Tables_number       1
_space_group_crystal_system       triclinic
_cell_length_a                    16.67978
_cell_length_b                    16.813314
_cell_length_c                    16.8835
_cell_angle_alpha                 65.807096
_cell_angle_beta                  65.73313
_cell_angle_gamma                 65.765538
_cell_volume                      3766.89000739

loop_
_atom_site_label
_atom_site_type_symbol
_atom_type_description
_atom_site_fract_x
_atom_site_fract_y
_atom_site_fract_z
_atom_type_partial_charge
C1    C     C_R   0.468682 0.905155 0.702155 -0.323618
C2    C     C_R   0.401510 0.666620 0.041152 -0.357503
C3    C     C_R   0.026217 0.565505 0.320982 -0.342982
C4    C     C_R   0.042899 0.400339 0.668714 -0.342895
C5    C     C_R   0.960697 0.179155 0.438752 0.952546
C6    C     C_R   0.019559 0.823725 0.569457 0.970361
C7    C     C_R   0.179713 0.438490 0.961032 0.955726
C8    C     C_R   0.820273 0.561527 0.038873 0.948593
C9    C     C_R   0.438186 0.961276 0.179464 0.947007
C10   C     C_R   0.571708 0.013470 0.825985 0.992718
C11   C     C_R   0.561786 0.820294 0.038258 0.968462
C12   C     C_R   0.602088 0.945701 0.333895 -0.344153
C13   C     C_R   0.438355 0.179709 0.961373 0.953323
C14   C     C_R   0.038683 0.561502 0.820789 0.954024
C15   C     C_R   0.979597 0.430776 0.176651 0.965330
C16   C     C_R   0.820117 0.037450 0.562042 0.961136
C17   C     C_R   0.179692 0.959251 0.439103 0.954242
C18   C     C_R   0.516129 0.919578 0.745035 0.452502
C19   C     C_R   0.561621 0.919707 0.293520 0.473351
C20   C     C_R   0.954597 0.730945 0.495624 0.467407
C21   C     C_R   0.922367 0.296481 0.557017 0.475232
C22   C     C_R   0.703040 0.442210 0.075606 0.473462
C23   C     C_R   0.963538 0.682942 0.439819 -0.342168
C24   C     C_R   0.297154 0.558284 0.922359 0.482328
C25   C     C_R   0.304098 0.895805 0.561503 0.462651
C26   C     C_R   0.696859 0.065646 0.450523 0.476022
C27   C     C_R   0.559427 0.295197 0.927323 0.472852
C28   C     C_R   0.441029 0.705383 0.070302 0.473538
C29   C     C_R   0.037444 0.509344 0.272149 0.466390
C30   C     C_R   0.071380 0.443391 0.704638 0.474594
C31   C     C_R   0.559725 0.975783 0.555156 0.013116
C32   C     C_R   0.471526 0.938899 0.467789 0.009199
C33   C     C_R   0.006922 0.541776 0.552977 0.014432
C34   C     C_R   0.949490 0.332793 0.600759 -0.340937
C35   C     C_R   0.984456 0.450233 0.460619 0.013967
C36   C     C_R   0.540032 0.540748 0.026527 0.011997
C37   C     C_R   0.460775 0.460271 0.970366 0.010610
C38   C     C_R   0.592770 0.990333 0.460410 0.049304
C39   C     C_R   0.436108 0.926681 0.562267 0.048602
C40   C     C_R   0.009136 0.449458 0.593303 0.047837
C41   C     C_R   0.998044 0.536795 0.415784 0.050175
C42   C     C_R   0.452244 0.587293 0.013089 0.051648
C43   C     C_R   0.548666 0.413852 0.983528 0.050448
C44   C     C_R   0.555184 0.960976 0.419281 0.049896
C45   C     C_R   0.664457 0.401891 0.047228 -0.339962
C46   C     C_R   0.486190 0.936713 0.607279 0.048318
C47   C     C_R   0.414561 0.548851 0.980444 0.052736
C48   C     C_R   0.586306 0.452235 0.016274 0.049694
C49   C     C_R   0.982480 0.409035 0.552534 0.047576
C50   C     C_R   0.991975 0.587764 0.467344 0.049482
C51   C     C_R   0.574797 0.976518 0.693660 0.040393
C52   C     C_R   0.465943 0.928563 0.329168 0.047044
C53   C     C_R   0.998263 0.684682 0.565916 0.039616
C54   C     C_R   0.945191 0.325470 0.460461 0.046460
C55   C     C_R   0.670245 0.537728 0.062224 0.048900
C56   C     C_R   0.336163 0.598982 0.949850 -0.342846
C57   C     C_R   0.330001 0.462710 0.936074 0.057127
C58   C     C_R   0.334309 0.919289 0.465270 0.048492
C59   C     C_R   0.674254 0.038788 0.546399 0.066160
C60   C     C_R   0.463469 0.328658 0.938351 0.050765
C61   C     C_R   0.536905 0.671814 0.059767 0.062427
C62   C     C_R   0.995656 0.437268 0.317104 0.041371
C63   C     C_R   0.049384 0.540281 0.676151 0.048307
C64   C     C_R   0.610071 0.011208 0.733229 -0.108173
C65   C     C_R   0.411012 0.934966 0.278692 -0.096639
C66   C     C_R   0.021343 0.729119 0.606477 -0.112546
C67   C     C_R   0.353480 0.902389 0.608265 -0.326681
C68   C     C_R   0.943041 0.277352 0.408699 -0.083353
C69   C     C_R   0.720129 0.589464 0.062891 -0.094598
C70   C     C_R   0.279879 0.410660 0.936411 -0.087485
C71   C     C_R   0.280544 0.931168 0.411010 -0.097493
C72   C     C_R   0.721375 0.050349 0.593642 -0.074759
C73   C     C_R   0.410935 0.279249 0.937649 -0.098331
C74   C     C_R   0.589194 0.720872 0.061485 -0.086975
C75   C     C_R   0.975703 0.394870 0.271728 -0.114170
C76   C     C_R   0.054280 0.591679 0.723193 -0.084557
C77   C     C_R   0.681256 0.048610 0.682521 -0.321250
C78   C     C_R   0.659321 0.037529 0.408945 -0.344573
C79   C     C_R   0.321638 0.932277 0.321351 -0.315679
C80   C     C_R   0.050748 0.681641 0.682584 -0.306975
C81   C     C_R   0.947568 0.317678 0.318720 -0.309041
C82   C     C_R   0.677253 0.677456 0.067680 -0.319720
C83   C     C_R   0.322668 0.322527 0.931958 -0.318487
C84   C     C_R   0.602063 0.997986 0.598201 -0.079883
C85   C     C_R   0.423781 0.928984 0.420816 -0.080656
C86   C     C_R   0.019250 0.588726 0.597885 -0.079953
C87   C     C_R   0.973802 0.404940 0.412884 -0.079647
C88   C     C_R   0.582360 0.583443 0.049450 -0.084018
C89   C     C_R   0.599307 0.334436 0.955579 -0.341509
C90   C     C_R   0.418158 0.417242 0.948207 -0.085077
H1    H     H_    0.422770 0.863579 0.743870 0.137923
H2    H     H_    0.328995 0.695580 0.046948 0.138528
H3    H     H_    0.050435 0.625325 0.285601 0.144684
H4    H     H_    0.055067 0.327191 0.694552 0.143156
H5    H     H_    0.711707 0.068569 0.714620 0.208029
H6    H     H_    0.280655 0.939504 0.281543 0.202362
H7    H     H_    0.063511 0.717072 0.715392 0.207861
H8    H     H_    0.937004 0.283706 0.282840 0.206894
H9    H     H_    0.716116 0.715729 0.067718 0.201067
H10   H     H_    0.283594 0.284045 0.932652 0.200578
H11   H     H_    0.470080 0.833910 0.860068 0.326652
H12   H     H_    0.673233 0.945528 0.302133 0.137469
H13   H     H_    0.681066 0.873873 0.211862 0.318486
H14   H     H_    0.868528 0.838272 0.438940 0.323581
H15   H     H_    0.857748 0.226285 0.673124 0.323714
H16   H     H_    0.779526 0.323445 0.129553 0.318798
H17   H     H_    0.220213 0.676790 0.868571 0.315799
H18   H     H_    0.221289 0.843017 0.675497 0.322863
H19   H     H_    0.758309 0.137656 0.333537 0.323444
H20   H     H_    0.679678 0.217589 0.876386 0.317339
H21   H     H_    0.320576 0.782868 0.121038 0.318976
H22   H     H_    0.123075 0.568277 0.166518 0.322608
H23   H     H_    0.938193 0.719224 0.380982 0.144763
H24   H     H_    0.136405 0.326093 0.773150 0.322364
H25   H     H_    0.937191 0.306351 0.673624 0.141518
H26   H     H_    0.692762 0.329500 0.055304 0.137246
H27   H     H_    0.307865 0.671416 0.941540 0.131421
H28   H     H_    0.324789 0.889608 0.680827 0.133727
H29   H     H_    0.678542 0.057853 0.335579 0.141054
H30   H     H_    0.671892 0.305593 0.949486 0.137681
O1    O     O_R   0.982940 0.138950 0.510160 -0.591381
O2    O     O_R   0.982940 0.510160 0.138950 -0.586111
O3    O     O_R   0.861050 0.017060 0.489840 -0.566731
O4    O     O_R   0.138950 0.982940 0.510160 -0.579935
O5    O     O_R   0.867700 0.025880 0.612340 -0.633020
O6    O     O_R   0.132300 0.974120 0.387660 -0.645984
O7    O     O_R   0.025880 0.612340 0.867700 -0.626369
O8    O     O_R   0.974120 0.387660 0.132300 -0.627255
O9    O     O_R   0.612340 0.867700 0.025880 -0.636791
O10   O     O_R   0.387660 0.132300 0.974120 -0.644002
O11   O     O_R   0.387660 0.974120 0.132300 -0.629871
O12   O     O_R   0.017060 0.861050 0.489840 -0.589890
O13   O     O_R   0.612340 0.025880 0.867700 -0.630872
O14   O     O_R   0.132300 0.387660 0.974120 -0.636927
O15   O     O_R   0.867700 0.612340 0.025880 -0.644293
O16   O     O_R   0.974120 0.132300 0.387660 -0.630639
O17   O     O_R   0.025880 0.867700 0.612340 -0.624760
O18   O     O_3   0.512240 0.871905 0.834818 -0.763242
O19   O     O_3   0.616192 0.876283 0.226901 -0.749291
O20   O     O_3   0.895008 0.818185 0.489338 -0.749590
O21   O     O_3   0.868268 0.238134 0.607579 -0.749817
O22   O     O_3   0.765406 0.388276 0.124825 -0.745020
O23   O     O_R   0.138950 0.510160 0.982940 -0.563998
O24   O     O_3   0.234194 0.611857 0.873756 -0.752707
O25   O     O_3   0.232050 0.857896 0.609408 -0.748412
O26   O     O_3   0.749816 0.124959 0.398794 -0.754916
O27   O     O_3   0.614657 0.231905 0.879778 -0.742950
O28   O     O_3   0.385426 0.768079 0.118475 -0.751399
O29   O     O_3   0.098363 0.516564 0.185758 -0.748501
O30   O     O_3   0.126575 0.391715 0.761560 -0.753412
O31   O     O_R   0.861050 0.489840 0.017060 -0.581937
O32   O     O_R   0.510160 0.982940 0.138950 -0.587534
O33   O     O_R   0.489840 0.017060 0.861050 -0.596698
O34   O     O_R   0.489840 0.861050 0.017060 -0.559972
O35   O     O_R   0.510160 0.138950 0.982940 -0.580705
O36   O     O_R   0.017060 0.489840 0.861050 -0.591568
Zn1   Zn    Zn3+2 0.004880 0.004880 0.583590 1.003824
Zn2   Zn    Zn3+2 0.995120 0.995120 0.416410 1.000071
Zn3   Zn    Zn3+2 0.004880 0.583590 0.004880 1.002717
Zn4   Zn    Zn3+2 0.995120 0.416410 0.995120 1.002109
Zn5   Zn    Zn3+2 0.583590 0.004880 0.004880 1.005290
Zn6   Zn    Zn3+2 0.416410 0.995120 0.995120 1.001294

loop_
_geom_bond_atom_site_label_1
_geom_bond_atom_site_label_2
_ccdc_geom_bond_type
C5    O16   A    
O14   Zn4   S    
C9    O32   A    
C65   C79   A    
C15   O2    A    
C80   H7    S    
C56   H27   S    
C36   C42   A    
H19   O26   S    
C16   C72   S    
C10   O13   A    
C7    C70   S    
C7    O23   A    
O35   Zn5   S    
C38   C44   A    
C8    C69   S    
C26   C78   A    
C37   C90   A    
C68   C81   A    
C52   C85   A    
C16   O3    A    
C24   O24   S    
C27   C60   A    
H15   O21   S    
C54   C87   A    
O5    Zn1   S    
C17   O6    A    
C30   O30   S    
C54   C68   A    
C81   H8    S    
C40   C49   A    
C5    O1    A    
C60   C73   A    
C3    C29   A    
C82   H9    S    
C32   C39   A    
C55   C88   A    
C26   O26   S    
C13   O35   A    
C69   C82   A    
C11   O34   A    
C35   C87   A    
C19   C52   A    
C4    C40   A    
C24   C57   A    
C31   C46   A    
C25   C67   A    
C35   C49   A    
C13   O10   A    
C89   H30   S    
C36   C48   A    
C53   C86   A    
C57   C70   A    
C37   C47   A    
C43   C48   A    
O32   Zn5   S    
C59   C72   A    
O16   Zn2   S    
C28   C61   A    
O10   Zn6   S    
C9    O11   A    
C1    H1    S    
O1    Zn1   S    
C30   C63   A    
C8    O15   A    
C74   C82   A    
C5    C68   S    
C35   C41   A    
C11   O9    A    
C10   O33   A    
C71   C79   A    
C18   C51   A    
H16   O22   S    
O6    Zn2   S    
C32   C44   A    
C28   O28   S    
C33   C40   A    
O15   Zn3   S    
C57   C90   A    
O36   Zn4   S    
C8    O31   A    
C59   C84   A    
C7    O14   A    
C6    O12   A    
C75   C81   A    
C23   C50   A    
C21   C34   A    
C38   C78   A    
O11   Zn6   S    
C33   C50   A    
C77   H5    S    
O12   Zn2   S    
C14   O7    A    
H14   O20   S    
C14   C76   S    
C37   C43   A    
C33   C86   A    
C12   H12   S    
C72   C77   A    
C70   C83   A    
C61   C88   A    
H13   O19   S    
C23   H23   S    
C17   O4    A    
C20   C23   A    
O2    Zn3   S    
O4    Zn1   S    
C22   O22   S    
C1    C18   A    
O9    Zn5   S    
C3    H3    S    
C43   C89   A    
C2    H2    S    
C53   C66   A    
C55   C69   A    
C39   C46   A    
C4    H4    S    
C19   O19   S    
C18   O18   S    
C17   C71   S    
C83   H10   S    
C63   C86   A    
C62   C75   A    
C25   C58   A    
H24   O30   S    
H20   O27   S    
C58   C85   A    
O7    Zn3   S    
C41   C50   A    
O8    Zn4   S    
H18   O25   S    
C16   O5    A    
C45   C48   A    
C29   C62   A    
C3    C41   A    
C34   C49   A    
C14   O36   A    
C39   C67   A    
O34   Zn6   S    
C10   C64   S    
C51   C64   A    
C76   C80   A    
C13   C73   S    
C20   C53   A    
C11   C74   S    
O13   Zn5   S    
C25   O25   S    
H11   O18   S    
O23   Zn3   S    
C22   C55   A    
O3    Zn2   S    
C60   C90   A    
C61   C74   A    
C24   C56   A    
C66   C80   A    
C62   C87   A    
C31   C38   A    
O17   Zn1   S    
O33   Zn6   S    
C15   O8    A    
O31   Zn4   S    
C20   O20   S    
C6    O17   A    
C78   H29   S    
C34   H25   S    
C21   O21   S    
C79   H6    S    
C36   C88   A    
H21   O28   S    
C15   C75   S    
C45   H26   S    
C21   C54   A    
C2    C42   A    
C32   C85   A    
C12   C19   A    
C27   C89   A    
C42   C47   A    
C1    C46   A    
C67   H28   S    
C9    C65   S    
C58   C71   A    
C31   C84   A    
C29   O29   S    
C6    C66   S    
C22   C45   A    
C27   O27   S    
C63   C76   A    
C64   C77   A    
H22   O29   S    
C12   C44   A    
C26   C59   A    
C2    C28   A    
H17   O24   S    
C51   C84   A    
C73   C83   A    
C4    C30   A    
C52   C65   A    
C47   C56   A    
