data_mof_unit_51305.cif
_audit_creation_date              2013-03-05T15:43:49-0500
_audit_creation_method            fapswitch 2.2
_symmetry_space_group_name_H-M    P1
_symmetry_Int_Tables_number       1
_space_group_crystal_system       triclinic
_cell_length_a                    10.654804
_cell_length_b                    10.9192
_cell_length_c                    9.718844
_cell_angle_alpha                 90.369315
_cell_angle_beta                  90.424165
_cell_angle_gamma                 90.381674
_cell_volume                      1130.62920255

loop_
_atom_site_label
_atom_site_type_symbol
_atom_site_description
_atom_site_fract_x
_atom_site_fract_y
_atom_site_fract_z
_atom_type_partial_charge
O1    O     O_R   0.500020 0.321960 0.617040 -0.548241
O2    O     O_R   0.499980 0.321920 0.382900 -0.543953
C1    C     C_R   0.493910 0.265428 0.499648 0.803697
O3    O     O_R   0.316870 0.499990 0.617050 -0.563687
O4    O     O_R   0.316830 0.499950 0.382910 -0.548119
C2    C     C_R   0.259660 0.500865 0.499520 0.893853
Cu1   Cu    Cu3+1 0.500030 0.500020 0.638630 1.036946
Cu2   Cu    Cu3+1 0.499970 0.499980 0.361370 1.047066
O5    O     O_R   0.500020 0.678080 0.617100 -0.549633
O6    O     O_R   0.499980 0.678040 0.382960 -0.598848
O7    O     O_R   0.683170 0.500050 0.617090 -0.586769
O8    O     O_R   0.683130 0.500010 0.382950 -0.561251
C3    C     C_R   0.503951 0.734578 0.500449 0.864236
C4    C     C_R   0.740360 0.499047 0.500484 0.867291
C5    C     C_3   0.043874 0.402718 0.571016 -0.245553
C6    C     C_3   0.959740 0.398017 0.442023 0.394209
H1    H     H_    0.081209 0.322227 0.626862 0.206631
C7    C     C_3   0.876794 0.498448 0.501310 -0.138404
C8    C     C_3   0.959889 0.505673 0.631884 -0.233764
C9    C     C_3   0.040355 0.601804 0.558032 0.372945
C10   C     C_3   0.956220 0.597117 0.429061 -0.275628
C11   C     C_3   0.040165 0.494180 0.368178 -0.199703
C12   C     C_3   0.123270 0.501377 0.498724 -0.141104
H2    H     H_    0.926275 0.512319 0.739509 0.192788
H3    H     H_    0.919018 0.677632 0.373174 0.191684
H4    H     H_    0.073412 0.487936 0.260415 0.211503
C13   C     C_2   0.503503 0.932856 0.388395 -0.103122
C14   C     C_2   0.515348 0.866565 0.502950 -0.211331
H5    H     H_    0.492952 0.889093 0.288255 0.191086
H6    H     H_    0.534996 0.909970 0.601687 0.187883
C15   C     C_2   0.513118 0.066427 0.393403 -0.156960
C16   C     C_2   0.469209 0.134349 0.498556 0.171191
H7    H     H_    0.562849 0.109671 0.309262 0.209149
C17   C     C_2   0.432657 0.425122 0.920566 -0.067494
N1    N     N_2   0.498620 0.498660 0.846910 -0.303636
H8    H     H_    0.369289 0.361975 0.867892 0.210590
H9    H     H_    0.564792 0.552801 0.895330 0.195965
C18   C     C_2   0.441104 0.417457 0.075473 0.401099
N2    N     N_2   0.498590 0.498630 0.153040 -0.334032
H10   H     H_    0.535471 0.574975 0.106848 0.169612
N3    N     N_R   0.917540 0.283749 0.378013 0.139027
O9    O     O_R   0.999717 0.207335 0.330078 -0.264228
O10   O     O_R   0.798892 0.255506 0.372092 -0.375382
N4    N     N_R   0.385938 0.084465 0.600670 0.116154
O11   O     O_R   0.394532 0.120187 0.728414 -0.310666
O12   O     O_R   0.290928 0.016298 0.562884 -0.250153
N5    N     N_R   0.380347 0.314209 0.136510 0.153508
O13   O     O_R   0.414595 0.204694 0.099930 -0.327154
O14   O     O_R   0.271344 0.328049 0.193451 -0.324082
N6    N     N_R   0.082729 0.716004 0.622073 0.145563
O15   O     O_R   0.000675 0.792780 0.669518 -0.301809
O16   O     O_R   0.201505 0.743501 0.629239 -0.308972

loop_
_geom_bond_atom_site_label_1
_geom_bond_atom_site_label_2
_geom_bond_distance
_ccdc_geom_bond_type
O4    Cu2   1.964057 S    
N6    O16   1.299978 A    
C15   H7    1.086521 S    
C3    C14   1.445528 S    
Cu2   N2    2.024628 S    
C13   H5    1.086210 S    
C7    C10   1.541551 S    
N3    O9    1.300241 A    
C4    C7    1.453693 S    
N5    O13   1.300690 A    
C9    C12   1.525617 S    
O8    C4    1.291012 A    
Cu2   O8    1.961225 S    
C8    C9    1.535861 S    
C5    C12   1.541498 S    
C8    H2    1.110198 S    
C16   N4    1.443039 S    
Cu1   Cu2   2.694639 S    
N5    O14   1.299512 A    
C6    C7    1.525771 S    
C17   C18   1.510431 S    
C10   C11   1.557603 S    
N4    O11   1.301350 A    
Cu1   O7    1.964057 S    
N3    O10   1.300015 A    
C18   N5    1.430576 S    
O4    C2    1.290627 A    
O3    Cu1   1.961225 S    
C2    C12   1.453219 S    
C14   H6    1.085879 S    
N1    H9    1.026639 S    
N4    O12   1.301766 A    
O2    C1    1.296810 A    
C17   H8    1.085125 S    
C18   N2    1.306282 D    
O7    C4    1.290691 A    
O3    C2    1.290855 A    
C13   C15   1.461872 S    
C5    C6    1.536160 S    
C5    C8    1.557939 S    
Cu1   O5    1.956842 S    
C13   C14   1.337509 D    
O5    C3    1.294998 A    
C9    C10   1.535995 S    
Cu2   O6    1.954217 S    
C17   N1    1.287832 D    
C11   H4    1.109919 S    
N2    H10   1.026632 S    
C5    H1    1.110359 S    
C10   H3    1.110252 S    
C11   C12   1.543091 S    
C7    C8    1.543273 S    
C9    N6    1.457565 S    
C1    C16   1.453505 S    
N6    O15   1.300204 A    
O1    Cu1   1.954217 S    
Cu1   N1    2.024558 S    
C6    N3    1.457516 S    
O2    Cu2   1.956840 S    
C15   C16   1.347316 D    
C6    C11   1.535831 S    
O1    C1    1.294700 A    
O6    C3    1.294835 A    
