data_mof_unit_20563.cif
_audit_creation_date              2013-03-05T15:41:26-0500
_audit_creation_method            fapswitch 2.2
_symmetry_space_group_name_H-M    P1
_symmetry_Int_Tables_number       1
_space_group_crystal_system       triclinic
_cell_length_a                    11.52327
_cell_length_b                    18.593546
_cell_length_c                    10.125318
_cell_angle_alpha                 90.001517
_cell_angle_beta                  110.449279
_cell_angle_gamma                 89.998933
_cell_volume                      2032.7211551

loop_
_atom_site_label
_atom_site_type_symbol
_atom_site_description
_atom_site_fract_x
_atom_site_fract_y
_atom_site_fract_z
_atom_type_partial_charge
O1    O     O_R   0.267710 0.668200 0.902110 -0.404740
O2    O     O_R   0.732290 0.331800 0.097890 -0.407738
O3    O     O_R   0.732290 0.168200 0.097890 -0.404723
O4    O     O_R   0.267710 0.831800 0.902110 -0.407746
O5    O     O_R   0.099480 0.674460 0.038850 -0.450929
O6    O     O_R   0.900520 0.325540 0.961150 -0.462602
O7    O     O_R   0.900520 0.174460 0.961150 -0.450934
O8    O     O_R   0.099480 0.825540 0.038850 -0.462625
C1    C     C_R   0.073090 0.646359 0.141274 0.547600
C2    C     C_R   0.921774 0.355463 0.856581 0.554407
C3    C     C_R   0.926912 0.146360 0.858726 0.547579
C4    C     C_R   0.078257 0.855473 0.143432 0.554433
O9    O     O_R   0.116720 0.669210 0.267660 -0.498675
O10   O     O_R   0.883280 0.330790 0.732340 -0.491700
O11   O     O_R   0.883280 0.169210 0.732340 -0.498653
O12   O     O_R   0.116720 0.830790 0.267660 -0.491645
O13   O     O_R   0.366710 0.675440 0.427590 -0.402916
O14   O     O_R   0.633290 0.324560 0.572410 -0.459849
O15   O     O_R   0.633290 0.175440 0.572410 -0.402888
O16   O     O_R   0.366710 0.824560 0.427590 -0.459769
C5    C     C_R   0.438307 0.637359 0.378345 0.562170
C6    C     C_R   0.524719 0.348091 0.548505 0.575680
C7    C     C_R   0.561720 0.137366 0.621690 0.562185
C8    C     C_R   0.475266 0.848098 0.451487 0.575677
O17   O     O_R   0.534870 0.669390 0.371760 -0.505534
O18   O     O_R   0.465130 0.330610 0.628240 -0.545074
O19   O     O_R   0.465130 0.169390 0.628240 -0.505513
O20   O     O_R   0.534870 0.830610 0.371760 -0.545067
O21   O     O_R   0.453080 0.674480 0.075160 -0.549121
O22   O     O_R   0.546920 0.325520 0.924840 -0.478792
O23   O     O_R   0.546920 0.174480 0.924840 -0.549190
O24   O     O_R   0.453080 0.825520 0.075160 -0.478853
C9    C     C_R   0.376028 0.644133 0.965901 0.612903
C10   C     C_R   0.650142 0.361093 0.987474 0.574745
C11   C     C_R   0.623966 0.144137 0.034112 0.612895
C12   C     C_R   0.349857 0.861093 0.012533 0.574690
Cr1   Cr    Cr6+3 0.187610 0.750000 0.979860 1.195538
Cr2   Cr    Cr6+3 0.812390 0.250000 0.020140 1.195577
Cr3   Cr    Cr6+3 0.245810 0.750000 0.341640 1.175195
Cr4   Cr    Cr6+3 0.754190 0.250000 0.658360 1.175166
Cr5   Cr    Cr6+3 0.485760 0.750000 0.219910 1.041212
Cr6   Cr    Cr6+3 0.514240 0.250000 0.780090 1.041237
O25   O     O_3   0.306390 0.750000 0.180470 -0.363520
O26   O     O_3   0.693610 0.250000 0.819530 -0.363528
C13   C     C_R   0.479098 0.408699 0.448711 0.027071
C14   C     C_R   0.454995 0.558539 0.408207 0.017906
C15   C     C_R   0.520875 0.908692 0.551321 0.027058
C16   C     C_R   0.545077 0.058530 0.591883 0.017847
C17   C     C_R   0.275227 0.404945 0.471068 -0.058235
C18   C     C_R   0.626025 0.552037 0.305490 -0.121495
C19   C     C_R   0.724782 0.904868 0.529119 -0.058204
C20   C     C_R   0.374103 0.052057 0.694669 -0.121539
C21   C     C_R   0.193332 0.437649 0.523769 -0.087192
C22   C     C_R   0.735341 0.519831 0.311385 -0.126789
C23   C     C_R   0.806702 0.937521 0.476404 -0.087032
C24   C     C_R   0.264766 0.019899 0.688794 -0.126735
C25   C     C_R   0.204759 0.510062 0.556528 0.145302
C26   C     C_R   0.753363 0.447976 0.343186 0.178634
C27   C     C_R   0.795340 0.009930 0.443616 0.145471
C28   C     C_R   0.246634 0.948060 0.656911 0.178702
C29   C     C_R   0.302700 0.550120 0.539090 0.217201
C30   C     C_R   0.656816 0.407693 0.361078 0.228467
C31   C     C_R   0.697452 0.050043 0.461069 0.217147
C32   C     C_R   0.343095 0.907734 0.638904 0.228429
C33   C     C_R   0.375406 0.519361 0.464315 -0.034493
C34   C     C_R   0.559186 0.444130 0.390782 -0.025782
C35   C     C_R   0.624679 0.019325 0.535811 -0.034486
C36   C     C_R   0.440786 0.944138 0.609241 -0.025767
C37   C     C_R   0.373080 0.444140 0.452913 -0.016956
C38   C     C_R   0.544475 0.519153 0.365711 -0.017826
C39   C     C_R   0.626943 0.944103 0.547213 -0.016944
C40   C     C_R   0.455582 0.019156 0.634377 -0.017830
H1    H     H_    0.126514 0.405092 0.549286 0.200576
H2    H     H_    0.801896 0.549605 0.279241 0.155701
H3    H     H_    0.873489 0.904926 0.450903 0.200601
H4    H     H_    0.198281 0.049694 0.721023 0.155646
H5    H     H_    0.265516 0.347660 0.450180 0.198992
H6    H     H_    0.611465 0.602424 0.251723 0.176150
H7    H     H_    0.734435 0.847583 0.550022 0.198945
H8    H     H_    0.388746 0.102428 0.748479 0.176189
H9    H     H_    0.401766 0.081370 0.986570 0.155378
H10   H     H_    0.545699 0.943072 0.140590 0.167356
H11   H     H_    0.598228 0.581356 0.013546 0.155383
H12   H     H_    0.454321 0.443077 0.859398 0.167317
C41   C     C_2   0.359575 0.939195 0.006306 -0.119023
C42   C     C_2   0.596051 0.073389 0.076342 -0.044388
C43   C     C_2   0.640423 0.439192 0.993745 -0.118951
C44   C     C_2   0.403948 0.573383 0.923682 -0.044449
C45   C     C_2   0.465494 0.972965 0.073746 -0.138085
C46   C     C_2   0.481412 0.048259 0.042841 -0.114347
C47   C     C_2   0.534514 0.472964 0.926289 -0.138061
C48   C     C_2   0.518588 0.548251 0.957228 -0.114317
H13   H     H_    0.673983 0.039322 0.133440 0.142118
H14   H     H_    0.279204 0.969396 0.942088 0.126665
H15   H     H_    0.326022 0.539319 0.866554 0.142023
H16   H     H_    0.720782 0.469386 0.058013 0.126629
C49   C     C_2   0.045088 0.931072 0.134583 -0.046150
C50   C     C_2   0.979721 0.074491 0.876912 -0.077554
C51   C     C_2   0.955055 0.431046 0.865470 -0.046254
C52   C     C_2   0.020293 0.574488 0.123103 -0.077560
C53   C     C_2   0.998973 0.964757 0.011956 0.126427
C54   C     C_2   0.018844 0.042889 0.003014 0.126666
C55   C     C_2   0.001063 0.464732 0.988112 0.126342
C56   C     C_2   0.981194 0.542869 0.997018 0.126645
H17   H     H_    0.955274 0.042272 0.781571 0.153718
H18   H     H_    0.085338 0.961199 0.231666 0.165272
H19   H     H_    0.044731 0.542284 0.218458 0.153668
H20   H     H_    0.914944 0.461176 0.768371 0.165307
Br1   Br    Br    0.088554 0.548656 0.634806 -0.407850
Br2   Br    Br    0.903635 0.407534 0.338001 -0.423633
Br3   Br    Br    0.911532 0.048428 0.365219 -0.407858
Br4   Br    Br    0.096364 0.907690 0.662240 -0.423820
N1    N     N_R   0.346992 0.611227 0.628174 0.082737
O27   O     O_R   0.465391 0.623745 0.685197 -0.300088
O28   O     O_R   0.269097 0.658707 0.640388 -0.205445
N2    N     N_R   0.651507 0.331971 0.333230 0.111118
O29   O     O_R   0.750933 0.293174 0.383932 -0.207226
O30   O     O_R   0.546814 0.301120 0.262285 -0.279392
N3    N     N_R   0.653280 0.111168 0.372013 0.082767
O31   O     O_R   0.534904 0.123739 0.314917 -0.300103
O32   O     O_R   0.731270 0.158589 0.359821 -0.205531
N4    N     N_R   0.348241 0.832000 0.666608 0.111205
O33   O     O_R   0.248729 0.793280 0.615799 -0.207366
O34   O     O_R   0.452906 0.801038 0.737259 -0.279232
Br5   Br    Br    0.109861 0.099102 0.168458 -0.388603
Br6   Br    Br    0.886689 0.912240 0.855527 -0.481102
Br7   Br    Br    0.890150 0.599058 0.831557 -0.388630
Br8   Br    Br    0.113193 0.412206 0.144642 -0.481021

loop_
_geom_bond_atom_site_label_1
_geom_bond_atom_site_label_2
_geom_bond_distance
_ccdc_geom_bond_type
C26   C30   1.404440 A    
C51   C55   1.324900 D    
O4    C12   1.305085 A    
C53   C54   1.478396 S    
C24   H4    1.083985 S    
O23   Cr6   1.968775 S    
C43   C47   1.329574 D    
O15   C7    1.310691 A    
C54   Br5   1.941885 S    
O1    C9    1.269667 A    
C30   N2    1.432988 S    
H11   C48   1.086553 S    
C18   C22   1.377082 A    
C50   H17   1.086320 S    
Cr6   O26   1.963391 S    
C3    C50   1.453136 S    
C28   Br4   1.905294 S    
C32   C36   1.432452 A    
C9    C44   1.453549 S    
C41   C45   1.329609 D    
C5    C14   1.495195 S    
C23   C27   1.381895 A    
C11   C42   1.453590 S    
C17   C21   1.377283 A    
O5    Cr1   1.945463 S    
O21   C9    1.282274 A    
O20   Cr5   2.079098 S    
C52   C56   1.332866 D    
N2    O29   1.298308 A    
O13   Cr3   1.942421 S    
C1    O9    1.273311 A    
O14   Cr4   1.942420 S    
C22   H2    1.083989 S    
C3    O11   1.273328 A    
C25   Br1   1.917751 S    
C4    O12   1.264800 A    
O3    Cr2   2.071923 S    
N2    O30   1.301898 A    
C27   Br3   1.917795 S    
O24   Cr5   1.968773 S    
O6    Cr2   1.945462 S    
H12   C47   1.088178 S    
C7    O19   1.284268 A    
C19   C23   1.377217 A    
O1    Cr1   2.071867 S    
C23   H3    1.079397 S    
O2    C10   1.305049 A    
C44   H15   1.085884 S    
C17   C37   1.407561 A    
Cr5   O25   1.963391 S    
C19   C39   1.407534 A    
C16   C40   1.447321 A    
C18   H6    1.066999 S    
Cr2   O26   2.014117 S    
N3    O32   1.295341 A    
C31   C35   1.430269 A    
C14   C38   1.447283 A    
O22   C10   1.314311 A    
C13   C37   1.401732 A    
C44   C48   1.328643 D    
C14   C33   1.434799 A    
C42   C46   1.328666 D    
O17   Cr5   2.079143 S    
C47   C48   1.459986 S    
O16   Cr3   1.942424 S    
C30   C34   1.432308 A    
Cr3   O25   1.986560 S    
C50   C54   1.332884 D    
O13   C5    1.310747 A    
C24   C28   1.372931 A    
C36   C40   1.417426 A    
Cr1   O25   2.014117 S    
O7    C3    1.288932 A    
O5    C1    1.288954 A    
C20   C40   1.424397 A    
C42   H13   1.085890 S    
C31   N3    1.429408 S    
C41   H14   1.084003 S    
O2    Cr2   2.071866 S    
O3    C11   1.269669 A    
O8    C4    1.292986 A    
C43   H16   1.084011 S    
C53   Br6   1.924650 S    
C55   Br8   1.924677 S    
H10   C45   1.088176 S    
C15   C39   1.401682 A    
C4    C49   1.451221 S    
H9    C46   1.086549 S    
C51   H20   1.084700 S    
C1    C52   1.453134 S    
C2    O10   1.264829 A    
O23   C11   1.282301 A    
O8    Cr1   1.945411 S    
C49   H18   1.084706 S    
N4    O34   1.301894 A    
C45   C46   1.460028 S    
O24   C12   1.314294 A    
C15   C36   1.417095 A    
C55   C56   1.478413 S    
O18   Cr6   2.079142 S    
N1    O27   1.303280 A    
C22   C26   1.372986 A    
C33   C37   1.402851 A    
C5    O17   1.284192 A    
C52   H19   1.086315 S    
C21   C25   1.381905 A    
C7    C16   1.495346 S    
O21   Cr5   1.968729 S    
C26   Br2   1.905302 S    
C8    C15   1.481938 S    
C21   H1    1.079373 S    
C8    O20   1.271435 A    
O6    C2    1.292992 A    
N3    O31   1.303273 A    
C25   C29   1.413843 A    
C12   C41   1.459568 S    
C27   C31   1.413905 A    
C28   C32   1.404468 A    
O14   C6    1.266353 A    
C18   C38   1.424480 A    
C29   N1    1.429460 S    
O19   Cr6   2.079100 S    
C34   C38   1.417383 A    
C56   Br7   1.941864 S    
C32   N4    1.433014 S    
O7    Cr2   1.945413 S    
C17   H5    1.084069 S    
C35   C39   1.402894 A    
C10   C43   1.459524 S    
C16   C35   1.434913 A    
C2    C51   1.451242 S    
C19   H7    1.084075 S    
O11   Cr4   2.061985 S    
O9    Cr3   2.061996 S    
O15   Cr4   1.942425 S    
O12   Cr3   2.061984 S    
O10   Cr4   2.061995 S    
C29   C33   1.430193 A    
Cr4   O26   1.986561 S    
C6    C13   1.481931 S    
O4    Cr1   2.071921 S    
C6    O18   1.271356 A    
C13   C34   1.417053 A    
O22   Cr6   1.968729 S    
N4    O33   1.298350 A    
C20   H8    1.066895 S    
O16   C8    1.266258 A    
C49   C53   1.324881 D    
C20   C24   1.376999 A    
N1    O28   1.295328 A    
