data_mof_unit_39771.cif
_audit_creation_date              2012-12-10T18:53:44-0500
_audit_creation_method            fapswitch 2.2
_symmetry_space_group_name_H-M    P1
_symmetry_Int_Tables_number       1
_space_group_crystal_system       triclinic
_cell_length_a                    10.741599
_cell_length_b                    9.887828
_cell_length_c                    19.069262
_cell_angle_alpha                 91.733781
_cell_angle_beta                  93.769234
_cell_angle_gamma                 92.142176
_cell_volume                      2018.48645756

loop_
_atom_site_label
_atom_site_type_symbol
_atom_type_description
_atom_site_fract_x
_atom_site_fract_y
_atom_site_fract_z
_atom_type_partial_charge
C1    C     C_R   0.260927 0.497198 0.507199 0.855967
C2    C     C_R   0.068951 0.610062 0.532403 -0.012292
C3    C     C_R   0.874242 0.503632 0.486753 -0.271016
C4    C     C_R   0.127956 0.489265 0.517291 -0.278812
C5    C     C_R   0.571911 0.078090 0.549369 -0.011769
C6    C     C_R   0.421282 0.921547 0.453909 -0.031669
C7    C     C_R   0.428607 0.065146 0.449789 -0.073774
C8    C     C_R   0.582421 0.935376 0.544586 0.002426
C9    C     C_R   0.537717 0.617073 0.251676 -0.067283
C10   C     C_R   0.387568 0.389818 0.734662 -0.068295
C11   C     C_R   0.472447 0.623255 0.752008 -0.105978
C12   C     C_R   0.739768 0.501811 0.493545 0.897265
C13   C     C_R   0.526524 0.368879 0.250107 -0.103213
C14   C     C_R   0.508617 0.614633 0.178686 -0.082728
C15   C     C_R   0.371083 0.383713 0.807118 -0.034287
C16   C     C_R   0.447587 0.619979 0.823354 -0.060885
C17   C     C_R   0.488708 0.366462 0.177762 -0.035411
C18   C     C_R   0.478051 0.489634 0.143172 -0.094067
C19   C     C_R   0.404863 0.497744 0.851033 -0.081344
C20   C     C_R   0.528645 0.494600 0.288589 -0.177226
C21   C     C_R   0.452072 0.504146 0.708178 -0.198314
C22   C     C_2   0.113141 0.232823 0.505172 0.653207
C23   C     C_R   0.420282 0.484106 0.926706 0.317474
C24   C     C_2   0.903768 0.757709 0.480566 0.521982
C25   C     C_2   0.861171 0.260886 0.441553 0.598334
C26   C     C_2   0.130956 0.711316 0.584573 0.591516
C27   C     C_2   0.583898 0.746798 0.287523 0.588825
C28   C     C_2   0.323192 0.283145 0.687078 0.456269
C29   C     C_2   0.513520 0.754400 0.724258 0.562903
C30   C     C_2   0.583928 0.247787 0.282732 0.479178
C31   C     C_2   0.512191 0.742209 0.138910 0.908202
C32   C     C_2   0.327152 0.254076 0.837074 0.982848
C33   C     C_2   0.467366 0.744066 0.870180 0.923410
C34   C     C_R   0.456142 0.486488 0.067307 0.340212
C35   C     C_2   0.459341 0.236345 0.137679 1.015946
C36   C     C_2   0.632164 0.153565 0.611516 1.000998
C37   C     C_2   0.322527 0.842960 0.411257 1.018251
C38   C     C_2   0.362108 0.126500 0.388478 0.947785
C39   C     C_2   0.691841 0.878373 0.584193 0.902714
C40   C     C_R   0.511228 0.498459 0.365477 0.897506
C41   C     C_R   0.488493 0.501491 0.634255 0.877310
C42   C     C_R   0.057601 0.368472 0.498009 -0.054715
C43   C     C_R   0.946654 0.623375 0.504516 -0.034726
C44   C     C_R   0.931315 0.378014 0.477962 -0.025000
H1    H     H_    0.178468 0.215318 0.549431 0.077020
H2    H     H_    0.337818 0.050688 0.838035 0.377700
H3    H     H_    0.578278 0.906023 0.902821 0.370928
H4    H     H_    0.492404 0.114789 0.054618 0.362372
H5    H     H_    0.643351 0.179187 0.717136 0.360895
H6    H     H_    0.141676 0.781017 0.400243 0.354331
H7    H     H_    0.312405 0.112398 0.284683 0.387981
H8    H     H_    0.867603 0.912798 0.626670 0.399194
H9    H     H_    0.817515 0.765235 0.448676 0.123259
H10   H     H_    0.822663 0.271208 0.388228 -0.006846
H11   H     H_    0.228108 0.703620 0.602634 0.086944
H12   H     H_    0.542266 0.841379 0.273427 0.153947
H13   H     H_    0.372613 0.224106 0.650110 0.128759
H14   H     H_    0.608718 0.792961 0.735805 0.136781
H15   H     H_    0.628485 0.254786 0.335090 0.066688
H16   H     H_    0.609636 0.911728 0.115941 0.376304
N1    N     N_R   0.500000 0.857200 0.500000 -0.160913
N2    N     N_R   0.500000 0.142800 0.500000 -0.180540
N3    N     N_R   0.338607 0.482852 0.036611 -0.091450
N4    N     N_R   0.537411 0.487716 0.957682 -0.135568
N5    N     N_R   0.320848 0.482758 0.966952 -0.049434
N6    N     N_R   0.555162 0.488686 0.027080 -0.099582
O1    O     O_R   0.316770 0.614620 0.500000 -0.626857
O2    O     O_2   0.968204 0.861424 0.491126 -0.419527
O3    O     O_2   0.842461 0.155518 0.471650 -0.461182
O4    O     O_2   0.071997 0.798073 0.612922 -0.512171
O5    O     O_2   0.672857 0.749595 0.330868 -0.589750
O6    O     O_2   0.211630 0.258016 0.690522 -0.541749
O7    O     O_2   0.439243 0.822418 0.690987 -0.533098
O8    O     O_2   0.590096 0.140029 0.250451 -0.519907
O9    O     O_2   0.422347 0.770805 0.100195 -0.542670
O10   O     O_R   0.618726 0.828542 0.145369 -0.760824
O11   O     O_2   0.248991 0.254036 0.880858 -0.562635
O12   O     O_R   0.683230 0.385380 0.500000 -0.578629
O13   O     O_R   0.374745 0.131763 0.814230 -0.753780
O14   O     O_2   0.388358 0.773729 0.910760 -0.559741
O15   O     O_R   0.576436 0.825340 0.868610 -0.793154
O16   O     O_2   0.380178 0.156766 0.157432 -0.561794
O17   O     O_R   0.521587 0.205398 0.077448 -0.778873
O18   O     O_2   0.719030 0.234494 0.605428 -0.522921
O19   O     O_R   0.594900 0.123258 0.678315 -0.801584
O20   O     O_2   0.343389 0.793445 0.354021 -0.610255
O21   O     O_R   0.202143 0.834952 0.434406 -0.744633
O22   O     O_2   0.300173 0.225755 0.395689 -0.564966
O23   O     O_R   0.683230 0.614620 0.500000 -0.609447
O24   O     O_R   0.365814 0.065519 0.321625 -0.764087
O25   O     O_2   0.685697 0.768105 0.610264 -0.599432
O26   O     O_R   0.803606 0.955848 0.593941 -0.722482
O27   O     O_R   0.316770 0.385380 0.500000 -0.603954
O28   O     O_R   0.499990 0.614700 0.398140 -0.567143
O29   O     O_R   0.500010 0.385300 0.601860 -0.655738
O30   O     O_R   0.500010 0.614700 0.601860 -0.548913
O31   O     O_R   0.499990 0.385300 0.398140 -0.637616
O32   O     O_2   0.089515 0.140975 0.461568 -0.478995
Zn1   Zn    Zn3+2 0.500000 0.653120 0.500000 1.046819
Zn2   Zn    Zn3+2 0.500000 0.346880 0.500000 1.005191

loop_
_geom_bond_atom_site_label_1
_geom_bond_atom_site_label_2
_ccdc_geom_bond_type
N3    N5    A    
C22   O32   D    
C14   C18   A    
C2    C4    A    
C14   C31   S    
C26   H11   S    
C34   N6    A    
C15   C32   S    
C28   O6    D    
C28   H13   S    
C15   C19   A    
C3    C43   A    
O23   Zn1   S    
C6    N1    A    
C10   C15   A    
H7    O24   S    
H2    O13   S    
C30   O8    D    
C41   O30   A    
C29   O7    D    
C5    C36   S    
C41   O29   A    
C3    C12   S    
C32   O11   D    
C12   O12   A    
C8    C39   S    
O1    Zn1   S    
C8    N1    A    
N1    Zn1   S    
C42   C44   A    
C25   C44   S    
C39   O25   D    
C35   O16   D    
C10   C21   A    
C3    C44   A    
H5    O19   S    
C12   O23   A    
C25   H10   S    
C40   O31   A    
C35   O17   S    
O29   Zn2   S    
C37   O20   D    
C24   H9    S    
H16   O10   S    
C38   O22   D    
N4    N6    A    
C19   C23   S    
C9    C14   A    
C7    N2    A    
C16   C33   S    
O30   Zn1   S    
C11   C16   A    
C13   C30   S    
C9    C20   A    
C31   O9    D    
C2    C43   A    
C30   H15   S    
C17   C18   A    
C6    C37   S    
C2    C26   S    
C18   C34   S    
O27   Zn2   S    
H6    O21   S    
N2    Zn2   S    
C23   N4    A    
O12   Zn2   S    
C26   O4    D    
C21   C41   S    
H8    O26   S    
C25   O3    D    
C39   O26   S    
O31   Zn2   S    
C27   O5    D    
C9    C27   S    
C10   C28   S    
C13   C20   A    
C27   H12   S    
C37   O21   S    
C40   O28   A    
C5    C8    A    
C33   O14   D    
C6    C7    A    
C36   O19   S    
C38   O24   S    
H4    O17   S    
C13   C17   A    
C1    C4    S    
C23   N5    A    
C32   O13   S    
C31   O10   S    
C22   C42   S    
C4    C42   A    
O28   Zn1   S    
C36   O18   D    
C16   C19   A    
C20   C40   S    
C34   N3    A    
C1    O1    A    
C7    C38   S    
C11   C21   A    
C5    N2    A    
H3    O15   S    
C24   O2    D    
C22   H1    S    
C29   H14   S    
C11   C29   S    
C1    O27   A    
C24   C43   S    
C17   C35   S    
C33   O15   S    
