data_mof_unit_17656.cif
_audit_creation_date              2012-12-11T15:43:17-0500
_audit_creation_method            fapswitch 2.2
_symmetry_space_group_name_H-M    P1
_symmetry_Int_Tables_number       1
_space_group_crystal_system       triclinic
_cell_length_a                    19.142839
_cell_length_b                    10.938241
_cell_length_c                    18.798216
_cell_angle_alpha                 90.091112
_cell_angle_beta                  89.958955
_cell_angle_gamma                 90.28008
_cell_volume                      3936.08640137

loop_
_atom_site_label
_atom_site_type_symbol
_atom_type_description
_atom_site_fract_x
_atom_site_fract_y
_atom_site_fract_z
_atom_type_partial_charge
C1    C     C_R   0.730263 0.376579 0.146193 0.536653
C2    C     C_R   0.271865 0.374135 0.855344 0.550957
C3    C     C_R   0.230265 0.876582 0.146194 0.536695
C4    C     C_R   0.771864 0.874138 0.855344 0.550264
C5    C     C_R   0.514825 0.384527 0.926464 -0.101847
C6    C     C_R   0.497848 0.395929 0.073066 -0.096620
C7    C     C_R   0.014832 0.884524 0.926462 -0.101974
C8    C     C_R   0.997860 0.895929 0.073065 -0.096615
C9    C     C_R   0.008975 0.997939 0.959779 0.099760
C10   C     C_R   0.999869 0.003718 0.033621 0.090875
C11   C     C_R   0.508952 0.497939 0.959780 0.099653
C12   C     C_R   0.499842 0.503716 0.033620 0.090508
C13   C     C_R   0.762074 0.901795 0.929632 0.016436
C14   C     C_R   0.254367 0.920434 0.077834 0.018545
C15   C     C_R   0.262077 0.401778 0.929634 0.015956
C16   C     C_R   0.754362 0.420447 0.077836 0.018963
C17   C     C_R   0.697470 0.928335 0.958938 -0.024442
C18   C     C_R   0.293302 0.842647 0.033770 0.032698
C19   C     C_R   0.197473 0.428324 0.958937 -0.025345
C20   C     C_R   0.793351 0.342722 0.033786 0.032637
C21   C     C_R   0.690398 0.933080 0.032068 0.008987
C22   C     C_R   0.296105 0.861081 0.961066 0.016227
C23   C     C_R   0.190399 0.433074 0.032067 0.008817
C24   C     C_R   0.796156 0.361145 0.961079 0.016310
C25   C     C_R   0.813607 0.901552 0.048040 -0.163415
C26   C     C_R   0.229487 0.045503 0.975769 -0.138630
C27   C     C_R   0.313604 0.401507 0.048044 -0.163373
C28   C     C_R   0.729389 0.545411 0.975751 -0.138542
C29   C     C_R   0.820739 0.892515 0.974736 -0.138064
C30   C     C_R   0.227051 0.027758 0.049048 -0.149555
C31   C     C_R   0.320738 0.392468 0.974740 -0.137921
C32   C     C_R   0.726971 0.527696 0.049031 -0.149430
C33   C     C_3   0.629779 0.864319 0.948891 -0.251935
C34   C     C_3   0.286366 0.707616 0.024274 -0.232145
C35   C     C_3   0.129788 0.364293 0.948889 -0.252639
C36   C     C_3   0.786499 0.207674 0.024299 -0.232161
C37   C     C_3   0.624261 0.861074 0.029212 -0.235898
C38   C     C_3   0.290306 0.728075 0.944858 -0.270196
C39   C     C_3   0.124266 0.361057 0.029209 -0.235342
C40   C     C_3   0.790453 0.228122 0.944883 -0.270685
C41   C     C_R   0.747683 0.918464 0.077485 0.008082
C42   C     C_R   0.258419 0.955812 0.930837 0.019840
C43   C     C_R   0.247682 0.418451 0.077486 0.007956
C44   C     C_R   0.758402 0.455782 0.930833 0.020660
C45   C     C_R   0.529950 0.156247 0.147954 0.523979
C46   C     C_R   0.466589 0.155207 0.854693 0.539718
C47   C     C_R   0.029950 0.656247 0.147954 0.527092
C48   C     C_R   0.966588 0.655206 0.854695 0.530591
C49   C     C_R   0.453156 0.158476 0.563573 -0.030221
C50   C     C_R   0.491243 0.157481 0.419073 0.020382
C51   C     C_R   0.982195 0.661513 0.570245 -0.020617
C52   C     C_R   0.999473 0.660787 0.422429 -0.003433
C53   C     C_R   0.472867 0.051041 0.529629 -0.028393
C54   C     C_R   0.489895 0.049510 0.459123 -0.032405
C55   C     C_R   0.978641 0.552217 0.531764 -0.035946
C56   C     C_R   0.989568 0.551493 0.460025 -0.036007
C57   C     C_R   0.460396 0.262254 0.448649 -0.089312
C58   C     C_R   0.442757 0.263717 0.521562 -0.136511
C59   C     C_R   0.990311 0.771842 0.458476 -0.131353
C60   C     C_R   0.983982 0.772379 0.532664 -0.127662
C61   C     C_3   0.526375 0.957055 0.548861 0.490890
C62   C     C_3   0.544014 0.952561 0.470122 0.463456
C63   C     C_3   0.014190 0.431895 0.543113 0.473823
C64   C     C_3   0.030772 0.434666 0.464033 0.479521
C65   C     C_R   0.771350 0.866450 0.567363 0.052758
C66   C     C_R   0.244523 0.922843 0.422900 -0.040681
C67   C     C_R   0.274943 0.357580 0.566386 0.036457
C68   C     C_R   0.739493 0.410585 0.426038 -0.028229
C69   C     C_R   0.782825 0.985110 0.543124 0.056063
C70   C     C_R   0.185584 0.947804 0.464311 0.065564
C71   C     C_R   0.255483 0.474691 0.547240 0.086813
C72   C     C_R   0.680222 0.409402 0.469675 0.096913
C73   C     C_R   0.776179 0.010871 0.472762 -0.001649
C74   C     C_R   0.188340 0.951723 0.536977 -0.061259
C75   C     C_R   0.242438 0.504308 0.478273 0.056068
C76   C     C_R   0.685065 0.414378 0.542742 -0.040566
C77   C     C_R   0.732413 0.809156 0.448140 -0.102718
C78   C     C_R   0.311303 0.902805 0.531435 -0.144399
C79   C     C_R   0.265812 0.298853 0.440989 -0.154243
C80   C     C_R   0.810600 0.420540 0.530852 -0.160111
C81   C     C_R   0.742664 0.779255 0.520129 -0.139942
C82   C     C_R   0.307908 0.898551 0.457052 -0.190885
C83   C     C_R   0.276449 0.266700 0.512986 -0.195542
C84   C     C_R   0.805257 0.414562 0.457054 -0.198602
C85   C     C_3   0.841968 0.074496 0.551389 0.284550
C86   C     C_3   0.136632 0.053353 0.460117 0.278329
C87   C     C_3   0.282132 0.599351 0.564821 0.255492
C88   C     C_3   0.620538 0.496541 0.468873 0.276203
C89   C     C_R   0.741313 0.966989 0.148554 0.525000
C90   C     C_R   0.260718 0.977579 0.855127 0.543905
C91   C     C_R   0.241313 0.466987 0.148554 0.525240
C92   C     C_R   0.760712 0.477558 0.855123 0.543530
C93   C     C_3   0.836836 0.096174 0.472076 -0.183777
C94   C     C_3   0.137445 0.055779 0.540427 -0.167513
C95   C     C_3   0.266412 0.632002 0.487912 -0.213866
C96   C     C_3   0.622078 0.494751 0.549049 -0.182510
C97   C     C_R   0.753776 0.924347 0.423658 0.075027
C98   C     C_R   0.251630 0.933345 0.571973 -0.018834
C99   C     C_R   0.251976 0.421231 0.423511 0.088025
C100  C     C_R   0.750682 0.425003 0.574318 -0.013242
C101  C     C_R   0.728990 0.379011 0.352331 0.543287
C102  C     C_R   0.289182 0.330658 0.640291 0.521591
C103  C     C_R   0.230106 0.881462 0.351222 0.535995
C104  C     C_R   0.787496 0.834874 0.639920 0.553914
C105  C     C_R   0.530364 0.156244 0.352365 0.591783
C106  C     C_R   0.436595 0.152780 0.639066 0.528974
C107  C     C_R   0.032240 0.656337 0.353260 0.570103
C108  C     C_R   0.964933 0.656671 0.644942 0.546806
C109  C     C_R   0.742680 0.967689 0.352397 0.561304
C110  C     C_R   0.259607 0.974869 0.644438 0.530204
C111  C     C_R   0.242852 0.466122 0.351961 0.544953
C112  C     C_R   0.758806 0.471911 0.645610 0.536813
C113  C     C_R   0.487593 0.162408 0.929792 -0.005081
C114  C     C_R   0.495483 0.169425 0.078673 -0.000951
C115  C     C_R   0.987595 0.662407 0.929792 -0.003512
C116  C     C_R   0.995485 0.669424 0.078672 -0.001922
C117  C     C_R   0.502392 0.275162 0.964374 -0.022612
C118  C     C_R   0.499729 0.280270 0.039540 -0.003923
C119  C     C_R   0.002394 0.775161 0.964373 -0.022205
C120  C     C_R   0.999733 0.780270 0.039539 -0.004650
C121  C     C_R   0.475287 0.062474 0.044191 -0.161890
C122  C     C_R   0.472442 0.058389 0.971122 -0.152864
C123  C     C_R   0.975292 0.562471 0.044190 -0.162210
C124  C     C_R   0.972449 0.558386 0.971121 -0.151856
Cr1   Cr    Cr6+3 0.772010 0.169670 0.250090 1.058944
Cr2   Cr    Cr6+3 0.227990 0.169670 0.749910 1.056070
Cr3   Cr    Cr6+3 0.272010 0.669670 0.250090 1.052305
Cr4   Cr    Cr6+3 0.727990 0.669670 0.749910 1.066030
Cr5   Cr    Cr6+3 0.615000 0.323260 0.249260 1.081071
Cr6   Cr    Cr6+3 0.385000 0.323260 0.750740 1.074674
Cr7   Cr    Cr6+3 0.115000 0.823260 0.249260 1.076758
Cr8   Cr    Cr6+3 0.885000 0.823260 0.750740 1.077714
Cr9   Cr    Cr6+3 0.616710 0.010760 0.250840 1.084757
Cr10  Cr    Cr6+3 0.383290 0.010760 0.749160 1.101250
Cr11  Cr    Cr6+3 0.116710 0.510760 0.250840 1.092567
Cr12  Cr    Cr6+3 0.883290 0.510760 0.749160 1.092869
H1    H     H_    0.466085 0.978839 0.073640 0.167497
H2    H     H_    0.456893 0.972264 0.947224 0.177983
H3    H     H_    0.966092 0.478836 0.073639 0.167632
H4    H     H_    0.956903 0.472259 0.947223 0.178428
H5    H     H_    0.453508 0.343727 0.416947 0.203379
H6    H     H_    0.423310 0.347171 0.545183 0.188319
H7    H     H_    0.993008 0.857204 0.430100 0.228259
H8    H     H_    0.983007 0.858289 0.560706 0.231367
H9    H     H_    0.711536 0.742059 0.411472 0.109582
H10   H     H_    0.361059 0.886920 0.556854 0.230926
H11   H     H_    0.270925 0.230432 0.399658 0.098636
H12   H     H_    0.861235 0.433203 0.553772 0.221778
H13   H     H_    0.731803 0.687466 0.538016 0.102228
H14   H     H_    0.353555 0.872262 0.426752 0.164796
H15   H     H_    0.289641 0.173564 0.526323 0.098464
H16   H     H_    0.851744 0.413696 0.424475 0.154953
H17   H     H_    0.828117 0.155288 0.584355 0.163026
H18   H     H_    0.159148 0.135618 0.434343 0.146656
H19   H     H_    0.249714 0.648571 0.604579 0.134762
H20   H     H_    0.633935 0.586284 0.445013 0.131018
H21   H     H_    0.820786 0.188880 0.457573 0.144289
H22   H     H_    0.159717 0.142162 0.561830 0.152885
H23   H     H_    0.221829 0.695598 0.482334 0.121369
H24   H     H_    0.631782 0.586832 0.571804 0.151955
H25   H     H_    0.881833 0.059352 0.441460 0.202301
H26   H     H_    0.086920 0.027767 0.564811 0.207880
H27   H     H_    0.313740 0.652606 0.455775 0.198414
H28   H     H_    0.576983 0.445310 0.573065 0.198863
H29   H     H_    0.525489 0.384243 0.870082 0.168162
H30   H     H_    0.487308 0.404382 0.129319 0.157894
H31   H     H_    0.025494 0.884237 0.870080 0.166249
H32   H     H_    0.987320 0.904386 0.129317 0.158894
H33   H     H_    0.859091 0.897298 0.081824 0.139837
H34   H     H_    0.206760 0.127069 0.954072 0.143319
H35   H     H_    0.359085 0.397233 0.081831 0.139644
H36   H     H_    0.706586 0.626903 0.954045 0.143094
H37   H     H_    0.871848 0.873874 0.953327 0.162875
H38   H     H_    0.199046 0.092136 0.082129 0.139876
H39   H     H_    0.371845 0.373808 0.953331 0.162406
H40   H     H_    0.698912 0.592020 0.082097 0.139486
H41   H     H_    0.135408 0.273545 0.923777 0.184479
H42   H     H_    0.734662 0.173404 0.042095 0.145030
H43   H     H_    0.635387 0.773578 0.923771 0.183997
H44   H     H_    0.234516 0.673434 0.042089 0.144916
H45   H     H_    0.590562 0.924389 0.923306 0.170267
H46   H     H_    0.331969 0.657732 0.045626 0.200158
H47   H     H_    0.090568 0.424348 0.923297 0.169373
H48   H     H_    0.832117 0.157869 0.045673 0.199985
H49   H     H_    0.579839 0.912915 0.050708 0.186002
H50   H     H_    0.338691 0.691276 0.920464 0.193608
H51   H     H_    0.079840 0.412892 0.050701 0.185662
H52   H     H_    0.838874 0.191424 0.920512 0.192967
H53   H     H_    0.630552 0.767998 0.051692 0.163487
H54   H     H_    0.241166 0.703701 0.916521 0.137956
H55   H     H_    0.130564 0.267987 0.051693 0.163807
H56   H     H_    0.741341 0.203629 0.916529 0.139115
O1    O     O_R   0.787520 0.042810 0.170440 -0.513247
O2    O     O_R   0.212480 0.042810 0.829560 -0.508873
O3    O     O_R   0.287520 0.542810 0.170440 -0.512964
O4    O     O_R   0.712480 0.542810 0.829560 -0.509598
O5    O     O_R   0.556610 0.252880 0.323980 -0.457078
O6    O     O_R   0.443390 0.252880 0.676020 -0.499122
O7    O     O_R   0.056610 0.752880 0.323980 -0.487640
O8    O     O_R   0.943390 0.752880 0.676020 -0.503758
O9    O     O_R   0.545950 0.051210 0.330860 -0.474771
O10   O     O_R   0.454050 0.051210 0.669140 -0.441794
O11   O     O_R   0.045950 0.551210 0.330860 -0.462806
O12   O     O_R   0.954050 0.551210 0.669140 -0.465952
O13   O     O_R   0.681390 0.959480 0.325510 -0.440455
O14   O     O_R   0.318610 0.959480 0.674490 -0.499943
O15   O     O_R   0.181390 0.459480 0.325510 -0.436369
O16   O     O_R   0.818610 0.459480 0.674490 -0.491145
O17   O     O_3   0.667900 0.167900 0.250060 -0.266343
O18   O     O_3   0.332100 0.167900 0.749940 -0.324649
O19   O     O_3   0.167900 0.667900 0.250060 -0.269457
O20   O     O_3   0.832100 0.667900 0.749940 -0.304641
O21   O     O_R   0.765640 0.292100 0.175020 -0.494147
O22   O     O_R   0.234360 0.292100 0.824980 -0.496005
O23   O     O_R   0.265640 0.792100 0.175020 -0.494105
O24   O     O_R   0.734360 0.792100 0.824980 -0.497798
O25   O     O_R   0.670190 0.408840 0.168540 -0.511367
O26   O     O_R   0.329810 0.408840 0.831460 -0.504747
O27   O     O_R   0.170190 0.908840 0.168540 -0.509124
O28   O     O_R   0.829810 0.908840 0.831460 -0.506949
O29   O     O_R   0.556620 0.251410 0.175160 -0.517072
O30   O     O_R   0.443380 0.251410 0.824840 -0.511432
O31   O     O_R   0.056620 0.751410 0.175160 -0.513521
O32   O     O_R   0.943380 0.751410 0.824840 -0.515300
O33   O     O_R   0.545960 0.049620 0.170320 -0.517473
O34   O     O_R   0.454040 0.049620 0.829680 -0.496655
O35   O     O_R   0.045960 0.549620 0.170320 -0.515133
O36   O     O_R   0.954040 0.549620 0.829680 -0.501025
O37   O     O_R   0.681390 0.958010 0.176690 -0.503671
O38   O     O_R   0.318610 0.958010 0.823310 -0.487634
O39   O     O_R   0.181390 0.458010 0.176690 -0.502291
O40   O     O_R   0.818610 0.458010 0.823310 -0.489437
O41   O     O_R   0.787510 0.044390 0.330970 -0.529992
O42   O     O_R   0.212490 0.044390 0.669030 -0.519015
O43   O     O_R   0.287510 0.544390 0.330970 -0.526277
O44   O     O_R   0.712490 0.544390 0.669030 -0.523356
O45   O     O_R   0.765630 0.293570 0.323840 -0.494385
O46   O     O_R   0.234370 0.293570 0.676160 -0.475820
O47   O     O_R   0.265630 0.793570 0.323840 -0.502789
O48   O     O_R   0.734370 0.793570 0.676160 -0.478155
O49   O     O_R   0.670190 0.410420 0.329080 -0.476564
O50   O     O_R   0.329810 0.410420 0.670920 -0.442599
O51   O     O_R   0.170190 0.910420 0.329080 -0.464801
O52   O     O_R   0.829810 0.910420 0.670920 -0.447494
F1    F     F_    0.968084 0.339171 0.560849 -0.619453
F2    F     F_    0.100747 0.454142 0.451089 -0.639650
F3    F     F_    0.495763 0.850664 0.574025 -0.594582
F4    F     F_    0.610519 0.994909 0.455320 -0.629577
I1    I     I_    0.610041 0.023281 0.615942 -0.184118
I2    I     I_    0.518087 0.784956 0.416439 -0.203542
I3    I     I_    0.099008 0.437386 0.616731 -0.225606
I4    I     I_    0.988737 0.287679 0.401293 -0.180029
F5    F     F_    0.904479 0.021269 0.569936 -0.612169
F6    F     F_    0.072434 0.020128 0.433017 -0.613644
F7    F     F_    0.353179 0.600939 0.578685 -0.578929
F8    F     F_    0.561081 0.444853 0.441023 -0.616292
I5    I     I_    0.001360 0.152744 0.892990 -0.398928
I6    I     I_    0.984135 0.169690 0.089414 -0.445703
I7    I     I_    0.501309 0.652749 0.893003 -0.392445
I8    I     I_    0.484067 0.669697 0.089392 -0.451504

loop_
_geom_bond_atom_site_label_1
_geom_bond_atom_site_label_2
_ccdc_geom_bond_type
Cr12  O20   S    
C35   H41   S    
Cr11  O19   S    
C55   C56   A    
C88   C96   S    
C65   C69   A    
C67   C83   A    
C10   I6    S    
C98   C110  S    
C116  C123  A    
C9    I5    S    
C33   H43   S    
Cr9   O17   S    
C14   C18   A    
C111  O15   A    
C63   I3    S    
Cr8   O20   S    
C73   C93   S    
C72   C76   A    
C6    H30   S    
C96   H28   S    
C75   C95   S    
C123  C124  A    
C88   F8    S    
C31   H39   S    
C53   C54   A    
C109  O13   A    
C15   C19   A    
Cr2   O2    S    
Cr12  O40   S    
C8    C120  A    
C50   C54   A    
Cr11  O35   S    
C95   H23   S    
Cr3   O47   S    
Cr10  O34   S    
C13   C29   A    
C69   C73   A    
C32   H40   S    
Cr9   O33   S    
C5    C11   A    
C95   H27   S    
C47   O31   A    
C6    C12   A    
C35   C39   S    
C48   O36   A    
C81   H13   S    
Cr10  O14   S    
C66   C82   A    
C92   O40   A    
C35   H47   S    
Cr10  O18   S    
C22   C38   S    
C123  H3    S    
Cr7   O7    S    
Cr8   O8    S    
C23   C43   A    
Cr7   O27   S    
C121  H1    S    
C4    C13   S    
Cr6   O26   S    
C74   C94   S    
Cr5   O25   S    
C8    H32   S    
C64   I4    S    
C114  C121  A    
Cr1   O21   S    
C45   C114  S    
Cr8   O52   S    
C37   H49   S    
C113  C122  A    
C20   C24   A    
C52   C107  S    
C51   C108  S    
C38   H54   S    
C55   C63   S    
C78   C98   A    
C50   C105  S    
C111  O43   A    
C56   C64   S    
C77   C97   A    
C36   H48   S    
C5    H29   S    
C101  O49   A    
C9    C10   A    
C94   H26   S    
C51   C55   A    
C44   C92   S    
C110  O42   A    
C68   C72   A    
C106  O6    A    
C39   H51   S    
Cr4   O44   S    
C105  O5    A    
Cr12  O36   S    
C59   H7    S    
C59   C60   A    
C94   H22   S    
Cr11  O39   S    
C80   C100  A    
C25   C29   A    
C50   C57   A    
Cr2   O22   S    
C107  O11   A    
C12   I8    S    
C17   C33   S    
C14   C30   A    
C72   C88   S    
C28   H36   S    
Cr10  O10   S    
C1    O21   A    
C83   H15   S    
C67   C102  S    
Cr9   O9    S    
C47   C116  S    
C63   F1    S    
C102  O46   A    
C100  C112  S    
C39   H55   S    
C27   C31   A    
C80   C84   A    
C68   C84   A    
C7    C119  A    
C76   C100  A    
C36   C40   S    
Cr6   O30   S    
C36   H42   S    
C68   C101  S    
C122  H2    S    
Cr5   O29   S    
Cr2   O18   S    
C25   C41   A    
C57   H5    S    
Cr12  O16   S    
Cr1   O17   S    
C19   C23   A    
C60   H8    S    
Cr11  O11   S    
C48   O32   A    
C4    O28   A    
C38   H50   S    
C101  O45   A    
C15   C31   A    
C28   C44   A    
C43   C91   S    
C49   C58   A    
C116  C120  A    
C91   O39   A    
C42   C90   S    
C34   C38   S    
C108  O8    A    
C80   H12   S    
C73   C97   A    
Cr2   O46   S    
C70   C74   A    
C52   C59   A    
Cr3   O3    S    
C76   C96   S    
C106  O10   A    
C47   O35   A    
C97   C109  S    
C78   C82   A    
C105  O9    A    
C85   C93   S    
C40   H56   S    
C28   C32   A    
C62   F4    S    
C16   C20   A    
C82   H14   S    
C99   C111  S    
C75   C99   A    
C86   C94   S    
C46   O34   A    
C79   C99   A    
C64   F2    S    
Cr8   O28   S    
C110  O14   A    
C1    C16   S    
C85   H17   S    
C93   H21   S    
C2    C15   S    
C18   C34   S    
C112  O16   A    
C121  C122  A    
C114  C118  A    
Cr9   O13   S    
C115  C124  A    
Cr4   O24   S    
C48   C115  S    
C102  O50   A    
C89   O1    A    
C84   H16   S    
C3    O27   A    
C109  O41   A    
C96   H24   S    
C71   C75   A    
C93   H25   S    
C2    O22   A    
C115  C119  A    
C37   H53   S    
Cr7   O19   S    
C61   F3    S    
C24   C44   A    
C71   C87   S    
Cr6   O18   S    
C61   I1    S    
C16   C32   A    
C53   C61   S    
C70   C86   S    
C104  O52   A    
C27   H35   S    
Cr12  O12   S    
Cr1   O45   S    
C26   C42   A    
Cr11  O15   S    
C113  C117  A    
Cr3   O19   S    
C90   O2    A    
C7    C9    A    
C7    H31   S    
C87   C95   S    
Cr7   O51   S    
C58   H6    S    
C74   C98   A    
C46   C113  S    
C41   C89   S    
Cr8   O32   S    
C107  O7    A    
Cr3   O43   S    
C66   C103  S    
C69   C85   S    
C8    C10   A    
C124  H4    S    
Cr4   O4    S    
C29   H37   S    
C92   O4    A    
Cr9   O37   S    
C5    C117  A    
C33   H45   S    
C79   H11   S    
C119  C120  A    
C26   C30   A    
C49   C106  S    
C40   H52   S    
C87   H19   S    
C3    C14   S    
C86   F6    S    
C54   C62   S    
C91   O3    A    
C85   F5    S    
C103  O51   A    
C46   O30   A    
C13   C17   A    
C25   H33   S    
C21   C41   A    
C18   C22   A    
C45   O33   A    
C45   O29   A    
C108  O12   A    
Cr4   O48   S    
C112  O44   A    
C117  C118  A    
Cr4   O20   S    
C79   C83   A    
Cr6   O50   S    
Cr3   O23   S    
C57   C58   A    
C66   C70   A    
C77   H9    S    
Cr5   O49   S    
C23   C39   S    
C19   C35   S    
C24   C40   S    
Cr1   O1    S    
C6    C118  A    
C34   H46   S    
C67   C71   A    
Cr5   O17   S    
Cr10  O38   S    
C86   H18   S    
C61   C62   S    
Cr2   O42   S    
C77   C81   A    
C33   C37   S    
C87   F7    S    
C49   C53   A    
Cr1   O41   S    
C78   H10   S    
C63   C64   S    
C20   C36   S    
C27   C43   A    
C62   I2    S    
C21   C37   S    
C26   H34   S    
C103  O47   A    
C34   H44   S    
C1    O25   A    
C22   C42   A    
C4    O24   A    
C2    O26   A    
C104  O48   A    
C65   C81   A    
C90   O38   A    
Cr7   O31   S    
C51   C60   A    
C88   H20   S    
C65   C104  S    
C89   O37   A    
Cr6   O6    S    
C3    O23   A    
C30   H38   S    
Cr5   O5    S    
C52   C56   A    
C11   C12   A    
C11   I7    S    
C17   C21   A    
