data_mof_unit_21878.cif
_audit_creation_date              2012-10-26T18:27:31-0400
_audit_creation_method            fapswitch 2.2
_symmetry_space_group_name_H-M    P1
_symmetry_Int_Tables_number       1
_space_group_crystal_system       triclinic
_cell_length_a                    10.76851
_cell_length_b                    11.033246
_cell_length_c                    9.832356
_cell_angle_alpha                 111.095647
_cell_angle_beta                  98.098546
_cell_angle_gamma                 91.058493
_cell_volume                      1076.00665191

loop_
_atom_site_label
_atom_site_type_symbol
_atom_type_description
_atom_site_fract_x
_atom_site_fract_y
_atom_site_fract_z
_atom_type_partial_charge
C1    C     C_R   0.490865 0.254133 0.440676 0.560578
C2    C     C_2   0.497432 0.930427 0.483509 -0.158011
C3    C     C_2   0.510754 0.510522 0.081247 -0.019567
C4    C     C_R   0.262837 0.503629 0.502127 0.539439
C5    C     C_2   0.488860 0.489908 0.918887 -0.020470
C6    C     C_R   0.509091 0.745862 0.559342 0.543285
C7    C     C_R   0.737460 0.504769 0.499892 0.538429
C8    C     C_R   0.159271 0.731625 0.701082 -0.152140
C9    C     C_R   0.108746 0.839559 0.795151 -0.118191
C10   C     C_R   0.978056 0.840946 0.795746 0.293200
C11   C     C_R   0.899958 0.734127 0.696204 -0.069318
C12   C     C_R   0.081067 0.621474 0.604499 0.010055
C13   C     C_R   0.949692 0.622842 0.601660 -0.025899
C14   C     C_3   0.991224 0.011037 0.023044 -0.121212
C15   C     C_R   0.129647 0.511762 0.505739 0.016299
C16   C     C_R   0.049670 0.408890 0.402472 -0.147861
C17   C     C_R   0.921358 0.410161 0.399679 -0.143766
C18   C     C_R   0.871326 0.514294 0.500210 0.005991
C19   C     C_2   0.485762 0.114770 0.407279 -0.131951
C20   C     C_2   0.502191 0.069566 0.516628 -0.156410
C21   C     C_2   0.514060 0.885202 0.592821 -0.125498
Cu1   Cu    Cu3+1 0.521920 0.521810 0.644910 0.934514
Cu2   Cu    Cu3+1 0.478080 0.478190 0.355090 0.934017
H1    H     H_    0.087117 0.325985 0.325230 0.113625
H2    H     H_    0.860932 0.327790 0.321350 0.124671
H3    H     H_    0.480173 0.864615 0.368573 0.156723
H4    H     H_    0.519373 0.135386 0.631563 0.160647
H5    H     H_    0.531344 0.951277 0.707572 0.113164
H6    H     H_    0.067377 0.078600 0.019486 0.116624
H7    H     H_    0.029779 0.940774 0.072886 0.113429
H8    H     H_    0.928180 0.070963 0.096528 0.140709
H9    H     H_    0.468552 0.048648 0.292542 0.099912
H10   H     H_    0.415005 0.418300 0.846264 0.148965
H11   H     H_    0.584115 0.582681 0.154018 0.149203
H12   H     H_    0.625050 0.621213 0.933924 0.207480
H13   H     H_    0.376002 0.377619 0.065758 0.202116
H14   H     H_    0.259799 0.737287 0.702788 0.147227
H15   H     H_    0.172240 0.922678 0.864582 0.102387
H16   H     H_    0.799574 0.740639 0.692829 0.152326
N1    N     N_2   0.445130 0.445430 0.137370 -0.351083
N2    N     N_2   0.554930 0.554500 0.862630 -0.350877
O1    O     O_R   0.511700 0.332330 0.577400 -0.491273
O2    O     O_R   0.474680 0.295500 0.332650 -0.492434
O3    O     O_R   0.338160 0.518420 0.622400 -0.504487
O4    O     O_R   0.301140 0.481590 0.377650 -0.491465
O5    O     O_R   0.525320 0.704500 0.667350 -0.502133
O6    O     O_R   0.488300 0.667670 0.422600 -0.496317
O7    O     O_R   0.698860 0.518410 0.622350 -0.493395
O8    O     O_R   0.661840 0.481580 0.377600 -0.495554
O9    O     O_3   0.920570 0.947793 0.881085 -0.565704

loop_
_geom_bond_atom_site_label_1
_geom_bond_atom_site_label_2
_ccdc_geom_bond_type
Cu1   O7    S    
Cu2   O4    S    
C20   H4    S    
C6    O5    A    
C9    C10   A    
C19   C20   D    
C12   C15   A    
C14   H8    S    
C8    C12   A    
C7    C18   S    
C17   H2    S    
C7    O7    A    
C2    C21   D    
C17   C18   A    
C2    H3    S    
C14   O9    S    
C6    C21   S    
C11   H16   S    
C11   C13   A    
Cu1   O1    S    
C13   C18   A    
C14   H7    S    
C19   H9    S    
C9    H15   S    
Cu1   O5    S    
C21   H5    S    
C3    N1    D    
C4    O4    A    
C4    C15   S    
H12   N2    S    
Cu2   O8    S    
Cu1   N2    S    
Cu2   O6    S    
C10   C11   A    
C14   H6    S    
C2    C20   S    
C15   C16   A    
C10   O9    S    
C6    O6    A    
C1    O1    A    
H13   N1    S    
Cu2   O2    S    
C12   C13   A    
C7    O8    A    
C16   H1    S    
C8    H14   S    
C5    N2    D    
Cu1   Cu2   S    
C8    C9    A    
C4    O3    A    
C3    H11   S    
C1    C19   S    
C1    O2    A    
Cu1   O3    S    
Cu2   N1    S    
C16   C17   A    
C3    C5    S    
C5    H10   S    
