data_mof_unit_21202.cif
_audit_creation_date              2013-03-05T16:21:17-0500
_audit_creation_method            fapswitch 2.2
_symmetry_space_group_name_H-M    P1
_symmetry_Int_Tables_number       1
_space_group_crystal_system       triclinic
_cell_length_a                    23.297241
_cell_length_b                    29.370142
_cell_length_c                    8.378389
_cell_angle_alpha                 90.042349
_cell_angle_beta                  93.300496
_cell_angle_gamma                 89.950388
_cell_volume                      5723.34384626

loop_
_atom_site_label
_atom_site_type_symbol
_atom_site_description
_atom_site_fract_x
_atom_site_fract_y
_atom_site_fract_z
_atom_type_partial_charge
P1    P     P_3+3 0.880180 0.450420 0.058010 0.474372
P2    P     P_3+3 0.880180 0.549580 0.558010 0.472105
P3    P     P_3+3 0.380180 0.950420 0.058010 0.472954
P4    P     P_3+3 0.380180 0.049580 0.558010 0.474530
O1    O     O_2   0.885810 0.435270 0.885040 -0.334959
O2    O     O_2   0.885810 0.564730 0.385040 -0.336016
O3    O     O_2   0.385810 0.935270 0.885040 -0.335886
O4    O     O_2   0.385810 0.064730 0.385040 -0.335013
O5    O     O_3   0.933490 0.477290 0.133000 -0.368061
O6    O     O_3   0.933490 0.522710 0.633000 -0.369031
O7    O     O_3   0.433490 0.977290 0.133000 -0.368357
O8    O     O_3   0.433490 0.022710 0.633000 -0.367952
O9    O     O_3   0.980190 0.395350 0.639000 -0.350556
O10   O     O_3   0.980190 0.604650 0.139000 -0.340143
O11   O     O_3   0.480190 0.895350 0.639000 -0.365451
O12   O     O_3   0.480190 0.104650 0.139000 -0.339715
O13   O     O_2   0.887268 0.359405 0.755180 -0.358215
O14   O     O_2   0.885414 0.639290 0.246965 -0.348199
O15   O     O_2   0.387275 0.858627 0.751262 -0.365665
O16   O     O_2   0.386022 0.139221 0.251679 -0.352145
O17   O     O_3   0.822352 0.488196 0.025555 -0.628536
O18   O     O_3   0.822189 0.512009 0.525867 -0.628889
O19   O     O_3   0.322117 0.987974 0.025810 -0.628004
O20   O     O_3   0.322374 0.011854 0.525730 -0.628862
O21   O     O_3   0.961338 0.299600 0.671397 -0.486073
O22   O     O_3   0.960707 0.699115 0.178912 -0.542289
O23   O     O_3   0.462642 0.799513 0.666439 -0.516377
O24   O     O_3   0.460423 0.199391 0.180801 -0.490108
C1    C     C_3   0.995852 0.228621 0.554719 0.422781
C2    C     C_3   0.989571 0.761037 0.012770 0.304956
C3    C     C_3   0.509395 0.738467 0.520826 0.400679
C4    C     C_3   0.499068 0.271124 0.088467 0.404861
P5    P     P_3+3 0.119600 0.450040 0.631910 0.460947
P6    P     P_3+3 0.119600 0.549960 0.131910 0.459866
P7    P     P_3+3 0.619600 0.950040 0.631910 0.454348
P8    P     P_3+3 0.619600 0.049960 0.131910 0.460790
P9    P     P_3+3 0.070698 0.352363 0.070719 0.464791
P10   P     P_3+3 0.068948 0.648686 0.573914 0.454720
P11   P     P_3+3 0.569352 0.851606 0.074333 0.422998
P12   P     P_3+3 0.570520 0.147755 0.571537 0.472900
O25   O     O_2   0.113920 0.434910 0.804950 -0.374383
O26   O     O_2   0.113920 0.565090 0.304950 -0.377239
O27   O     O_2   0.613920 0.934910 0.804950 -0.376939
O28   O     O_2   0.613920 0.065090 0.304950 -0.375367
O29   O     O_3   0.019410 0.395290 0.051170 -0.394926
O30   O     O_3   0.019410 0.604710 0.551170 -0.394081
O31   O     O_3   0.519410 0.895290 0.051170 -0.391297
O32   O     O_3   0.519410 0.104710 0.551170 -0.392251
O33   O     O_2   0.108751 0.355638 0.926048 -0.376733
O34   O     O_2   0.110184 0.643654 0.436868 -0.390187
O35   O     O_2   0.612373 0.857619 0.942290 -0.402363
O36   O     O_2   0.609304 0.144042 0.428526 -0.369897
O37   O     O_3   0.179728 0.485864 0.644592 -0.566683
O38   O     O_3   0.180886 0.515324 0.140702 -0.568451
O39   O     O_3   0.680436 0.985091 0.641884 -0.565062
O40   O     O_3   0.679842 0.014156 0.143991 -0.567447
O41   O     O_3   0.034147 0.300660 0.042369 -0.476005
O42   O     O_3   0.032351 0.699863 0.531790 -0.493022
O43   O     O_3   0.534018 0.800325 0.026662 -0.520527
O44   O     O_3   0.534055 0.199443 0.540435 -0.472582
C5    C     C_3   0.977730 0.306058 0.090848 0.494360
C6    C     C_3   0.976010 0.696113 0.582463 0.513142
C7    C     C_3   0.476409 0.804150 0.066390 0.413732
C8    C     C_3   0.478989 0.195247 0.599501 0.444081
H1    H     H_    0.952014 0.326873 0.002223 0.145960
H2    H     H_    0.951543 0.669646 0.512473 0.126483
H3    H     H_    0.453065 0.829048 0.987145 0.159231
H4    H     H_    0.451087 0.174060 0.517040 0.143656
H5    H     H_    0.977396 0.322857 0.209386 -0.035890
H6    H     H_    0.976544 0.687637 0.711464 -0.024239
H7    H     H_    0.473386 0.815040 0.192099 -0.005292
H8    H     H_    0.480927 0.179658 0.720446 -0.011326
C9    C     C_3   0.949358 0.259628 0.101906 -0.831325
C10   C     C_3   0.944617 0.741215 0.555815 -0.817096
C11   C     C_3   0.447095 0.758186 0.045015 -0.739627
C12   C     C_3   0.451892 0.242146 0.610700 -0.829306
H9    H     H_    0.939395 0.245774 0.980747 0.318723
H10   H     H_    0.935599 0.747261 0.426300 0.293310
H11   H     H_    0.440557 0.749909 0.916304 0.302477
H12   H     H_    0.410430 0.239768 0.668631 0.194710
H13   H     H_    0.978219 0.235686 0.170309 0.262298
H14   H     H_    0.970708 0.769836 0.606785 0.299894
H15   H     H_    0.474038 0.731263 0.104425 0.286693
H16   H     H_    0.443409 0.256405 0.489409 0.319689
C13   C     C_3   0.167439 0.472224 0.197604 0.409450
C14   C     C_3   0.164094 0.529144 0.696264 0.418643
C15   C     C_3   0.664234 0.970893 0.195607 0.418086
C16   C     C_3   0.666268 0.028217 0.697787 0.413474
H17   H     H_    0.152737 0.475282 0.320316 0.099444
H18   H     H_    0.146454 0.526680 0.815614 0.096260
H19   H     H_    0.647379 0.973391 0.315947 0.096797
H20   H     H_    0.650533 0.025276 0.819339 0.097181
H21   H     H_    0.134041 0.455534 0.117622 0.122798
H22   H     H_    0.132095 0.545104 0.610200 0.127558
H23   H     H_    0.631639 0.955165 0.110745 0.131626
H24   H     H_    0.633344 0.044797 0.615979 0.122512
C17   C     C_3   0.221608 0.443114 0.201621 -0.933049
C18   C     C_3   0.217704 0.558824 0.707643 -0.950032
C19   C     C_3   0.717540 0.940794 0.204019 -0.939216
C20   C     C_3   0.720336 0.057393 0.704875 -0.940273
H25   H     H_    0.255738 0.459035 0.281099 0.278006
H26   H     H_    0.249942 0.544189 0.796071 0.279321
H27   H     H_    0.750348 0.955012 0.291686 0.276133
H28   H     H_    0.753894 0.041639 0.786715 0.278275
H29   H     H_    0.212854 0.408586 0.247258 0.214358
H30   H     H_    0.207057 0.593753 0.745791 0.210856
H31   H     H_    0.706652 0.905861 0.241555 0.215454
H32   H     H_    0.711076 0.091978 0.749253 0.213592
H33   H     H_    0.237137 0.439915 0.079208 0.261415
H34   H     H_    0.236600 0.560779 0.589091 0.263337
H35   H     H_    0.735796 0.938915 0.084585 0.262449
H36   H     H_    0.736904 0.060408 0.583628 0.262788
Ba1   Ba    Ba6+2 0.999920 0.467660 0.844980 1.603668
Ba2   Ba    Ba6+2 0.999920 0.532340 0.344980 1.599803
Ba3   Ba    Ba6+2 0.499920 0.967660 0.844980 1.592390
Ba4   Ba    Ba6+2 0.499920 0.032340 0.344980 1.606733
C21   C     C_3   0.798087 0.500613 0.167899 0.739539
C22   C     C_3   0.798003 0.499898 0.668512 0.735973
C23   C     C_3   0.297812 0.000092 0.168366 0.736080
C24   C     C_3   0.298236 0.999563 0.668264 0.737011
H37   H     H_    0.831780 0.501086 0.264275 0.100606
H38   H     H_    0.831823 0.499281 0.764536 0.101393
H39   H     H_    0.331577 0.000742 0.264527 0.100718
H40   H     H_    0.331935 0.999301 0.764689 0.100765
C25   C     C_3   0.750618 0.466993 0.208954 -0.885291
C26   C     C_3   0.750935 0.533903 0.709949 -0.875249
C27   C     C_3   0.250792 0.966074 0.209365 -0.875947
C28   C     C_3   0.250607 0.033149 0.708967 -0.877020
H41   H     H_    0.719297 0.462659 0.104969 0.267601
H42   H     H_    0.719657 0.538549 0.606037 0.268694
H43   H     H_    0.219347 0.961713 0.105676 0.270092
H44   H     H_    0.219247 0.037290 0.604974 0.268642
H45   H     H_    0.727704 0.479569 0.312962 0.277570
H46   H     H_    0.727885 0.521496 0.813832 0.276412
H47   H     H_    0.227940 0.978311 0.313949 0.276360
H48   H     H_    0.227781 0.020680 0.813167 0.277158
H49   H     H_    0.768779 0.433459 0.243386 0.222863
H50   H     H_    0.769557 0.567256 0.744710 0.223442
H51   H     H_    0.269388 0.932595 0.242726 0.221039
H52   H     H_    0.268643 0.066759 0.742859 0.222475
O45   O     O_3   0.066460 0.522600 0.056690 -0.403108
O46   O     O_3   0.066460 0.477400 0.556690 -0.403454
O47   O     O_3   0.566460 0.022600 0.056690 -0.404366
O48   O     O_3   0.566460 0.977400 0.556690 -0.401453
P13   P     P_3+3 0.928677 0.647541 0.117528 0.498702
P14   P     P_3+3 0.928308 0.352136 0.619486 0.502658
P15   P     P_3+3 0.428127 0.147607 0.119587 0.518008
P16   P     P_3+3 0.429173 0.851917 0.617137 0.487020
C29   C     C_3   0.985710 0.280329 0.536265 0.150882
C30   C     C_3   0.004054 0.712503 0.077823 0.215250
C31   C     C_3   0.506647 0.790129 0.561725 0.163060
C32   C     C_3   0.485138 0.220456 0.050341 0.156783
H53   H     H_    0.956145 0.283724 0.428841 0.016476
H54   H     H_    0.007406 0.689563 0.973035 0.028283
H55   H     H_    0.499181 0.807989 0.445834 0.001222
H56   H     H_    0.454336 0.220936 0.944588 0.029154
H57   H     H_    0.012573 0.216612 0.440060 0.018201
H58   H     H_    0.954033 0.757064 0.919286 0.025213
H59   H     H_    0.529867 0.735910 0.404057 0.014709
H60   H     H_    0.522467 0.285303 0.987506 0.005619
H61   H     H_    0.908545 0.262548 0.162567 0.192050
H62   H     H_    0.903167 0.740531 0.614214 0.182025
H63   H     H_    0.404539 0.758927 0.097778 0.201669
H64   H     H_    0.480976 0.265275 0.682297 0.261879
C33   C     C_R   0.755829 0.289965 0.000485 0.029464
C34   C     C_R   0.754407 0.709290 0.503283 0.030458
C35   C     C_R   0.257451 0.789207 0.998178 0.023393
C36   C     C_R   0.255013 0.209606 0.501408 0.033920
C37   C     C_R   0.759599 0.331574 0.917267 -0.143538
C38   C     C_R   0.757682 0.667316 0.421776 -0.121605
C39   C     C_R   0.260829 0.830905 0.915418 -0.126099
C40   C     C_R   0.258787 0.167904 0.418547 -0.132238
C41   C     C_R   0.199573 0.751608 0.777469 -0.145707
C42   C     C_R   0.196456 0.246779 0.280985 -0.175257
C43   C     C_R   0.698307 0.252259 0.778995 -0.185344
C44   C     C_R   0.692194 0.744852 0.287535 -0.164501
C45   C     C_R   0.224385 0.751763 0.935300 0.060785
C46   C     C_R   0.221960 0.247054 0.438140 0.076969
C47   C     C_R   0.723178 0.252342 0.936877 0.064703
C48   C     C_R   0.720119 0.746200 0.441565 0.077368
C49   C     C_R   0.163523 0.716658 0.721974 -0.039287
C50   C     C_R   0.162073 0.282458 0.223132 -0.124324
C51   C     C_R   0.663675 0.216675 0.721514 -0.127286
C52   C     C_R   0.656464 0.779862 0.231769 -0.136067
C53   C     C_R   0.150547 0.680099 0.820952 -0.017735
C54   C     C_R   0.151703 0.320445 0.318361 -0.019877
C55   C     C_R   0.652436 0.179173 0.817986 -0.038772
C56   C     C_R   0.647064 0.818243 0.325960 -0.027334
C57   C     C_R   0.179865 0.676590 0.973445 -0.018639
C58   C     C_R   0.179928 0.323417 0.472622 0.007909
C59   C     C_R   0.680518 0.176316 0.972414 0.012323
C60   C     C_R   0.677908 0.822480 0.475978 0.013842
C61   C     C_R   0.216865 0.712582 0.031113 0.045695
C62   C     C_R   0.215357 0.286711 0.532610 0.068815
C63   C     C_R   0.716209 0.212908 0.031951 0.078708
C64   C     C_R   0.714568 0.786351 0.534235 0.060512
C65   C     C_R   0.109136 0.647005 0.771997 0.170091
C66   C     C_R   0.113355 0.355279 0.264570 0.163053
C67   C     C_R   0.612498 0.145176 0.766600 0.155300
C68   C     C_R   0.607753 0.852523 0.274199 0.178226
C69   C     C_R   0.097717 0.610861 0.874862 -0.524171
C70   C     C_R   0.102958 0.392089 0.365620 -0.547446
C71   C     C_R   0.600867 0.109161 0.869611 -0.511353
C72   C     C_R   0.598004 0.889649 0.374143 -0.522693
C73   C     C_R   0.130134 0.604188 0.019181 0.271470
C74   C     C_R   0.132431 0.397006 0.515059 0.258894
C75   C     C_R   0.631712 0.103431 0.016732 0.255043
C76   C     C_R   0.630819 0.896308 0.517619 0.233908
C77   C     C_R   0.171921 0.637346 0.068821 -0.035873
C78   C     C_R   0.172674 0.362989 0.567176 -0.044491
C79   C     C_R   0.672747 0.137011 0.067677 -0.044920
C80   C     C_R   0.672132 0.862807 0.567686 -0.052832
C81   C     C_R   0.783791 0.286906 0.155184 0.049928
C82   C     C_R   0.784816 0.713538 0.654207 0.046871
C83   C     C_R   0.285814 0.786003 0.152244 0.038360
C84   C     C_R   0.283525 0.212979 0.655307 0.053461
C85   C     C_R   0.819407 0.323514 0.215159 0.028142
C86   C     C_R   0.821549 0.677448 0.712608 0.029820
C87   C     C_R   0.321688 0.822493 0.211694 0.019260
C88   C     C_R   0.319661 0.176619 0.714658 0.031206
C89   C     C_R   0.827275 0.362801 0.120212 -0.075732
C90   C     C_R   0.828179 0.637530 0.619596 -0.079047
C91   C     C_R   0.328758 0.862109 0.117793 -0.078703
C92   C     C_R   0.327391 0.137213 0.620046 -0.076664
C93   C     C_R   0.793840 0.367133 0.976951 -0.029386
C94   C     C_R   0.793273 0.632379 0.479414 -0.035925
C95   C     C_R   0.294890 0.866545 0.975283 -0.030041
C96   C     C_R   0.293513 0.132569 0.477673 -0.031741
H65   H     H_    0.065571 0.585917 0.837177 0.174722
H66   H     H_    0.071921 0.417716 0.326111 0.178198
H67   H     H_    0.569046 0.084021 0.831353 0.173968
H68   H     H_    0.566675 0.915116 0.335199 0.178841
H69   H     H_    0.144961 0.719467 0.601191 0.173822
H70   H     H_    0.143750 0.279611 0.102112 0.195975
H71   H     H_    0.645402 0.219406 0.600405 0.204031
H72   H     H_    0.636236 0.776015 0.113352 0.195510
H73   H     H_    0.793423 0.398156 0.908615 0.199097
H74   H     H_    0.792456 0.601067 0.412417 0.197623
H75   H     H_    0.293912 0.897729 0.907830 0.199553
H76   H     H_    0.293070 0.101455 0.409660 0.198617
C97   C     C_R   0.206271 0.632578 0.210727 -0.051804
C98   C     C_R   0.206182 0.367300 0.710618 -0.049371
C99   C     C_R   0.706357 0.132658 0.210945 -0.049621
C100  C     C_R   0.707432 0.868037 0.707467 -0.049179
C101  C     C_R   0.241617 0.667745 0.268279 -0.176381
C102  C     C_R   0.240414 0.331668 0.769705 -0.174358
C103  C     C_R   0.740797 0.168216 0.269728 -0.167723
C104  C     C_R   0.742721 0.832860 0.765262 -0.181490
C105  C     C_R   0.245473 0.709280 0.184779 0.050218
C106  C     C_R   0.243718 0.289957 0.686766 0.054208
C107  C     C_R   0.744292 0.209836 0.186474 0.063820
C108  C     C_R   0.745211 0.790668 0.684750 0.046464
C109  C     C_R   0.776573 0.247563 0.250431 0.042317
C110  C     C_R   0.778804 0.753501 0.747452 0.041658
C111  C     C_R   0.278458 0.746738 0.247752 0.040727
C112  C     C_R   0.276214 0.252335 0.750567 0.042249
C113  C     C_R   0.800449 0.247975 0.409295 -0.126057
C114  C     C_R   0.805300 0.754312 0.903281 -0.151240
C115  C     C_R   0.302499 0.747138 0.406365 -0.115475
C116  C     C_R   0.300235 0.252037 0.909295 -0.137813
C117  C     C_R   0.846971 0.320765 0.370161 -0.044749
C118  C     C_R   0.851031 0.681128 0.864790 -0.035084
C119  C     C_R   0.349639 0.819597 0.366106 -0.046241
C120  C     C_R   0.347535 0.179567 0.869211 -0.047572
C121  C     C_R   0.834641 0.283717 0.467392 -0.135462
C122  C     C_R   0.840376 0.718991 0.960261 -0.145953
C123  C     C_R   0.337068 0.782742 0.463794 -0.080866
C124  C     C_R   0.334784 0.216435 0.966959 -0.136280
C125  C     C_R   0.886402 0.354919 0.423135 0.208670
C126  C     C_R   0.889806 0.646602 0.917868 0.194767
C127  C     C_R   0.388625 0.853965 0.419393 0.221700
C128  C     C_R   0.387340 0.145602 0.921595 0.203179
C129  C     C_R   0.896551 0.391955 0.323027 -0.391708
C130  C     C_R   0.898863 0.608999 0.819329 -0.391313
C131  C     C_R   0.398104 0.891319 0.320286 -0.392136
C132  C     C_R   0.397421 0.108489 0.821567 -0.388733
C133  C     C_R   0.867072 0.397033 0.173492 0.139638
C134  C     C_R   0.868171 0.603392 0.672025 0.143353
C135  C     C_R   0.368060 0.896610 0.171739 0.142976
C136  C     C_R   0.367399 0.103109 0.672986 0.141337
H77   H     H_    0.206134 0.601867 0.281207 0.164742
H78   H     H_    0.206548 0.398199 0.780381 0.163056
H79   H     H_    0.706390 0.101901 0.281259 0.163130
H80   H     H_    0.708240 0.899260 0.775550 0.166748
H81   H     H_    0.851468 0.281675 0.589975 0.196542
H82   H     H_    0.859044 0.722084 0.080700 0.189824
H83   H     H_    0.353588 0.780906 0.586682 0.188130
H84   H     H_    0.351549 0.218400 0.089569 0.197991
H85   H     H_    0.926855 0.417907 0.364157 0.175304
H86   H     H_    0.928712 0.582755 0.860955 0.175507
H87   H     H_    0.427975 0.917512 0.362021 0.176780
H88   H     H_    0.427800 0.082546 0.862536 0.174776
H89   H     H_    0.207500 0.778076 0.692514 0.133344
H90   H     H_    0.202892 0.219589 0.197543 0.147597
H91   H     H_    0.705259 0.279183 0.695051 0.150891
H92   H     H_    0.697518 0.717288 0.204887 0.147523
H93   H     H_    0.735538 0.338295 0.806131 0.164204
H94   H     H_    0.732291 0.659746 0.313600 0.165427
H95   H     H_    0.236277 0.837679 0.805052 0.168255
H96   H     H_    0.234399 0.160918 0.308149 0.164392
H97   H     H_    0.266352 0.660909 0.378319 0.143177
H98   H     H_    0.264857 0.338341 0.880341 0.143606
H99   H     H_    0.765105 0.161601 0.380607 0.144205
H100  H     H_    0.768534 0.840275 0.872943 0.141185
H101  H     H_    0.792711 0.221329 0.493712 0.153619
H102  H     H_    0.798848 0.781550 0.986561 0.155570
H103  H     H_    0.294470 0.720652 0.491162 0.139097
H104  H     H_    0.292246 0.278614 0.993951 0.153955
N1    N     N_3   0.040108 0.302465 0.507785 -0.224717
H105  H     H_    0.063817 0.306247 0.616878 0.189640
H106  H     H_    0.030344 0.335068 0.466056 0.102902
N2    N     N_3   0.059545 0.710859 0.169142 -0.148095
H107  H     H_    0.059695 0.733641 0.264640 0.216985
H108  H     H_    0.092075 0.720925 0.096424 0.104978
N3    N     N_3   0.561967 0.805496 0.633284 -0.219882
H109  H     H_    0.569418 0.790544 0.745445 0.217031
H110  H     H_    0.559062 0.840280 0.655151 0.180551
N4    N     N_3   0.536374 0.195433 0.008471 -0.213597
H111  H     H_    0.562641 0.189190 0.111414 0.205412
H112  H     H_    0.559185 0.215299 0.930605 0.075695
N5    N     N_R   0.774844 0.546813 0.147847 0.221529
O49   O     O_R   0.721548 0.556288 0.173813 -0.399504
O50   O     O_R   0.806974 0.578571 0.092284 -0.404564
N6    N     N_R   0.774366 0.453838 0.649070 0.221366
O51   O     O_R   0.720760 0.444912 0.672662 -0.400331
O52   O     O_R   0.806636 0.421548 0.597278 -0.410725
N7    N     N_R   0.274053 0.046140 0.148932 0.221421
O53   O     O_R   0.220592 0.055160 0.174361 -0.398280
O54   O     O_R   0.305990 0.078291 0.095125 -0.409629
N8    N     N_R   0.275280 0.953288 0.648829 0.221270
O55   O     O_R   0.221924 0.943803 0.673669 -0.395582
O56   O     O_R   0.307845 0.921394 0.595613 -0.410347
N9    N     N_R   0.039139 0.217975 0.682911 0.246048
O57   O     O_R   0.088042 0.200101 0.648499 -0.385454
O58   O     O_R   0.029503 0.226067 0.831437 -0.305347
N10   N     N_R   0.038325 0.781579 0.936189 0.213233
O59   O     O_R   0.057589 0.762683 0.809683 -0.435896
O60   O     O_R   0.060626 0.819980 0.986482 -0.298098
N11   N     N_R   0.544993 0.712656 0.639180 0.240801
O61   O     O_R   0.592292 0.693472 0.597998 -0.379639
O62   O     O_R   0.530184 0.708910 0.785985 -0.325504
N12   N     N_R   0.536349 0.276412 0.234880 0.261747
O63   O     O_R   0.589420 0.262477 0.237180 -0.413388
O64   O     O_R   0.520891 0.302299 0.351028 -0.307536
N13   N     N_R   0.942127 0.204401 0.578690 0.236440
O65   O     O_R   0.921356 0.176380 0.469791 -0.388561
O66   O     O_R   0.914532 0.210538 0.707569 -0.375950
N14   N     N_R   0.969157 0.791048 0.137956 0.264977
O67   O     O_R   0.917013 0.807059 0.125240 -0.396753
O68   O     O_R   0.003152 0.803557 0.258720 -0.334180
N15   N     N_R   0.452008 0.718070 0.502432 0.243099
O69   O     O_R   0.433552 0.701522 0.364965 -0.411387
O70   O     O_R   0.422368 0.710653 0.626800 -0.358883
N16   N     N_R   0.445674 0.297189 0.098862 0.241607
O71   O     O_R   0.432778 0.329025 0.994990 -0.372862
O72   O     O_R   0.410168 0.288294 0.209014 -0.384757

loop_
_geom_bond_atom_site_label_1
_geom_bond_atom_site_label_2
_geom_bond_distance
_ccdc_geom_bond_type
C19   H27   1.110631 S    
P11   C68   1.852753 S    
C15   H19   1.105254 S    
C93   H73   1.076211 S    
C126  C130  1.401482 A    
C81   C109  1.420383 A    
P6    O26   1.529025 D    
C47   C63   1.420882 A    
N9    O57   1.301256 A    
C119  C123  1.398844 A    
C45   C61   1.420291 A    
C116  H104  1.077575 S    
C97   C101  1.390110 A    
O5    Ba2   2.801293 S    
C43   C51   1.389651 A    
C89   C93   1.398594 A    
C20   H28   1.110659 S    
Ba1   O46   2.958391 S    
C6    H6    1.108663 S    
C44   C52   1.386707 A    
O39   C16   1.396005 S    
C29   H53   1.105918 S    
O17   C21   1.396966 S    
C32   H56   1.107712 S    
N6    O51   1.302524 A    
P2    O18   1.753754 S    
C21   C25   1.537037 S    
P7    Ba3   3.434836 S    
C31   H55   1.108758 S    
P4    O8    1.571383 S    
C48   C64   1.421324 A    
O8    Ba3   2.801262 S    
C17   H29   1.107310 S    
C124  H84   1.079313 S    
C129  H85   1.082005 S    
C92   C96   1.398558 A    
C9    H13   1.109229 S    
C111  C115  1.412140 A    
C33   C37   1.412721 A    
C100  H80   1.079225 S    
N8    O55   1.302517 A    
P8    Ba4   3.435960 S    
C113  C121  1.389055 A    
C78   C98   1.400613 A    
C14   H18   1.105223 S    
C115  H103  1.077604 S    
N12   O63   1.301136 A    
C35   C39   1.412275 A    
O10   Ba2   2.759044 S    
C72   H68   1.081966 S    
P1    C133  1.877519 S    
P15   C128  1.864572 S    
C22   N6    1.466435 S    
P3    C135  1.875987 S    
C76   C80   1.422299 A    
C17   H25   1.110651 S    
N15   O70   1.301347 A    
O6    Ba1   2.801262 S    
C7    H7    1.106595 S    
P6    O38   1.750510 S    
C38   C94   1.388071 A    
C25   H41   1.111078 S    
P4    C136  1.875701 S    
O11   Ba3   2.757693 S    
P8    O28   1.529025 D    
P9    O29   1.737596 S    
P11   O31   1.734743 S    
P12   O32   1.738995 S    
O24   P15   1.760303 S    
C30   N2    1.464604 S    
O1    Ba1   2.862263 S    
C104  H100  1.077255 S    
O25   Ba1   2.861657 S    
N10   O59   1.298592 A    
O41   C5    1.406644 S    
P12   C67   1.857193 S    
C23   H39   1.093297 S    
O43   C7    1.405653 S    
O15   P16   1.542741 D    
C18   H30   1.106480 S    
O44   C8    1.406877 S    
O13   P14   1.541667 D    
C58   C78   1.421508 A    
P5    O25   1.529715 D    
P2    Ba2   3.434171 S    
N14   O67   1.300941 A    
C27   H43   1.111080 S    
C13   C17   1.522471 S    
C50   H70   1.080468 S    
C1    C29   1.543274 S    
C5    H1    1.110326 S    
P7    C76   1.871251 S    
O28   Ba4   2.863371 S    
N5    O49   1.302648 A    
C9    H9    1.105586 S    
C131  H87   1.082060 S    
C53   C65   1.413932 A    
C11   H11   1.107247 S    
C98   H78   1.078872 S    
P9    O41   1.750958 S    
C104  C108  1.413181 A    
C59   C79   1.421545 A    
P11   O35   1.545288 D    
P6    O45   1.576931 S    
P12   O44   1.751315 S    
N15   O69   1.300047 A    
C35   C83   1.419005 A    
C42   C50   1.388982 A    
C8    H4    1.111518 S    
O16   P15   1.540635 D    
C13   H17   1.105808 S    
C96   H76   1.076304 S    
O19   C23   1.396698 S    
O11   P16   1.746618 S    
C91   C95   1.398841 A    
C91   C135  1.422222 A    
C56   C68   1.412023 A    
Ba3   Ba4   4.601067 S    
C92   C136  1.421352 A    
C3    C31   1.557356 S    
N2    H107  1.042491 S    
C11   H63   1.108717 S    
C22   H38   1.093342 S    
C31   N3    1.461442 S    
C60   C80   1.421825 A    
N4    H112  1.043802 S    
C38   H94   1.076572 S    
Ba4   O48   2.799360 S    
C13   H21   1.111256 S    
O26   Ba2   2.863371 S    
C15   H23   1.110648 S    
C66   C70   1.402163 A    
C9    H61   1.106878 S    
C62   C106  1.419691 A    
C41   C45   1.412382 A    
C116  C124  1.388930 A    
P7    O27   1.529715 D    
C117  C125  1.414595 A    
C121  H81   1.079727 S    
P7    O48   1.576314 S    
O32   Ba4   2.759404 S    
C69   H65   1.081975 S    
C123  H83   1.079601 S    
C75   C79   1.422258 A    
C3    N15   1.465474 S    
N1    H106  1.040104 S    
P6    C73   1.875768 S    
C106  C112  1.425704 A    
C20   H32   1.106755 S    
C85   C117  1.417557 A    
C6    H2    1.111150 S    
Ba2   O45   2.957786 S    
C132  C136  1.401252 A    
P3    O7    1.571998 S    
C82   C86   1.430467 A    
C77   C97   1.401464 A    
C10   H62   1.107618 S    
O4    Ba4   2.860570 S    
C41   H89   1.077626 S    
P13   C126  1.856000 S    
P3    Ba3   3.435272 S    
C7    H3    1.108940 S    
C49   H69   1.080535 S    
C17   H33   1.110919 S    
C74   C78   1.421179 A    
C4    C32   1.552426 S    
C68   C72   1.400665 A    
C19   H35   1.110923 S    
C64   C108  1.418553 A    
C83   C111  1.420239 A    
P9    C66   1.856592 S    
C130  H86   1.082076 S    
C26   H46   1.110551 S    
C33   C81   1.419595 A    
C34   C38   1.412967 A    
C33   C47   1.427411 A    
C34   C48   1.425642 A    
C103  H99   1.077482 S    
C114  C122  1.387872 A    
C3    N11   1.466661 S    
C101  H97   1.077634 S    
C101  C105  1.412193 A    
Ba3   O48   2.958391 S    
C6    C10   1.522944 S    
C12   H12   1.108014 S    
P2    C134  1.875206 S    
C53   C57   1.417434 A    
C103  C107  1.412595 A    
C24   N8    1.466501 S    
P5    Ba1   3.434836 S    
C56   C60   1.416893 A    
C2    N10   1.466791 S    
C36   C84   1.419499 A    
C28   H52   1.103734 S    
C7    C11   1.519229 S    
C112  C116  1.412854 A    
Ba1   O45   2.799396 S    
P1    Ba1   3.435272 S    
C59   C63   1.431158 A    
P10   O30   1.735889 S    
C109  C113  1.412762 A    
C44   C48   1.411932 A    
C120  C128  1.414185 A    
N16   O71   1.300978 A    
C69   C73   1.402062 A    
C32   N4    1.460919 S    
C113  H101  1.077484 S    
C88   C120  1.417419 A    
C51   H71   1.080558 S    
C23   C27   1.536874 S    
O42   C6    1.407042 S    
C16   H24   1.111115 S    
C18   H34   1.110924 S    
C82   C110  1.420751 A    
O14   P13   1.541867 D    
C12   H16   1.106586 S    
O31   Ba3   2.760766 S    
C46   C62   1.420936 A    
O10   P13   1.741384 S    
C98   C102  1.389303 A    
N8    O56   1.299594 A    
O12   P15   1.750540 S    
P1    O1    1.528473 D    
C60   C64   1.429983 A    
C27   H47   1.110559 S    
P3    O3    1.528473 D    
C28   H48   1.110562 S    
P4    O20   1.753486 S    
N12   O64   1.301356 A    
C2    C30   1.556265 S    
C26   H42   1.111101 S    
C5    H5    1.109056 S    
C50   C54   1.400036 A    
C52   H72   1.079492 S    
P10   O42   1.753467 S    
C89   C133  1.422324 A    
O23   P16   1.763298 S    
O21   P14   1.767059 S    
N13   O66   1.300451 A    
C42   C46   1.413058 A    
C41   C49   1.389618 A    
N3    H109  1.042967 S    
C84   C112  1.419891 A    
C67   C71   1.402112 A    
P16   C127  1.860309 S    
C10   H14   1.108562 S    
O12   Ba4   2.759044 S    
N9    O58   1.298870 A    
O20   C24   1.396771 S    
C79   C99   1.400770 A    
O22   C30   1.411184 S    
P1    O5    1.571998 S    
C85   C89   1.419987 A    
N10   O60   1.301792 A    
C39   H95   1.077488 S    
C1    H57   1.114163 S    
C5    C9    1.521156 S    
C129  C133  1.401639 A    
C100  C104  1.389699 A    
C55   C67   1.415254 A    
C131  C135  1.401017 A    
C117  C121  1.399625 A    
P8    O40   1.751291 S    
C83   C87   1.431072 A    
C118  C126  1.412391 A    
P9    O33   1.545471 D    
C122  H82   1.079378 S    
N11   O61   1.301225 A    
C128  C132  1.402338 A    
C95   H75   1.076096 S    
C1    N13   1.464128 S    
C1    N9    1.464091 S    
O7    Ba4   2.801293 S    
C16   C20   1.522396 S    
C35   C45   1.426271 A    
C39   C95   1.389895 A    
C20   H36   1.110918 S    
C99   C103  1.390016 A    
C37   C93   1.389912 A    
C108  C110  1.425527 A    
Ba1   Ba2   4.601067 S    
O23   C31   1.414023 S    
C42   H90   1.077023 S    
P4    Ba4   3.434171 S    
P14   C125  1.865837 S    
C24   C28   1.536807 S    
C19   H31   1.107270 S    
C125  C129  1.402577 A    
C25   H49   1.103598 S    
N7    O53   1.302587 A    
C18   H26   1.110658 S    
C71   H67   1.082014 S    
C40   C96   1.389282 A    
C11   H15   1.109401 S    
C23   N7    1.466504 S    
N2    H108  1.042477 S    
C14   C18   1.522153 S    
C115  C123  1.389137 A    
C87   C91   1.420054 A    
C87   C119  1.417057 A    
O29   Ba1   2.760766 S    
C36   C40   1.412585 A    
C102  H98   1.077529 S    
C10   H10   1.107768 S    
C110  C114  1.411874 A    
C54   C66   1.414484 A    
C54   C58   1.418629 A    
C40   H96   1.076975 S    
P1    O17   1.753742 S    
C94   H74   1.076668 S    
C43   H91   1.077203 S    
P3    O19   1.753559 S    
C44   H92   1.076645 S    
P4    O4    1.529163 D    
C4    N12   1.469890 S    
N1    H105  1.046280 S    
C29   N1    1.456775 S    
Ba2   O46   2.799360 S    
O21   C29   1.413187 S    
P8    O47   1.576931 S    
C127  C131  1.401700 A    
C51   C55   1.400447 A    
C107  C109  1.426405 A    
C21   N5    1.466698 S    
C90   C94   1.397724 A    
O3    Ba3   2.862263 S    
C21   H37   1.093347 S    
C114  H102  1.077247 S    
C99   H79   1.078813 S    
O2    Ba2   2.860570 S    
C16   H20   1.105516 S    
N5    O50   1.299635 A    
C63   C107  1.419455 A    
C65   C69   1.403113 A    
O37   C14   1.397286 S    
C61   C105  1.418610 A    
C90   C134  1.420650 A    
C14   H22   1.110597 S    
C55   C59   1.418352 A    
C70   H66   1.082035 S    
O27   Ba3   2.861657 S    
P11   O43   1.751845 S    
P2    O2    1.529163 D    
C27   H51   1.103809 S    
O9    P14   1.754461 S    
C28   H44   1.111043 S    
N14   O68   1.301412 A    
C4    N16   1.466887 S    
C86   C90   1.420525 A    
C15   C19   1.522108 S    
P5    O37   1.750957 S    
Ba3   O47   2.799396 S    
P5    C74   1.872060 S    
N3    H110  1.040614 S    
O30   Ba2   2.759404 S    
P7    O39   1.750516 S    
C49   C53   1.400984 A    
O40   C15   1.397674 S    
C43   C47   1.413248 A    
P12   O36   1.545405 D    
C71   C75   1.400797 A    
C52   C56   1.399863 A    
C81   C85   1.431678 A    
P8    C75   1.873918 S    
O22   P13   1.752823 S    
N4    H111  1.044643 S    
C57   C61   1.430666 A    
Ba4   O47   2.957786 S    
C73   C77   1.422503 A    
C120  C124  1.399153 A    
C8    C12   1.519786 S    
P10   C65   1.858620 S    
C34   C82   1.418868 A    
C72   C76   1.400651 A    
N6    O52   1.299467 A    
N11   O62   1.301212 A    
O24   C32   1.408241 S    
N16   O72   1.301100 A    
C57   C77   1.421301 A    
C30   H54   1.112552 S    
C86   C118  1.417129 A    
C12   H64   1.110752 S    
P2    O6    1.571383 S    
C88   C92   1.419524 A    
C102  C106  1.412202 A    
C25   H45   1.110626 S    
C2    H58   1.112608 S    
O18   C22   1.396742 S    
C26   H50   1.103818 S    
C130  C134  1.399955 A    
C97   H77   1.078569 S    
C118  C122  1.399704 A    
O38   C13   1.395212 S    
C105  C111  1.425904 A    
P10   O34   1.545873 D    
P5    O46   1.576314 S    
P6    Ba2   3.435960 S    
C80   C100  1.400187 A    
N7    O54   1.299597 A    
C36   C46   1.426899 A    
C119  C127  1.413295 A    
C8    H8    1.110801 S    
C3    H59   1.115255 S    
C58   C62   1.430947 A    
C132  H88   1.082009 S    
C2    N14   1.469196 S    
C70   C74   1.400311 A    
C22   C26   1.536835 S    
N13   O65   1.301035 A    
C84   C88   1.430865 A    
C37   H93   1.077118 S    
O9    Ba1   2.757693 S    
C24   H40   1.093645 S    
C4    H60   1.113622 S    
