data_mof_unit_54371.cif
_audit_creation_date              2012-12-10T17:10:24-0500
_audit_creation_method            fapswitch 2.2
_symmetry_space_group_name_H-M    P1
_symmetry_Int_Tables_number       1
_space_group_crystal_system       triclinic
_cell_length_a                    10.959424
_cell_length_b                    12.950719
_cell_length_c                    11.652941
_cell_angle_alpha                 101.877094
_cell_angle_beta                  94.119757
_cell_angle_gamma                 90.541982
_cell_volume                      1613.84144565

loop_
_atom_site_label
_atom_site_type_symbol
_atom_type_description
_atom_site_fract_x
_atom_site_fract_y
_atom_site_fract_z
_atom_type_partial_charge
C1    C     C_R   0.502824 0.297605 0.475198 0.784985
C2    C     C_R   0.507172 0.701534 0.523535 0.826097
C3    C     C_R   0.518110 0.816622 0.540892 -0.154039
C4    C     C_R   0.513902 0.181035 0.453705 -0.173105
C5    C     C_R   0.457249 0.002429 0.347285 0.155758
C6    C     C_R   0.602320 0.987872 0.642329 0.202347
C7    C     C_R   0.467615 0.111434 0.347485 0.128597
C8    C     C_R   0.604617 0.876771 0.626113 0.097795
C9    C     C_R   0.583000 0.137546 0.537922 0.087843
C10   C     C_R   0.443226 0.867875 0.467680 0.087315
C11   C     C_R   0.555035 0.032770 0.547332 0.027105
C12   C     C_R   0.481809 0.968216 0.454289 -0.011602
C13   C     C_R   0.379009 0.405596 0.017905 -0.352450
C14   C     C_R   0.618966 0.596268 0.982369 -0.351081
C15   C     C_R   0.390120 0.415117 0.140853 0.086142
C16   C     C_R   0.606678 0.587902 0.859607 0.048227
C17   C     C_R   0.552238 0.540824 0.159260 -0.003489
C18   C     C_R   0.448209 0.458708 0.840607 0.020576
C19   C     C_R   0.543491 0.534689 0.035820 0.082438
C20   C     C_R   0.456366 0.465391 0.964144 0.065052
C21   C     C_R   0.262420 0.499290 0.500584 0.811625
C22   C     C_R   0.738519 0.498383 0.499915 0.796531
C23   C     C_R   0.133235 0.623509 0.695064 -0.168355
C24   C     C_R   0.876715 0.439501 0.279487 -0.182872
C25   C     C_R   0.077736 0.658867 0.800110 0.175724
C26   C     C_R   0.933382 0.377022 0.186355 0.176465
C27   C     C_R   0.966826 0.611553 0.815889 -0.226396
C28   C     C_R   0.039863 0.324853 0.211230 -0.223324
C29   C     C_R   0.908169 0.536159 0.724110 0.171713
C30   C     C_R   0.098790 0.348019 0.324479 0.160894
C31   C     C_R   0.948113 0.526262 0.608960 0.049105
C32   C     C_R   0.056396 0.433042 0.407985 0.070799
C33   C     C_R   0.071958 0.549853 0.601493 0.004487
C34   C     C_R   0.932733 0.457813 0.395637 0.008091
C35   C     C_R   0.873295 0.494402 0.501042 -0.192015
C36   C     C_R   0.129521 0.494148 0.503210 -0.177313
Cu1   Cu    Cu3+1 0.509250 0.507730 0.615930 0.910198
Cu2   Cu    Cu3+1 0.490750 0.492270 0.384070 0.918759
H1    H     H_    0.075466 0.265182 0.143282 0.118432
H2    H     H_    0.934046 0.623788 0.903149 0.127321
H3    H     H_    0.309647 0.352526 0.965538 0.136481
H4    H     H_    0.687002 0.650589 0.034939 0.133559
H5    H     H_    0.223519 0.654395 0.688531 0.160442
H6    H     H_    0.794484 0.477366 0.256545 0.173354
H7    H     H_    0.381439 0.405387 0.784856 0.131654
H8    H     H_    0.619065 0.594102 0.214940 0.118776
H9    H     H_    0.665535 0.635654 0.819862 0.120767
H10   H     H_    0.328065 0.370502 0.181047 0.115291
N1    N     N_R   0.523180 0.519350 0.790130 -0.181826
N2    N     N_R   0.476820 0.480650 0.209870 -0.178673
O1    O     O_R   0.506570 0.354460 0.582000 -0.584295
O2    O     O_R   0.493430 0.645540 0.418000 -0.581400
O3    O     O_R   0.490940 0.341410 0.386200 -0.587699
O4    O     O_R   0.509060 0.658590 0.613800 -0.599296
O5    O     O_R   0.327470 0.506520 0.597900 -0.585566
O6    O     O_R   0.672530 0.493480 0.402100 -0.593694
O7    O     O_R   0.311840 0.493460 0.402100 -0.585473
O8    O     O_R   0.688160 0.506540 0.597900 -0.607415
C37   C     C_3   0.143392 0.737333 0.899517 -0.434870
C38   C     C_3   0.253548 0.688395 0.954081 -0.794947
H11   H     H_    0.224407 0.617059 0.985112 0.255614
H12   H     H_    0.322985 0.666404 0.889067 0.259689
H13   H     H_    0.296414 0.746325 0.030351 0.237512
H14   H     H_    0.174199 0.806931 0.866121 0.199587
H15   H     H_    0.080517 0.766136 0.969342 0.197453
C39   C     C_3   0.879697 0.364640 0.061671 -0.418235
C40   C     C_3   0.758171 0.303187 0.040474 -0.842343
H16   H     H_    0.771280 0.222887 0.058339 0.257902
H17   H     H_    0.689644 0.344903 0.097582 0.261791
H18   H     H_    0.722725 0.295613 0.947315 0.244463
H19   H     H_    0.866681 0.444053 0.041211 0.202699
H20   H     H_    0.944124 0.321811 0.000750 0.206299
C41   C     C_3   0.857696 0.439610 0.760840 -0.357878
C42   C     C_3   0.960459 0.364047 0.777713 -0.892398
H21   H     H_    0.008751 0.341847 0.696166 0.257342
H22   H     H_    0.027521 0.401494 0.850795 0.256549
H23   H     H_    0.921496 0.290803 0.797451 0.242752
H24   H     H_    0.811679 0.462357 0.843735 0.197837
H25   H     H_    0.790232 0.395189 0.695028 0.224918
C43   C     C_3   0.183421 0.267114 0.360745 -0.430437
C44   C     C_3   0.131659 0.216696 0.454787 -0.848187
H26   H     H_    0.039010 0.182180 0.423953 0.261125
H27   H     H_    0.192391 0.152864 0.473047 0.241999
H28   H     H_    0.126819 0.276114 0.537600 0.246705
H29   H     H_    0.196305 0.202281 0.284245 0.188121
H30   H     H_    0.273140 0.302797 0.394312 0.216703
C45   C     C_3   0.318175 0.821603 0.413264 -0.384364
C46   C     C_3   0.234026 0.805431 0.507160 -0.850881
H31   H     H_    0.272077 0.746622 0.555346 0.240176
H32   H     H_    0.222873 0.881103 0.570242 0.252051
H33   H     H_    0.142682 0.775863 0.465145 0.241918
H34   H     H_    0.269663 0.876166 0.364763 0.216605
H35   H     H_    0.327210 0.746167 0.349552 0.227396
C47   C     C_3   0.704247 0.192957 0.589237 -0.344404
C48   C     C_3   0.814154 0.127417 0.547836 -0.856390
H36   H     H_    0.815526 0.051831 0.577780 0.263687
H37   H     H_    0.811777 0.110583 0.450258 0.253644
H38   H     H_    0.900022 0.172150 0.583812 0.242688
H39   H     H_    0.715867 0.266525 0.556438 0.193502
H40   H     H_    0.708880 0.216885 0.686090 0.201915
C49   C     C_3   0.701868 0.825929 0.696113 -0.381295
C50   C     C_3   0.831555 0.853044 0.669531 -0.866208
H41   H     H_    0.839808 0.837219 0.573037 0.251611
H42   H     H_    0.856639 0.936586 0.708013 0.252157
H43   H     H_    0.897969 0.803497 0.708822 0.245769
H44   H     H_    0.691664 0.849956 0.791895 0.198977
H45   H     H_    0.696042 0.739097 0.674642 0.216879
C51   C     C_3   0.443399 0.148422 0.231810 -0.369735
C52   C     C_3   0.562662 0.166690 0.178103 -0.804814
H46   H     H_    0.620887 0.228496 0.237987 0.273399
H47   H     H_    0.615001 0.092908 0.160070 0.238059
H48   H     H_    0.541244 0.192343 0.093825 0.236169
H49   H     H_    0.385495 0.091273 0.165992 0.193354
H50   H     H_    0.389084 0.219819 0.241519 0.196000
C53   C     C_3   0.437088 0.922024 0.231739 -0.913412
H51   H     H_    0.500448 0.938848 0.167505 0.244194
H52   H     H_    0.457850 0.840465 0.241228 0.238215
H53   H     H_    0.341247 0.923704 0.194331 0.218665
C54   C     C_3   0.635105 0.054886 0.763444 -0.878445
H54   H     H_    0.582173 0.128519 0.776948 0.222744
H55   H     H_    0.608412 0.013468 0.832582 0.224968
H56   H     H_    0.734474 0.074054 0.777572 0.238078

loop_
_geom_bond_atom_site_label_1
_geom_bond_atom_site_label_2
_ccdc_geom_bond_type
C49   H45   S    
C45   C46   S    
C49   C50   S    
C27   C29   A    
C41   C42   S    
C48   H36   S    
C13   H3    S    
C44   H26   S    
C48   H38   S    
C21   C36   S    
C22   C35   S    
C37   H14   S    
Cu1   Cu2   S    
C42   H22   S    
C38   H13   S    
C32   C36   A    
C24   C26   A    
C52   H47   S    
Cu1   O1    S    
C29   C41   S    
C53   H51   S    
C33   C36   A    
C23   H5    S    
C51   C52   S    
C50   H43   S    
C38   H12   S    
C34   C35   A    
C15   N2    A    
C51   H50   S    
C1    O3    A    
C43   H30   S    
C39   H20   S    
C19   C20   A    
C53   H52   S    
C42   H23   S    
C41   H24   S    
C31   C33   A    
C8    C49   S    
C18   C20   A    
Cu1   O8    S    
C14   H4    S    
C30   C43   S    
C39   C40   S    
C37   C38   S    
C45   H34   S    
C5    C53   S    
C47   C48   S    
C15   H10   S    
C4    C7    A    
C10   C12   A    
C16   H9    S    
C44   H27   S    
C54   H55   S    
C10   C45   S    
C42   H21   S    
C40   H16   S    
C26   C39   S    
C17   H8    S    
C5    C12   A    
C3    C8    A    
C2    O4    A    
C52   H48   S    
C6    C11   A    
C5    C7    A    
C22   O6    A    
C28   H1    S    
C23   C33   A    
C24   C34   A    
C38   H11   S    
C40   H17   S    
C32   C34   A    
C51   H49   S    
C21   O7    A    
C43   H29   S    
Cu2   O7    S    
C9    C11   A    
C39   H19   S    
C46   H33   S    
C47   H40   S    
C27   H2    S    
C54   H54   S    
C53   H53   S    
C41   H25   S    
Cu2   O6    S    
C16   N1    A    
C50   H42   S    
C1    O1    A    
Cu1   N1    S    
C2    O2    A    
Cu1   O4    S    
C46   H32   S    
C13   C15   A    
C24   H6    S    
C14   C16   A    
C18   H7    S    
C6    C54   S    
C44   H28   S    
C21   O5    A    
C54   H56   S    
C49   H44   S    
C13   C20   A    
C14   C19   A    
C43   C44   S    
C17   N2    A    
C22   O8    A    
C6    C8    A    
C11   C12   A    
C48   H37   S    
Cu2   N2    S    
C25   C27   A    
C26   C28   A    
C1    C4    S    
C40   H18   S    
C28   C30   A    
C2    C3    S    
C29   C31   A    
C3    C10   A    
C52   H46   S    
C37   H15   S    
C30   C32   A    
Cu2   O3    S    
C47   H39   S    
C45   H35   S    
C17   C19   A    
C31   C35   A    
C23   C25   A    
C50   H41   S    
Cu1   O5    S    
Cu2   O2    S    
C46   H31   S    
C7    C51   S    
C25   C37   S    
C4    C9    A    
C9    C47   S    
C18   N1    A    
