data_mof_unit_7014.cif
_audit_creation_date              2012-12-10T17:46:59-0500
_audit_creation_method            fapswitch 2.2
_symmetry_space_group_name_H-M    P1
_symmetry_Int_Tables_number       1
_space_group_crystal_system       triclinic
_cell_length_a                    9.975901
_cell_length_b                    10.614897
_cell_length_c                    13.641405
_cell_angle_alpha                 91.928411
_cell_angle_beta                  83.657876
_cell_angle_gamma                 88.76881
_cell_volume                      1434.4159149

loop_
_atom_site_label
_atom_site_type_symbol
_atom_type_description
_atom_site_fract_x
_atom_site_fract_y
_atom_site_fract_z
_atom_type_partial_charge
C1    C     C_R   0.499235 0.739109 0.497533 0.835723
C2    C     C_1   0.460131 0.501366 0.788533 -0.137946
C3    C     C_R   0.397022 0.864085 0.333556 -0.153956
C4    C     C_R   0.349532 0.927663 0.255987 -0.133123
C5    C     C_R   0.352952 0.058575 0.254812 -0.136018
C6    C     C_R   0.403905 0.126362 0.331196 -0.180177
C7    C     C_R   0.450930 0.063405 0.411122 0.095078
C8    C     C_R   0.447428 0.931520 0.412340 0.116835
C9    C     C_R   0.498532 0.871360 0.491541 -0.049326
C10   C     C_R   0.555998 0.937364 0.565514 -0.202975
C11   C     C_R   0.559386 0.065881 0.564307 -0.184192
C12   C     C_R   0.476432 0.500412 0.685195 0.861691
C13   C     C_R   0.505032 0.127999 0.489236 -0.098134
C14   C     C_R   0.832470 0.630379 0.650434 -0.100546
C15   C     C_R   0.881038 0.661657 0.739097 -0.121598
C16   C     C_R   0.017984 0.651436 0.745909 -0.233289
C17   C     C_R   0.106040 0.626542 0.659929 -0.004402
C18   C     C_R   0.057994 0.563091 0.576659 0.143947
C19   C     C_R   0.914208 0.563398 0.574913 0.160701
C20   C     C_R   0.941185 0.439475 0.427895 -0.104404
C21   C     C_R   0.083805 0.439872 0.427698 -0.095344
C22   C     C_R   0.501688 0.260721 0.496741 0.865434
C23   C     C_R   0.523715 0.499134 0.314775 0.863518
C24   C     C_1   0.542062 0.494276 0.211365 -0.168655
C25   C     C_2   0.569505 0.483669 0.019608 0.028647
C26   C     C_2   0.454302 0.500719 0.979277 -0.204025
C27   C     C_1   0.452418 0.501537 0.875952 0.070474
C28   C     C_1   0.557995 0.489159 0.123802 -0.122604
H1    H     H_    0.146963 0.390074 0.368643 0.143642
H2    H     H_    0.311227 0.875082 0.196120 0.136886
H3    H     H_    0.317334 0.107705 0.194034 0.137858
N1    N     N_R   0.857120 0.501200 0.500900 -0.116418
N2    N     N_R   0.142720 0.501280 0.500940 -0.117435
O1    O     O_R   0.385310 0.683220 0.500000 -0.594932
O2    O     O_R   0.614640 0.683250 0.500010 -0.638335
O3    O     O_R   0.368830 0.499960 0.640340 -0.640496
O4    O     O_R   0.598160 0.499980 0.640350 -0.600100
O5    O     O_R   0.385360 0.316750 0.499990 -0.605433
O6    O     O_R   0.614690 0.316780 0.500000 -0.605269
O7    O     O_R   0.401840 0.500020 0.359650 -0.629460
O8    O     O_R   0.631170 0.500040 0.359660 -0.609326
Zn1   Zn    Zn3+2 0.346870 0.499980 0.499990 0.956872
Zn2   Zn    Zn3+2 0.653130 0.500020 0.500010 0.954078
H4    H     H_    0.358787 0.516943 0.025223 0.140818
H5    H     H_    0.732334 0.662521 0.642162 0.180978
H6    H     H_    0.814187 0.704135 0.799749 0.155140
H7    H     H_    0.055007 0.691743 0.811639 0.134090
C29   C     C_2   0.206417 0.724827 0.649293 0.521130
H8    H     H_    0.289303 0.726053 0.694552 0.012702
O9    O     O_2   0.188513 0.814026 0.597469 -0.565122
C30   C     C_2   0.706151 0.460255 0.965324 0.412791
H9    H     H_    0.792835 0.454333 0.006734 0.056040
O10   O     O_2   0.724297 0.446050 0.875644 -0.564769
H10   H     H_    0.596355 0.889085 0.625109 0.137095
H11   H     H_    0.395372 0.762320 0.330209 0.148621
H12   H     H_    0.408003 0.227652 0.326029 0.139142
H13   H     H_    0.601141 0.117397 0.623406 0.163760
H14   H     H_    0.898187 0.389449 0.368936 0.144119

loop_
_geom_bond_atom_site_label_1
_geom_bond_atom_site_label_2
_ccdc_geom_bond_type
C23   O7    A    
C1    O1    A    
C23   C24   S    
C25   C30   S    
O4    Zn2   S    
C6    C7    A    
C15   H6    S    
C12   O3    A    
O2    Zn2   S    
C9    C10   A    
O8    Zn2   S    
O3    Zn1   S    
O1    Zn1   S    
C17   C29   S    
C2    C12   S    
O7    Zn1   S    
C17   C18   A    
C26   H4    S    
C7    C8    A    
C25   C28   S    
C4    C5    A    
C11   C13   A    
C26   C27   S    
C2    C27   T    
C3    H11   S    
C19   N1    A    
C16   H7    S    
C29   O9    D    
C29   H8    S    
N1    Zn2   S    
C13   C22   S    
O5    Zn1   S    
C14   H5    S    
C5    C6    A    
C10   H10   S    
C18   N2    A    
C3    C8    A    
C21   N2    A    
C10   C11   A    
N2    Zn1   S    
C20   H14   S    
C30   H9    S    
C22   O5    A    
C24   C28   T    
C7    C13   A    
C1    C9    S    
C20   C21   A    
C1    O2    A    
C18   C19   A    
C20   N1    A    
C12   O4    A    
C14   C15   A    
C16   C17   A    
O6    Zn2   S    
C22   O6    A    
C30   O10   D    
C25   C26   D    
C11   H13   S    
C21   H1    S    
C14   C19   A    
C4    H2    S    
C3    C4    A    
C15   C16   A    
C6    H12   S    
C8    C9    A    
C5    H3    S    
C23   O8    A    
