data_mof_unit_14617.cif
_audit_creation_date              2012-12-10T16:43:23-0500
_audit_creation_method            fapswitch 2.2
_symmetry_space_group_name_H-M    P1
_symmetry_Int_Tables_number       1
_space_group_crystal_system       triclinic
_cell_length_a                    10.735714
_cell_length_b                    8.699306
_cell_length_c                    7.473406
_cell_angle_alpha                 103.512436
_cell_angle_beta                  92.870487
_cell_angle_gamma                 91.532791
_cell_volume                      677.262514899

loop_
_atom_site_label
_atom_site_type_symbol
_atom_type_description
_atom_site_fract_x
_atom_site_fract_y
_atom_site_fract_z
_atom_type_partial_charge
C1    C     C_R   0.496054 0.199747 0.453040 0.865760
C2    C     C_R   0.064201 0.660665 0.607778 -0.006488
C3    C     C_R   0.129286 0.522375 0.523380 -0.043962
C4    C     C_R   0.063370 0.383271 0.430130 -0.107271
C5    C     C_R   0.934768 0.376068 0.416872 -0.175475
C6    C     C_R   0.870244 0.510965 0.486747 -0.053934
C7    C     C_2   0.493842 0.031488 0.427099 -0.335814
C8    C     C_2   0.505470 0.968497 0.572863 -0.353002
C9    C     C_R   0.263601 0.517122 0.508436 0.823415
C10   C     C_R   0.503592 0.800257 0.546919 0.880440
C11   C     C_R   0.736915 0.495729 0.494448 0.769240
C12   C     C_R   0.118663 0.802327 0.728938 0.201043
C13   C     C_R   0.046786 0.937977 0.778188 0.294679
C14   C     C_R   0.923279 0.935050 0.714408 -0.214104
C15   C     C_R   0.865907 0.795077 0.615757 -0.219712
C16   C     C_R   0.933203 0.655840 0.569269 0.073110
Cu1   Cu    Cu3+1 0.513920 0.517380 0.684380 0.991853
Cu2   Cu    Cu3+1 0.486080 0.482620 0.315620 1.000980
H1    H     H_    0.112387 0.278006 0.369712 0.179754
H2    H     H_    0.609405 0.601402 0.044136 0.230587
H3    H     H_    0.868929 0.039786 0.751096 0.181337
H4    H     H_    0.767756 0.796635 0.576351 0.143050
H5    H     H_    0.885397 0.264948 0.352921 0.151584
H6    H     H_    0.482699 0.959130 0.286963 0.206484
H7    H     H_    0.516552 0.040808 0.713006 0.184643
N1    N     N_2   0.465100 0.456430 0.038520 -0.212055
N2    N     N_2   0.534900 0.543570 0.961480 -0.227608
O1    O     O_R   0.509050 0.286130 0.619770 -0.619711
O2    O     O_R   0.485540 0.256780 0.308360 -0.585409
O3    O     O_R   0.331410 0.514680 0.655740 -0.565979
O4    O     O_R   0.307900 0.485330 0.344330 -0.540968
O5    O     O_R   0.514460 0.743220 0.691640 -0.554223
O6    O     O_R   0.490950 0.713870 0.380230 -0.581510
O7    O     O_R   0.692100 0.514670 0.655670 -0.575012
O8    O     O_R   0.668590 0.485320 0.344260 -0.600534
Br1   Br    Br    0.273165 0.812471 0.872422 -0.439636
Br2   Br    Br    0.107591 0.129044 0.947435 -0.512414
C17   C     C_2   0.352772 0.389187 0.943079 0.832458
H8    H     H_    0.352117 0.278070 0.841047 0.011358
O9    O     O_2   0.254758 0.454124 0.979247 -0.496954

loop_
_geom_bond_atom_site_label_1
_geom_bond_atom_site_label_2
_ccdc_geom_bond_type
C1    O1    A    
Cu1   O3    S    
H2    N2    S    
C7    H6    S    
C12   Br1   S    
C2    C16   A    
Cu2   O8    S    
C13   Br2   S    
Cu2   N1    S    
C2    C12   A    
C11   O8    A    
C2    C3    A    
C7    C8    D    
Cu2   O2    S    
C13   C14   A    
C17   O9    D    
C8    H7    S    
Cu1   O1    S    
N1    N2    D    
C5    C6    A    
C9    O3    A    
C3    C9    S    
C14   H3    S    
C1    O2    A    
Cu1   Cu2   S    
C10   O6    A    
C11   O7    A    
C17   H8    S    
Cu2   O6    S    
Cu1   O7    S    
C9    O4    A    
C6    C16   A    
C15   C16   A    
Cu1   N2    S    
C10   O5    A    
C12   C13   A    
C8    C10   S    
C6    C11   S    
Cu1   O5    S    
C14   C15   A    
N1    C17   S    
Cu2   O4    S    
C1    C7    S    
C4    H1    S    
C15   H4    S    
C3    C4    A    
C4    C5    A    
C5    H5    S    
