data_mof_unit_12808.cif
_audit_creation_date              2012-12-10T19:12:24-0500
_audit_creation_method            fapswitch 2.2
_symmetry_space_group_name_H-M    P1
_symmetry_Int_Tables_number       1
_space_group_crystal_system       triclinic
_cell_length_a                    15.695344
_cell_length_b                    10.658793
_cell_length_c                    9.791098
_cell_angle_alpha                 89.949203
_cell_angle_beta                  90.95273
_cell_angle_gamma                 89.544594
_cell_volume                      1637.70726757

loop_
_atom_site_label
_atom_site_type_symbol
_atom_type_description
_atom_site_fract_x
_atom_site_fract_y
_atom_site_fract_z
_atom_type_partial_charge
C1    C     C_R   0.499357 0.257841 0.500445 0.860663
C2    C     C_3   0.513611 0.928211 0.649825 -0.424631
C3    C     C_3   0.422160 0.070249 0.420224 -0.401394
C4    C     C_R   0.338022 0.500124 0.498957 0.933306
C5    C     C_3   0.582650 0.073878 0.431977 -0.501748
C6    C     C_3   0.499990 0.121381 0.502316 0.103101
C7    C     C_3   0.503920 0.878548 0.500794 0.052521
C8    C     C_3   0.417915 0.927600 0.439428 -0.434503
C9    C     C_3   0.578062 0.930090 0.412423 -0.148425
C10   C     C_3   0.458729 0.382368 0.077963 0.152288
C11   C     C_3   0.454952 0.385531 0.917015 -0.220732
C12   C     C_3   0.082801 0.501169 0.498096 0.172961
C13   C     C_3   0.453789 0.611172 0.079327 -0.291380
C14   C     C_3   0.586315 0.504715 0.085914 -0.278539
C15   C     C_3   0.456404 0.612630 0.917904 -0.124061
C16   C     C_R   0.502048 0.742047 0.500145 0.879398
C17   C     C_3   0.587993 0.494187 0.923562 0.061389
C18   C     C_R   0.661979 0.499910 0.501053 0.931705
C19   C     C_3   0.974147 0.412886 0.588338 -0.192757
C20   C     C_3   0.028102 0.387597 0.460161 -0.146066
C21   C     C_1   0.249054 0.500429 0.496849 -0.162191
C22   C     C_1   0.750943 0.500016 0.503230 -0.183512
C23   C     C_3   0.972646 0.613269 0.539734 0.194650
C24   C     C_3   0.030788 0.526347 0.626640 -0.162927
C25   C     C_2   0.663712 0.866537 0.437472 0.881186
C26   C     C_3   0.374798 0.330196 0.140531 -0.396029
C27   C     C_3   0.288999 0.393063 0.107418 -0.770728
C28   C     C_2   0.368559 0.640452 0.856817 0.981192
C29   C     C_3   0.645915 0.384559 0.867947 -0.344548
C30   C     C_3   0.675168 0.278979 0.964540 -0.965953
C31   C     C_3   0.937978 0.740735 0.584748 -0.398892
C32   C     C_3   0.009922 0.832278 0.615666 -0.858372
C33   C     C_2   0.422058 0.102020 0.737718 0.917435
C34   C     C_3   0.917253 0.500998 0.502282 0.147882
C35   C     C_3   0.026178 0.589455 0.411667 -0.181652
C36   C     C_3   0.969547 0.475774 0.374133 -0.193526
C37   C     C_1   0.173681 0.500773 0.496580 -0.059712
C38   C     C_1   0.826309 0.500348 0.503586 -0.090555
C39   C     C_3   0.500355 0.070174 0.653444 -0.151061
H1    H     H_    0.053252 0.294970 0.427324 0.140537
H2    H     H_    0.950764 0.340728 0.660135 0.146450
H3    H     H_    0.503580 0.304704 0.104973 0.107617
H4    H     H_    0.485418 0.298782 0.878725 0.152943
H5    H     H_    0.389408 0.380185 0.875078 0.220045
H6    H     H_    0.388407 0.618245 0.117969 0.172423
H7    H     H_    0.616860 0.594194 0.118027 0.171563
H8    H     H_    0.624796 0.432035 0.138717 0.193981
H9    H     H_    0.620113 0.580943 0.888015 0.127448
H10   H     H_    0.484539 0.698061 0.118437 0.154536
H11   H     H_    0.942391 0.454789 0.271331 0.145429
H12   H     H_    0.467858 0.882276 0.717706 0.251412
H13   H     H_    0.495657 0.694834 0.889119 0.116737
H14   H     H_    0.049504 0.661694 0.339911 0.137811
H15   H     H_    0.057925 0.547413 0.729447 0.148455
H16   H     H_    0.556076 0.110475 0.709628 0.117138
H17   H     H_    0.577386 0.903762 0.693276 0.207562
H18   H     H_    0.756838 0.757309 0.360524 0.333514
H19   H     H_    0.286450 0.492374 0.138232 0.273230
H20   H     H_    0.270881 0.380820 0.998627 0.282753
H21   H     H_    0.239082 0.344954 0.166655 0.219210
H22   H     H_    0.368555 0.231998 0.103833 0.168024
H23   H     H_    0.361127 0.114743 0.450168 0.203743
H24   H     H_    0.379670 0.319079 0.251338 0.254166
H25   H     H_    0.293816 0.758086 0.745157 0.333427
H26   H     H_    0.721315 0.313915 0.042471 0.263232
H27   H     H_    0.620705 0.232656 0.013155 0.261349
H28   H     H_    0.709051 0.206208 0.904530 0.264932
H29   H     H_    0.613901 0.337591 0.781301 0.252730
H30   H     H_    0.705149 0.425974 0.827071 0.211037
H31   H     H_    0.051639 0.795577 0.699547 0.258352
H32   H     H_    0.048670 0.847406 0.523275 0.255013
H33   H     H_    0.982616 0.923810 0.647796 0.259315
H34   H     H_    0.364901 0.904229 0.508970 0.202208
H35   H     H_    0.896276 0.779942 0.502243 0.221206
H36   H     H_    0.899236 0.728093 0.677602 0.221277
H37   H     H_    0.364069 0.084096 0.918867 0.335040
H38   H     H_    0.590272 0.118756 0.330170 0.179412
H39   H     H_    0.639125 0.100735 0.495474 0.187689
H40   H     H_    0.560860 0.912477 0.303206 0.154002
H41   H     H_    0.429712 0.091373 0.309721 0.174010
H42   H     H_    0.403485 0.883097 0.338909 0.176028
N1    N     N_3   0.498170 0.499750 0.138610 -0.073960
N2    N     N_3   0.498850 0.496730 0.861320 -0.127944
O1    O     O_R   0.499980 0.314910 0.616040 -0.647499
O2    O     O_R   0.699753 0.795497 0.332966 -0.816219
O3    O     O_2   0.308671 0.571305 0.877813 -0.671394
O4    O     O_R   0.354733 0.749401 0.780238 -0.830008
O5    O     O_2   0.362498 0.163433 0.690167 -0.650525
O6    O     O_R   0.419513 0.060968 0.873287 -0.833806
O7    O     O_R   0.500040 0.314680 0.383960 -0.658231
O8    O     O_R   0.376750 0.500100 0.616020 -0.578703
O9    O     O_R   0.376810 0.499870 0.383940 -0.634634
O10   O     O_R   0.499960 0.685320 0.616040 -0.618113
O11   O     O_R   0.500020 0.685090 0.383960 -0.629089
O12   O     O_R   0.623190 0.500130 0.616060 -0.653450
O13   O     O_R   0.623250 0.499900 0.383980 -0.612421
O14   O     O_2   0.701404 0.877243 0.547081 -0.660377
Zn1   Zn    Zn3+2 0.499960 0.500150 0.654960 0.938724
Zn2   Zn    Zn3+2 0.500040 0.499850 0.345040 0.914883

loop_
_geom_bond_atom_site_label_1
_geom_bond_atom_site_label_2
_ccdc_geom_bond_type
C19   C34   S    
C1    O7    A    
C10   H3    S    
C18   O13   A    
N1    Zn2   S    
C35   C36   S    
C17   H9    S    
C3    C6    S    
O12   Zn1   S    
C9    C25   S    
C7    C8    S    
C32   H33   S    
C1    O1    A    
C16   O10   A    
C33   C39   S    
C26   H22   S    
C27   H21   S    
C5    C6    S    
C20   H1    S    
C35   H14   S    
C24   H15   S    
C22   C38   T    
O13   Zn2   S    
C17   C29   S    
C9    H40   S    
C12   C37   S    
C2    C39   S    
C39   H16   S    
C2    C7    S    
N2    Zn1   S    
C23   C24   S    
C11   H4    S    
H25   O4    S    
C30   H28   S    
H37   O6    S    
C4    O8    A    
C10   C26   S    
C18   C22   S    
C18   O12   A    
C14   C17   S    
C3    H41   S    
C32   H32   S    
C29   H30   S    
C8    H42   S    
C14   H7    S    
C3    C8    S    
C2    H12   S    
C31   H35   S    
C15   N2    S    
C11   N2    S    
C13   N1    S    
C10   N1    S    
C1    C6    S    
C17   N2    S    
C23   C31   S    
C26   H24   S    
C5    C9    S    
C29   C30   S    
C33   O6    S    
C29   H29   S    
C31   H36   S    
C31   C32   S    
C23   C34   S    
C12   C20   S    
C28   O4    S    
C25   O2    S    
C26   C27   S    
C11   H5    S    
C15   H13   S    
C12   C35   S    
C30   H27   S    
C13   H10   S    
C25   O14   D    
C7    C16   S    
C23   C35   S    
C13   C15   S    
C28   O3    D    
C14   N1    S    
C5    H38   S    
O7    Zn2   S    
C36   H11   S    
C3    H23   S    
C7    C9    S    
C34   C38   S    
C33   O5    D    
C27   H19   S    
C32   H31   S    
C14   H8    S    
C12   C24   S    
C16   O11   A    
O1    Zn1   S    
C19   C20   S    
C19   C24   S    
C27   H20   S    
C13   H6    S    
C4    C21   S    
C15   C28   S    
O11   Zn2   S    
C8    H34   S    
H18   O2    S    
C34   C36   S    
O8    Zn1   S    
C30   H26   S    
C10   C11   S    
C20   C36   S    
C21   C37   T    
C6    C39   S    
C2    H17   S    
C5    H39   S    
O10   Zn1   S    
C19   H2    S    
O9    Zn2   S    
C4    O9    A    
