data_mof_unit_24227.cif
_audit_creation_date              2012-12-10T17:26:18-0500
_audit_creation_method            fapswitch 2.2
_symmetry_space_group_name_H-M    P1
_symmetry_Int_Tables_number       1
_space_group_crystal_system       triclinic
_cell_length_a                    10.108139
_cell_length_b                    10.459398
_cell_length_c                    27.615144
_cell_angle_alpha                 89.863993
_cell_angle_beta                  82.029231
_cell_angle_gamma                 94.614197
_cell_volume                      2881.76409712

loop_
_atom_site_label
_atom_site_type_symbol
_atom_type_description
_atom_site_fract_x
_atom_site_fract_y
_atom_site_fract_z
_atom_type_partial_charge
C1    C     C_R   0.554747 0.735174 0.498407 0.805863
C2    C     C_R   0.445494 0.264879 0.505628 0.787617
C3    C     C_R   0.580764 0.493369 0.895423 -0.127863
C4    C     C_R   0.543016 0.465141 0.099613 -0.127402
C5    C     C_R   0.608231 0.616038 0.872767 -0.126770
C6    C     C_R   0.440528 0.380937 0.125570 -0.133829
C7    C     C_R   0.656980 0.721043 0.899350 0.494319
C8    C     C_R   0.358495 0.298921 0.099451 0.461944
C9    C     C_R   0.549627 0.384134 0.867820 -0.158678
C10   C     C_R   0.626137 0.548883 0.124855 -0.159437
C11   C     C_R   0.508510 0.508479 0.647765 -0.291856
C12   C     C_R   0.495544 0.492384 0.352768 -0.360949
C13   C     C_R   0.644574 0.565637 0.022203 -0.054684
C14   C     C_R   0.522442 0.368300 0.970974 -0.057002
C15   C     C_R   0.491102 0.372830 0.022514 0.019321
C16   C     C_R   0.633820 0.583952 0.972305 0.027097
C17   C     C_R   0.560314 0.467306 0.048145 0.015995
C18   C     C_R   0.580753 0.481170 0.946102 0.017675
C19   C     C_R   0.737336 0.640085 0.046673 0.370449
C20   C     C_R   0.498001 0.256513 0.943604 0.376881
C21   C     C_R   0.729643 0.630889 0.097751 -0.125203
C22   C     C_R   0.513166 0.263425 0.892167 -0.150863
C23   C     C_R   0.501268 0.499631 0.594420 1.124952
C24   C     C_R   0.498888 0.499891 0.405832 0.976481
C25   C     C_R   0.667673 0.703390 0.948852 -0.294483
C26   C     C_R   0.387792 0.292017 0.048702 -0.269621
C27   C     C_2   0.580664 0.873972 0.504281 0.274181
C28   C     C_2   0.420378 0.126741 0.516307 0.299383
C29   C     C_2   0.507132 0.930921 0.541863 -0.105676
C30   C     C_2   0.505489 0.069711 0.541905 -0.068600
C31   C     C_2   0.929573 0.517761 0.500851 -0.140378
C32   C     C_2   0.071568 0.484815 0.497710 -0.112628
C33   C     C_R   0.580682 0.629523 0.824669 0.655803
C34   C     C_R   0.421651 0.383887 0.176838 0.616044
C35   C     C_R   0.552492 0.402341 0.817101 0.583113
C36   C     C_R   0.600897 0.547832 0.176271 0.601205
C37   C     C_R   0.408744 0.489874 0.733961 0.397064
C38   C     C_R   0.403236 0.547852 0.279021 0.411855
C39   C     C_R   0.395574 0.477332 0.683715 -0.204512
C40   C     C_R   0.404110 0.559960 0.329746 -0.235483
C41   C     C_R   0.631280 0.555250 0.662672 0.333055
C42   C     C_R   0.582389 0.412159 0.324733 0.305558
C43   C     C_R   0.640803 0.576799 0.712294 0.342380
C44   C     C_R   0.569412 0.390789 0.275577 0.343416
C45   C     C_R   0.532987 0.535518 0.747702 0.069018
C46   C     C_R   0.485984 0.463667 0.252590 0.060939
H1    H     H_    0.103848 0.403083 0.476385 0.167296
H2    H     H_    0.897143 0.599215 0.522266 0.194183
H3    H     H_    0.127471 0.635153 0.535567 0.181880
H4    H     H_    0.875987 0.369801 0.461388 0.179653
H5    H     H_    0.693259 0.786491 0.969669 0.199489
H6    H     H_    0.322048 0.228895 0.030091 0.217070
N1    N     N_R   0.554816 0.523202 0.797798 -0.299683
N2    N     N_R   0.501390 0.466048 0.200489 -0.298426
N3    N     N_2   0.842700 0.448890 0.480020 -0.187792
N4    N     N_2   0.157300 0.551110 0.519980 -0.195848
O1    O     O_R   0.431060 0.692470 0.504020 -0.600481
O2    O     O_R   0.568940 0.307530 0.495980 -0.615590
O3    O     O_R   0.651120 0.659650 0.491200 -0.603482
O4    O     O_R   0.348880 0.340350 0.508800 -0.589251
O5    O     O_R   0.389980 0.516390 0.577660 -0.587921
O6    O     O_R   0.610020 0.483610 0.422340 -0.583984
O7    O     O_R   0.610040 0.483570 0.564830 -0.582799
O8    O     O_R   0.389960 0.516430 0.435170 -0.600735
O9    O     O_2   0.576211 0.747080 0.805322 -0.535520
O10   O     O_2   0.325474 0.305484 0.203186 -0.534909
O11   O     O_2   0.672581 0.629113 0.202434 -0.575954
O12   O     O_2   0.553065 0.301494 0.786918 -0.567733
Zn1   Zn    Zn3+2 0.353060 0.521910 0.508560 0.998666
Zn2   Zn    Zn3+2 0.646940 0.478090 0.491440 0.991293
O13   O     O_3   0.740896 0.588325 0.628023 -0.603988
C47   C     C_3   0.838904 0.499520 0.629129 0.127191
H7    H     H_    0.838341 0.437214 0.596690 0.173207
H8    H     H_    0.824225 0.434603 0.661964 0.161239
C48   C     C_3   0.974916 0.573731 0.626481 -0.754348
H9    H     H_    0.990643 0.608592 0.663180 0.295752
H10   H     H_    0.054598 0.510743 0.612868 0.234394
H11   H     H_    0.980397 0.658672 0.601980 0.236984
O14   O     O_3   0.674018 0.346738 0.345940 -0.612550
C49   C     C_3   0.804133 0.407865 0.332300 0.210740
H12   H     H_    0.817824 0.495365 0.354451 0.156523
H13   H     H_    0.824733 0.436202 0.292859 0.186079
C50   C     C_3   0.907735 0.316562 0.341736 -0.818777
H14   H     H_    0.899185 0.230686 0.318433 0.257922
H15   H     H_    0.010093 0.365220 0.332897 0.243810
H16   H     H_    0.891698 0.285660 0.380692 0.240753
O15   O     O_3   0.313499 0.052937 0.500845 -0.578558
C51   C     C_3   0.303096 0.080065 0.451456 0.087002
H17   H     H_    0.400309 0.070297 0.427754 0.136231
H18   H     H_    0.270745 0.178036 0.447029 0.141953
C52   C     C_3   0.197583 0.985003 0.434562 -0.746135
H19   H     H_    0.097452 0.999554 0.455047 0.259779
H20   H     H_    0.194343 0.999150 0.394886 0.197539
H21   H     H_    0.221734 0.885390 0.441233 0.288461
O16   O     O_3   0.670188 0.950075 0.470979 -0.595410
C53   C     C_3   0.668513 0.907394 0.422537 0.077350
H22   H     H_    0.564100 0.885793 0.414421 0.166607
H23   H     H_    0.725298 0.820807 0.416185 0.162995
C54   C     C_3   0.735321 0.012690 0.387250 -0.801075
H24   H     H_    0.840931 0.035023 0.393418 0.258442
H25   H     H_    0.733983 0.980861 0.348968 0.209749
H26   H     H_    0.680677 0.100635 0.392897 0.279993
O17   O     O_3   0.760857 0.623930 0.726988 -0.597168
C55   C     C_3   0.787533 0.755390 0.713721 0.178119
H27   H     H_    0.699185 0.811109 0.724696 0.187972
H28   H     H_    0.817428 0.768807 0.673753 0.192945
C56   C     C_3   0.903134 0.811707 0.738805 -0.788230
H29   H     H_    0.996299 0.765918 0.725286 0.259467
H30   H     H_    0.920202 0.916483 0.731240 0.213330
H31   H     H_    0.879302 0.794376 0.778731 0.275334
O18   O     O_3   0.650430 0.309406 0.248044 -0.592034
C57   C     C_3   0.594690 0.181884 0.256816 0.102144
H32   H     H_    0.490061 0.170116 0.248128 0.169459
H33   H     H_    0.595121 0.152485 0.295564 0.170293
C58   C     C_3   0.677970 0.092404 0.224282 -0.796366
H34   H     H_    0.782421 0.099493 0.232879 0.258199
H35   H     H_    0.634382 0.991859 0.230571 0.212547
H36   H     H_    0.678926 0.118569 0.185217 0.265441
O19   O     O_3   0.687655 0.841803 0.877661 -0.561902
C59   C     C_3   0.823912 0.882770 0.879583 0.069461
H37   H     H_    0.890977 0.810298 0.863065 0.141460
H38   H     H_    0.843422 0.900418 0.917709 0.144849
C60   C     C_3   0.860369 0.009048 0.851584 -0.733559
H39   H     H_    0.808292 0.087098 0.871336 0.253834
H40   H     H_    0.970132 0.033759 0.848393 0.201293
H41   H     H_    0.831098 0.001641 0.814388 0.287358
O20   O     O_3   0.251105 0.222125 0.123188 -0.572440
C61   C     C_3   0.133091 0.284956 0.121502 0.137959
H42   H     H_    0.109877 0.289927 0.083310 0.115269
H43   H     H_    0.142553 0.383968 0.136281 0.168571
C62   C     C_3   0.016124 0.210264 0.152629 -0.725897
H44   H     H_    0.035771 0.204696 0.191138 0.273078
H45   H     H_    0.922964 0.259134 0.151566 0.220158
H46   H     H_    0.001789 0.111698 0.138402 0.245297
C63   C     C_2   0.314470 0.648830 0.356897 0.977540
O21   O     O_2   0.359927 0.730349 0.383105 -0.691867
O22   O     O_R   0.178801 0.641786 0.351185 -0.779279
H47   H     H_    0.128163 0.707987 0.371227 0.327792
C64   C     C_2   0.265040 0.428291 0.669801 0.947743
O23   O     O_2   0.162811 0.473451 0.688542 -0.636144
O24   O     O_R   0.258076 0.327158 0.636968 -0.764453
H48   H     H_    0.162956 0.301266 0.630972 0.341410
O25   O     O_3   0.320980 0.616575 0.254357 -0.562543
C65   C     C_3   0.375257 0.745452 0.247071 0.099868
H49   H     H_    0.485709 0.758866 0.247532 0.152461
H50   H     H_    0.326001 0.806040 0.276077 0.162353
C66   C     C_3   0.346777 0.793859 0.197857 -0.756393
H51   H     H_    0.237012 0.787233 0.196764 0.274601
H52   H     H_    0.387070 0.895537 0.192073 0.216557
H53   H     H_    0.395296 0.735436 0.167969 0.245286
O26   O     O_3   0.298862 0.472031 0.770436 -0.578238
C67   C     C_3   0.251283 0.340947 0.776683 0.142884
H54   H     H_    0.329044 0.273383 0.765523 0.176418
H55   H     H_    0.167870 0.318253 0.755177 0.181586
C68   C     C_3   0.194423 0.315743 0.830113 -0.772686
H56   H     H_    0.107836 0.373792 0.840519 0.253207
H57   H     H_    0.160131 0.212650 0.835860 0.228476
H58   H     H_    0.271684 0.341873 0.853975 0.251768
C69   C     C_2   0.835823 0.704395 0.120621 1.050460
O27   O     O_2   0.907497 0.648220 0.144313 -0.613968
O28   O     O_R   0.857448 0.837070 0.113151 -0.780083
H59   H     H_    0.933898 0.876068 0.129919 0.333011
C70   C     C_2   0.479570 0.143877 0.866086 1.055976
O29   O     O_2   0.366656 0.090087 0.874365 -0.612637
O30   O     O_R   0.578122 0.089687 0.833930 -0.747272
H60   H     H_    0.542876 0.007954 0.818766 0.389016
O31   O     O_3   0.842299 0.716153 0.020725 -0.609031
C71   C     C_3   0.945560 0.637835 0.003037 0.069468
H61   H     H_    0.911128 0.566236 0.976736 0.145437
H62   H     H_    0.981016 0.586633 0.033646 0.139156
C72   C     C_3   0.063539 0.721548 0.976495 -0.746552
H63   H     H_    0.101022 0.793704 0.001859 0.270133
H64   H     H_    0.145818 0.661130 0.962729 0.207981
H65   H     H_    0.032209 0.771845 0.945028 0.243382
O32   O     O_3   0.461467 0.138475 0.966602 -0.601342
C73   C     C_3   0.576271 0.087507 0.980418 0.098498
H66   H     H_    0.641025 0.160025 0.997810 0.134869
H67   H     H_    0.636435 0.048529 0.947837 0.172328
C74   C     C_3   0.531871 0.979240 0.017450 -0.770913
H68   H     H_    0.473958 0.900685 0.000615 0.260945
H69   H     H_    0.620877 0.941106 0.030026 0.223524
H70   H     H_    0.467951 0.015401 0.049668 0.265549
C75   C     C_2   0.599154 0.139576 0.571403 0.911684
O33   O     O_2   0.715979 0.113743 0.567633 -0.594165
O34   O     O_R   0.551238 0.227967 0.605868 -0.798552
H71   H     H_    0.622772 0.263598 0.625667 0.326631
C76   C     C_2   0.429215 0.861630 0.584905 0.913154
O35   O     O_2   0.476597 0.774261 0.604225 -0.664841
O36   O     O_R   0.305063 0.901934 0.605043 -0.746012
H72   H     H_    0.262303 0.848354 0.634604 0.344615

loop_
_geom_bond_atom_site_label_1
_geom_bond_atom_site_label_2
_ccdc_geom_bond_type
C72   H63   S    
O30   H60   S    
C35   N1    A    
C21   C69   S    
C30   C75   S    
C14   C18   A    
C27   O16   S    
O16   C53   S    
C48   H9    S    
C62   H46   S    
C61   H42   S    
C34   O10   S    
C55   H28   S    
O28   H59   S    
C36   O11   S    
C33   O9    S    
C63   O21   D    
C72   H64   S    
C42   C44   A    
C35   O12   S    
C70   O30   S    
C1    O1    A    
C1    O3    A    
C69   O27   D    
C2    O4    A    
C9    C22   A    
C60   H40   S    
C20   O32   S    
C27   C29   D    
O25   C65   S    
C53   C54   S    
C8    C26   A    
O6    Zn2   S    
C3    C18   A    
C63   O22   S    
C38   O25   S    
C11   C23   S    
C57   H32   S    
C12   C42   A    
C70   O29   D    
C71   C72   S    
C66   H51   S    
C44   C46   A    
C58   H35   S    
C53   H23   S    
C54   H26   S    
C56   H29   S    
C67   C68   S    
C58   H34   S    
C41   C43   A    
C52   H19   S    
C59   C60   S    
C41   O13   S    
C74   H70   S    
C23   O7    A    
C45   N1    S    
C42   O14   S    
C24   O8    A    
C74   H69   S    
C68   H58   S    
C32   N4    D    
C56   H30   S    
C19   O31   S    
C37   O26   S    
C65   C66   S    
C57   H33   S    
C55   H27   S    
C40   C63   S    
C59   H38   S    
C73   C74   S    
C10   C21   A    
C33   N1    A    
C72   H65   S    
C39   C64   S    
C38   C46   A    
C13   C19   A    
C9    C35   A    
C7    O19   S    
C60   H39   S    
C66   H53   S    
O14   C49   S    
C49   H13   S    
O31   C71   S    
C5    C7    A    
C49   H12   S    
C15   C26   A    
C6    C8    A    
C3    C5    A    
C6    C34   A    
C5    C33   A    
C12   C40   A    
C75   O33   D    
C25   H5    S    
C29   C30   S    
C3    C9    A    
C26   H6    S    
C52   H20   S    
C65   H50   S    
C43   C45   A    
C8    O20   S    
C50   H14   S    
O7    Zn2   S    
C23   O5    A    
O26   C67   S    
C58   H36   S    
C53   H22   S    
C46   N2    S    
C28   O15   S    
C69   O28   S    
O8    Zn1   S    
C67   H54   S    
C11   C39   A    
C68   H57   S    
C48   H10   S    
C4    C17   A    
C47   H8    S    
C73   H66   S    
C50   H15   S    
C51   H18   S    
C34   N2    A    
C31   H2    S    
C56   H31   S    
C4    C6    A    
C20   C22   A    
C4    C10   A    
C62   H44   S    
C61   C62   S    
C68   H56   S    
C59   H37   S    
C64   O23   D    
C49   C50   S    
C14   C20   A    
O5    Zn1   S    
C16   C25   A    
C15   C17   A    
C71   H61   S    
C24   O6    A    
O18   C57   S    
C66   H52   S    
C31   C32   S    
O2    Zn2   S    
C67   H55   S    
C47   H7    S    
C62   H45   S    
C61   H43   S    
C60   H41   S    
O19   C59   S    
C2    O2    A    
H3    N4    S    
O22   H47   S    
C12   C24   S    
H4    N3    S    
C7    C25   A    
C54   H24   S    
C13   C17   A    
C65   H49   S    
O1    Zn1   S    
C75   O34   S    
C28   C30   D    
C37   C39   A    
O32   C73   S    
O24   H48   S    
C52   H21   S    
C38   C40   A    
C22   C70   S    
C64   O24   S    
C47   C48   S    
O34   H71   S    
C51   C52   S    
O4    Zn1   S    
C71   H62   S    
C32   H1    S    
C10   C36   A    
C11   C41   A    
C55   C56   S    
O36   H72   S    
C48   H11   S    
C43   O17   S    
C76   O36   S    
N3    Zn2   S    
C36   N2    A    
O3    Zn2   S    
C74   H68   S    
C44   O18   S    
C29   C76   S    
C76   O35   D    
C50   H16   S    
O13   C47   S    
C51   H17   S    
O15   C51   S    
C16   C18   A    
N4    Zn1   S    
C13   C16   A    
O17   C55   S    
C1    C27   S    
C14   C15   A    
C2    C28   S    
C31   N3    D    
C37   C45   A    
C54   H25   S    
C57   C58   S    
O20   C61   S    
C73   H67   S    
C19   C21   A    
