data_mof_unit_41842.cif
_audit_creation_date              2012-10-26T18:59:36-0400
_audit_creation_method            fapswitch 2.2
_symmetry_space_group_name_H-M    P1
_symmetry_Int_Tables_number       1
_space_group_crystal_system       triclinic
_cell_length_a                    23.519028
_cell_length_b                    10.843084
_cell_length_c                    9.593758
_cell_angle_alpha                 90.931276
_cell_angle_beta                  90.780119
_cell_angle_gamma                 90.348895
_cell_volume                      2445.98996907

loop_
_atom_site_label
_atom_site_type_symbol
_atom_type_description
_atom_site_fract_x
_atom_site_fract_y
_atom_site_fract_z
_atom_type_partial_charge
C1    C     C_R   0.500027 0.262812 0.498595 0.586061
C2    C     C_R   0.117351 0.569257 0.461278 0.394084
C3    C     C_R   0.235173 0.479756 0.379018 -0.050638
C4    C     C_R   0.390481 0.504005 0.499145 0.571613
C5    C     C_R   0.293763 0.503777 0.372017 0.117854
C6    C     C_R   0.326516 0.506518 0.498748 0.021052
C7    C     C_R   0.297310 0.506257 0.628495 0.108415
C8    C     C_R   0.237817 0.485541 0.631151 0.195781
C9    C     C_R   0.207386 0.472759 0.505382 0.213004
C10   C     C_R   0.756699 0.386449 0.408486 -0.059252
C11   C     C_R   0.697517 0.394708 0.406966 0.069660
C12   C     C_R   0.969490 0.247889 0.573725 -0.098185
C13   C     C_R   0.670543 0.475611 0.501768 0.008906
C14   C     C_R   0.703345 0.539042 0.602954 -0.144233
C15   C     C_R   0.762541 0.529364 0.605955 0.191555
C16   C     C_R   0.497158 0.737306 0.500581 0.565647
C17   C     C_R   0.789388 0.454887 0.505393 0.240638
C18   C     C_R   0.544568 0.063566 0.543911 -0.029229
C19   C     C_R   0.498535 0.129767 0.492388 -0.005074
C20   C     C_R   0.452448 0.065743 0.427478 0.090856
C21   C     C_R   0.450975 0.935199 0.429657 0.078528
C22   C     C_R   0.494658 0.871046 0.499902 -0.001176
C23   C     C_R   0.028661 0.247480 0.575663 0.105993
C24   C     C_R   0.540780 0.937322 0.553242 0.001096
C25   C     C_3   0.567956 0.938273 0.695144 0.211315
C26   C     C_3   0.577008 0.077311 0.678552 0.018525
C27   C     C_R   0.535100 0.578318 0.077688 0.184172
C28   C     C_R   0.608589 0.491771 0.500446 0.569641
C29   C     C_R   0.461373 0.432855 0.071558 0.006629
C30   C     C_R   0.461151 0.433416 0.923121 0.011838
C31   C     C_R   0.536843 0.574412 0.930377 0.177216
C32   C     C_3   0.601043 0.571955 0.934477 -0.057781
C33   C     C_3   0.598174 0.580407 0.092222 0.009559
C34   C     C_R   0.059224 0.354019 0.534126 0.030563
C35   C     C_R   0.877344 0.556266 0.447911 0.436503
C36   C     C_R   0.879511 0.351382 0.533966 0.388281
C37   C     C_R   0.939063 0.351066 0.530527 0.003116
C38   C     C_R   0.968347 0.456302 0.484306 -0.071764
C39   C     C_R   0.937301 0.558975 0.436912 0.029603
C40   C     C_3   0.813878 0.526622 0.825039 -0.270676
C41   C     C_3   0.648624 0.825224 0.580628 -0.261401
C42   C     C_3   0.598807 0.811386 0.131841 -0.262834
C43   C     C_3   0.920786 0.735404 0.170588 -0.246602
C44   C     C_3   0.281782 0.563393 0.124398 -0.308731
C45   C     C_R   0.028507 0.458674 0.486826 -0.083549
C46   C     C_3   0.342249 0.662765 0.777312 -0.247828
C47   C     C_3   0.182591 0.584114 0.814293 -0.272473
C48   C     C_R   0.057774 0.565805 0.443296 0.007314
C49   C     C_R   0.026676 0.664526 0.383224 0.111885
C50   C     C_R   0.966642 0.660475 0.379924 0.136830
C51   C     C_R   0.119160 0.360722 0.537118 0.447400
Cu1   Cu    Cu3+1 0.500000 0.499980 0.640670 1.019332
Cu2   Cu    Cu3+1 0.500000 0.500020 0.359330 1.013702
H1    H     H_    0.947153 0.166308 0.607767 0.185910
H2    H     H_    0.776399 0.679476 0.737793 0.251830
H3    H     H_    0.840862 0.585460 0.895267 0.134472
H4    H     H_    0.776663 0.493376 0.884294 0.171462
H5    H     H_    0.839534 0.446582 0.790312 0.193443
H6    H     H_    0.646150 0.890049 0.789209 0.270822
H7    H     H_    0.692652 0.796818 0.606748 0.143407
H8    H     H_    0.651462 0.899856 0.503408 0.188556
H9    H     H_    0.625091 0.746601 0.531794 0.159423
H10   H     H_    0.666825 0.691338 0.158023 0.262897
H11   H     H_    0.617668 0.879189 0.207420 0.166449
H12   H     H_    0.682859 0.596039 0.680686 0.129070
H13   H     H_    0.552178 0.810477 0.147820 0.201195
H14   H     H_    0.609279 0.841394 0.025430 0.166344
H15   H     H_    0.949979 0.845544 0.337954 0.285790
H16   H     H_    0.893124 0.810895 0.133066 0.166893
H17   H     H_    0.897196 0.646819 0.157102 0.160277
H18   H     H_    0.959667 0.732410 0.106294 0.155949
H19   H     H_    0.352457 0.591345 0.245880 0.298966
H20   H     H_    0.307595 0.602167 0.040242 0.137697
H21   H     H_    0.251186 0.635928 0.156463 0.185082
H22   H     H_    0.259103 0.480240 0.082991 0.151568
H23   H     H_    0.554270 0.134909 0.756491 0.172907
H24   H     H_    0.314429 0.488976 0.842474 0.241547
H25   H     H_    0.303794 0.717322 0.801027 0.146963
H26   H     H_    0.362615 0.701857 0.683897 0.188957
H27   H     H_    0.372943 0.671937 0.865885 0.164298
H28   H     H_    0.227573 0.419640 0.832856 0.254678
H29   H     H_    0.153551 0.559653 0.899956 0.155614
H30   H     H_    0.157475 0.631789 0.732884 0.203984
H31   H     H_    0.215792 0.647430 0.857129 0.140578
H32   H     H_    0.430833 0.376197 0.124749 0.160908
H33   H     H_    0.430360 0.377344 0.865770 0.145592
H34   H     H_    0.620747 0.653357 0.885122 0.145599
H35   H     H_    0.614307 0.497513 0.144420 0.208976
H36   H     H_    0.209108 0.471306 0.285641 0.135937
H37   H     H_    0.777575 0.326654 0.333842 0.158361
I1    I     I_    0.652781 0.269636 0.271327 -0.301932
I2    I     I_    0.382680 0.166709 0.340958 -0.252827
I3    I     I_    0.379783 0.837098 0.344125 -0.317174
I4    I     I_    0.507448 0.901089 0.856044 -0.409925
I5    I     I_    0.663005 0.138209 0.643558 -0.282598
I6    I     I_    0.064133 0.078651 0.647411 -0.192195
I7    I     I_    0.637281 0.396242 0.884076 -0.324560
I8    I     I_    0.066810 0.815871 0.277762 -0.247988
N1    N     N_R   0.850214 0.453919 0.495945 -0.393812
N2    N     N_2   0.327601 0.533703 0.754988 -0.511101
N3    N     N_2   0.208051 0.473032 0.758680 -0.487599
N4    N     N_R   0.146293 0.467296 0.503243 -0.397788
N5    N     N_R   0.500360 0.500930 0.147930 -0.247115
N6    N     N_R   0.500360 0.500890 0.852020 -0.225207
N7    N     N_2   0.795070 0.597763 0.707033 -0.482614
N8    N     N_2   0.619840 0.865698 0.706321 -0.500209
N9    N     N_2   0.622974 0.691360 0.156591 -0.534782
N10   N     N_2   0.935528 0.757378 0.315980 -0.445329
N11   N     N_2   0.318744 0.531147 0.240046 -0.486650
O1    O     O_R   0.500000 0.319640 0.618810 -0.497444
O2    O     O_R   0.582120 0.500020 0.618760 -0.473843
O3    O     O_R   0.582120 0.500060 0.381180 -0.489494
O4    O     O_2   0.846020 0.655166 0.412816 -0.450813
O5    O     O_2   0.851028 0.251046 0.577749 -0.475077
O6    O     O_2   0.150681 0.262836 0.573196 -0.412917
O7    O     O_2   0.146858 0.674199 0.441785 -0.442844
O8    O     O_R   0.500010 0.319680 0.381230 -0.468757
O9    O     O_R   0.417880 0.499940 0.618820 -0.476750
O10   O     O_R   0.417880 0.499980 0.381240 -0.501629
O11   O     O_R   0.499990 0.680320 0.618770 -0.474232
O12   O     O_R   0.500000 0.680360 0.381190 -0.489940

loop_
_geom_bond_atom_site_label_1
_geom_bond_atom_site_label_2
_ccdc_geom_bond_type
C47   N3    S    
C19   C20   A    
C18   C26   S    
C41   H8    S    
C36   O5    S    
C7    C8    A    
H28   N3    S    
C28   O3    A    
C51   N4    A    
C20   I2    S    
C12   C23   A    
C34   C51   A    
C29   C30   A    
C21   I3    S    
H2    N7    S    
C18   C24   A    
C5    C6    A    
C36   C37   A    
C33   H35   S    
C16   O11   A    
C46   H26   S    
Cu2   O8    S    
C2    N4    A    
C10   C17   A    
C32   I7    S    
C29   N5    A    
H24   N2    S    
C18   C19   A    
C47   H29   S    
C12   C37   A    
C38   C45   A    
C49   I8    S    
C2    O7    S    
C23   I6    S    
C8    C9    A    
C40   H3    S    
C33   N9    S    
C26   H23   S    
C13   C28   S    
C47   H30   S    
C30   H33   S    
C8    N3    S    
C29   H32   S    
C44   N11   S    
C25   I4    S    
C43   H16   S    
C21   C22   A    
C50   N10   S    
C4    O9    A    
C41   H9    S    
C35   N1    A    
C25   N8    S    
C28   O2    A    
C1    C19   S    
H6    N8    S    
C40   H5    S    
C41   N8    S    
C27   C31   A    
C43   H18   S    
C24   C25   S    
C4    C6    S    
C7    N2    S    
C46   H25   S    
C9    N4    S    
Cu1   O2    S    
C2    C48   A    
C25   C26   S    
C32   H34   S    
C27   C33   S    
C44   H22   S    
C35   C39   A    
C16   O12   A    
C37   C38   A    
C3    C9    A    
C1    O1    A    
C31   C32   S    
Cu1   O1    S    
C23   C34   A    
C4    O10   A    
C34   C45   A    
C1    O8    A    
C47   H31   S    
C44   H21   S    
C17   N1    S    
Cu1   O11   S    
Cu2   O3    S    
C48   C49   A    
C43   H17   S    
C42   H14   S    
C22   C24   A    
H10   N9    S    
C42   H11   S    
Cu1   Cu2   S    
C42   N9    S    
C45   C48   A    
C26   I5    S    
C15   C17   A    
C46   N2    S    
H19   N11   S    
Cu1   N6    S    
C16   C22   S    
C40   H4    S    
C41   H7    S    
C3    C5    A    
Cu2   O10   S    
C6    C7    A    
C3    H36   S    
C31   N6    A    
C15   N7    S    
Cu2   O12   S    
C32   C33   S    
C46   H27   S    
C11   C13   A    
C38   C39   A    
C5    N11   S    
Cu2   N5    S    
C27   N5    A    
C14   H12   S    
C35   O4    S    
C36   N1    A    
C43   N10   S    
C44   H20   S    
C51   O6    S    
C10   C11   A    
C11   I1    S    
C39   C50   A    
C20   C21   A    
C10   H37   S    
C49   C50   A    
C30   N6    A    
C42   H13   S    
C14   C15   A    
H15   N10   S    
C13   C14   A    
C12   H1    S    
C40   N7    S    
Cu1   O9    S    
