data_mof_unit_5560.cif
_audit_creation_date              2012-12-10T17:03:40-0500
_audit_creation_method            fapswitch 2.2
_symmetry_space_group_name_H-M    P1
_symmetry_Int_Tables_number       1
_space_group_crystal_system       triclinic
_cell_length_a                    39.21749
_cell_length_b                    21.950759
_cell_length_c                    21.875792
_cell_angle_alpha                 89.903982
_cell_angle_beta                  125.298732
_cell_angle_gamma                 90.041625
_cell_volume                      15369.604029

loop_
_atom_site_label
_atom_site_type_symbol
_atom_type_description
_atom_site_fract_x
_atom_site_fract_y
_atom_site_fract_z
_atom_type_partial_charge
C1    C     C_R   0.996826 0.999230 0.114983 0.872521
C2    C     C_R   0.003191 0.999308 0.885040 0.872671
C3    C     C_R   0.496902 0.498956 0.115222 0.862739
C4    C     C_R   0.503190 0.499306 0.885036 0.873695
C5    C     C_3   0.273099 0.022746 0.212938 -0.048356
C6    C     C_3   0.726827 0.022325 0.786955 -0.048546
C7    C     C_3   0.773146 0.522479 0.212664 -0.048623
C8    C     C_3   0.226797 0.522754 0.786474 -0.048559
C9    C     C_3   0.224678 0.012305 0.155553 0.699880
C10   C     C_3   0.775272 0.011993 0.844373 0.700241
C11   C     C_3   0.724738 0.511806 0.155281 0.700462
C12   C     C_3   0.275251 0.512615 0.843871 0.696957
C13   C     C_1   0.337669 0.000214 0.339331 0.093316
C14   C     C_1   0.662310 0.999913 0.660627 0.092430
C15   C     C_1   0.837649 0.500783 0.339457 0.092562
C16   C     C_1   0.162284 0.500245 0.660328 0.092175
C17   C     C_1   0.161753 0.002138 0.161127 0.073765
C18   C     C_1   0.838224 0.002053 0.838841 0.073641
C19   C     C_1   0.661724 0.502464 0.160720 0.073582
C20   C     C_1   0.338198 0.502265 0.838444 0.073966
C21   C     C_1   0.124201 0.000676 0.124506 -0.212503
C22   C     C_1   0.875784 0.000669 0.875476 -0.212699
C23   C     C_1   0.624181 0.500804 0.124181 -0.213870
C24   C     C_1   0.375767 0.500722 0.875284 -0.217095
C25   C     C_R   0.060705 0.056745 0.249359 -0.327088
C26   C     C_R   0.939324 0.056943 0.750490 -0.327487
C27   C     C_R   0.558715 0.562005 0.247555 -0.326740
C28   C     C_R   0.439369 0.557049 0.750514 -0.327502
C29   C     C_R   0.086675 0.098743 0.305989 0.524221
C30   C     C_R   0.913298 0.098877 0.693636 0.524346
C31   C     C_R   0.583340 0.605761 0.302873 0.524725
C32   C     C_R   0.413369 0.599011 0.693673 0.524398
C33   C     C_R   0.081169 0.108753 0.362685 0.220708
C34   C     C_R   0.918760 0.108800 0.636838 0.220721
C35   C     C_R   0.577260 0.615508 0.358958 0.222986
C36   C     C_R   0.418848 0.608927 0.636895 0.220603
C37   C     C_R   0.050211 0.076670 0.362152 -0.331151
C38   C     C_R   0.949722 0.076693 0.637486 -0.330966
C39   C     C_R   0.547527 0.581047 0.359705 -0.333594
C40   C     C_R   0.449786 0.576768 0.637529 -0.330852
C41   C     C_R   0.024682 0.032273 0.306529 0.028793
C42   C     C_R   0.975298 0.032349 0.693329 0.028814
C43   C     C_R   0.523710 0.534856 0.305721 0.024506
C44   C     C_R   0.475329 0.532390 0.693350 0.028799
C45   C     C_R   0.079664 0.000080 0.080295 0.861001
C46   C     C_R   0.920330 0.000089 0.919703 0.861001
C47   C     C_R   0.579659 0.500096 0.080187 0.862091
C48   C     C_R   0.420328 0.500087 0.919779 0.852110
C49   C     C_R   0.027003 0.027749 0.245244 -0.001156
C50   C     C_R   0.973024 0.027923 0.754693 -0.001459
C51   C     C_R   0.526107 0.530409 0.244493 0.002126
C52   C     C_R   0.473052 0.527975 0.754711 -0.001614
C53   C     C_R   0.996263 0.994628 0.310056 -0.112981
C54   C     C_R   0.003733 0.994684 0.689957 -0.112633
C55   C     C_R   0.497701 0.494031 0.311857 -0.111300
C56   C     C_R   0.503724 0.494664 0.689941 -0.111941
C57   C     C_R   0.965194 0.958131 0.246414 -0.162777
C58   C     C_R   0.034871 0.958299 0.753799 -0.162833
C59   C     C_R   0.472319 0.449547 0.254679 -0.161738
C60   C     C_R   0.534794 0.458160 0.753706 -0.162918
C61   C     C_R   0.964180 0.960800 0.179713 -0.084419
C62   C     C_R   0.035911 0.961046 0.820509 -0.084437
C63   C     C_R   0.470126 0.451451 0.186775 -0.076852
C64   C     C_R   0.535851 0.460909 0.820436 -0.084312
C65   C     C_R   0.995653 0.995753 0.180684 -0.099185
C66   C     C_R   0.004411 0.995975 0.819394 -0.099301
C67   C     C_R   0.496644 0.494372 0.182058 -0.106162
C68   C     C_R   0.504409 0.495963 0.819386 -0.099771
C69   C     C_R   0.934885 0.919028 0.245851 0.397457
C70   C     C_R   0.065223 0.919226 0.754548 0.397673
C71   C     C_R   0.449378 0.402327 0.262866 0.353319
C72   C     C_R   0.565053 0.418956 0.754342 0.397582
C73   C     C_R   0.903345 0.889092 0.179592 0.418527
C74   C     C_R   0.096873 0.889495 0.821020 0.418428
C75   C     C_R   0.428909 0.356426 0.208955 0.400428
C76   C     C_R   0.596591 0.388974 0.820682 0.418866
C77   C     C_R   0.900649 0.897622 0.114752 -0.408146
C78   C     C_R   0.099580 0.898118 0.885829 -0.408089
C79   C     C_R   0.421222 0.364468 0.140283 -0.388578
C80   C     C_R   0.599340 0.397576 0.885531 -0.408972
C81   C     C_R   0.931874 0.927351 0.114807 0.415357
C82   C     C_R   0.068273 0.927687 0.885581 0.415159
C83   C     C_R   0.442130 0.408949 0.127670 0.430307
C84   C     C_R   0.568157 0.427412 0.885440 0.415786
C85   C     C_R   0.499990 0.881367 0.500020 0.899673
C86   C     C_R   0.999992 0.381358 0.500037 0.898869
C87   C     C_3   0.225348 0.941417 0.252263 -0.051793
C88   C     C_3   0.774673 0.941272 0.747841 -0.051720
C89   C     C_3   0.725342 0.442391 0.253061 -0.052256
C90   C     C_3   0.274595 0.441610 0.747427 -0.052910
C91   C     C_R   0.420164 0.001233 0.419709 0.813615
C92   C     C_R   0.579832 0.001135 0.580284 0.816338
C93   C     C_R   0.920160 0.501293 0.419716 0.814761
C94   C     C_R   0.079826 0.501190 0.580266 0.814846
C95   C     C_R   0.499999 0.118505 0.499942 0.785175
C96   C     C_R   0.000017 0.618502 0.499970 0.784504
C97   C     C_R   0.000008 0.880691 0.499968 0.961160
C98   C     C_R   0.500011 0.380688 0.500081 0.977130
C99   C     C_R   0.999063 0.996194 0.380081 0.927143
C100  C     C_R   0.000936 0.996201 0.619931 0.927312
C101  C     C_R   0.499345 0.496873 0.380466 0.939613
C102  C     C_R   0.500934 0.496191 0.619925 0.925810
C103  C     C_R   0.000006 0.118925 0.500082 0.962849
C104  C     C_R   0.499972 0.618933 0.499799 0.958777
C105  C     C_R   0.429860 0.809003 0.368703 0.077820
C106  C     C_R   0.569921 0.808393 0.631377 0.078081
C107  C     C_R   0.929963 0.308584 0.368732 0.077957
C108  C     C_R   0.069940 0.308482 0.631639 0.078141
C109  C     C_R   0.396283 0.771773 0.313349 0.102468
C110  C     C_R   0.603200 0.770816 0.687106 0.102008
C111  C     C_R   0.896709 0.271039 0.313030 0.101875
C112  C     C_R   0.103221 0.270947 0.687441 0.101565
C113  C     C_R   0.902878 0.208657 0.314271 0.399794
C114  C     C_R   0.097229 0.208490 0.686014 0.399572
C115  C     C_R   0.401866 0.709249 0.315133 0.396981
C116  C     C_R   0.597186 0.708362 0.685596 0.399478
C117  C     C_R   0.943005 0.186096 0.365376 0.355945
C118  C     C_R   0.057156 0.185818 0.634836 0.355865
C119  C     C_R   0.441995 0.686240 0.365225 0.355842
C120  C     C_R   0.557086 0.685769 0.634454 0.356899
C121  C     C_R   0.970363 0.217475 0.433763 -0.149422
C122  C     C_R   0.029713 0.217353 0.566486 -0.149135
C123  C     C_R   0.469952 0.717538 0.433513 -0.149007
C124  C     C_R   0.529644 0.717329 0.566110 -0.148934
C125  C     C_3   0.224663 0.058436 0.267437 0.478985
C126  C     C_3   0.775239 0.058328 0.732370 0.479397
C127  C     C_3   0.724502 0.559680 0.266164 0.481358
C128  C     C_3   0.275214 0.558632 0.731784 0.479470
C129  C     C_R   0.466610 0.781696 0.434535 -0.060617
C130  C     C_R   0.533159 0.781435 0.565343 -0.061129
C131  C     C_R   0.966783 0.281548 0.434667 -0.060364
C132  C     C_R   0.033205 0.281472 0.565617 -0.060606
C133  C     C_R   0.000029 0.185762 0.500120 -0.101011
C134  C     C_R   0.499878 0.685774 0.499748 -0.101179
C135  C     C_R   0.499931 0.814294 0.499973 -0.071639
C136  C     C_R   0.999984 0.314270 0.500125 -0.071682
C137  C     C_R   0.561789 0.183035 0.499516 -0.309080
C138  C     C_R   0.437874 0.182855 0.499270 -0.314734
C139  C     C_R   0.061987 0.683000 0.500066 -0.311016
C140  C     C_R   0.937911 0.682889 0.499321 -0.310356
C141  C     C_R   0.583788 0.207179 0.473790 0.170425
C142  C     C_R   0.415698 0.206807 0.524674 0.171775
C143  C     C_R   0.084179 0.707157 0.474727 0.170282
C144  C     C_R   0.915735 0.706847 0.524717 0.170381
C145  C     C_R   0.080069 0.769073 0.457044 0.483416
C146  C     C_R   0.919979 0.768641 0.542783 0.483359
C147  C     C_R   0.579618 0.269079 0.456064 0.473568
C148  C     C_R   0.419887 0.268628 0.542609 0.484425
C149  C     C_R   0.054400 0.806677 0.467628 0.105399
C150  C     C_R   0.945692 0.806375 0.532343 0.105604
C151  C     C_R   0.554193 0.306698 0.467210 0.090408
C152  C     C_R   0.445603 0.306359 0.532178 0.104444
C153  C     C_R   0.028181 0.780556 0.488265 -0.039993
C154  C     C_R   0.971860 0.780431 0.511568 -0.040330
C155  C     C_R   0.528088 0.280581 0.488098 -0.057011
C156  C     C_R   0.471792 0.280421 0.511448 -0.043667
C157  C     C_R   0.530173 0.216477 0.496748 -0.011033
C158  C     C_R   0.469617 0.216377 0.502473 -0.007753
C159  C     C_R   0.030297 0.716458 0.497041 -0.004141
C160  C     C_R   0.969680 0.716387 0.502590 -0.004002
C161  C     C_R   0.000027 0.813471 0.499951 -0.091333
C162  C     C_R   0.499991 0.313474 0.499925 -0.095543
C163  C     C_3   0.274945 0.047902 0.331435 0.318823
C164  C     C_3   0.724972 0.047748 0.668399 0.318723
C165  C     C_3   0.774757 0.549250 0.330584 0.317951
C166  C     C_3   0.224932 0.548036 0.667864 0.318715
C167  C     C_R   0.499931 0.185210 0.499714 -0.068530
C168  C     C_R   0.999993 0.685204 0.499840 -0.061628
C169  C     C_1   0.375343 0.001016 0.374706 -0.266977
C170  C     C_1   0.624643 0.000782 0.625273 -0.265002
C171  C     C_1   0.875329 0.501359 0.374772 -0.265254
C172  C     C_1   0.124629 0.500999 0.625154 -0.264768
C173  C     C_3   0.207836 0.003626 0.207007 -0.048352
C174  C     C_3   0.792130 0.003462 0.792948 -0.048366
C175  C     C_3   0.707796 0.504135 0.206697 -0.048382
C176  C     C_3   0.292096 0.503852 0.792463 -0.046836
C177  C     C_3   0.273914 0.932401 0.292157 0.673372
C178  C     C_3   0.726119 0.932174 0.707973 0.673628
C179  C     C_3   0.773898 0.433266 0.293047 0.674756
C180  C     C_3   0.226052 0.432525 0.707590 0.674220
C181  C     C_3   0.291469 0.999999 0.295956 -0.031555
C182  C     C_3   0.708501 0.999720 0.703994 -0.031970
C183  C     C_3   0.791432 0.500665 0.295977 -0.031962
C184  C     C_3   0.208463 0.500082 0.703557 -0.031920
Cu1   Cu    Cu3+1 1.000000 0.938180 0.000000 0.916150
Cu2   Cu    Cu3+1 0.500000 0.438180 0.000000 0.913756
Cu3   Cu    Cu3+1 0.000000 0.061820 0.000000 0.906592
Cu4   Cu    Cu3+1 0.500000 0.561820 0.000000 0.905530
Cu5   Cu    Cu3+1 0.500000 0.000200 0.561810 0.921599
Cu6   Cu    Cu3+1 0.500000 0.000200 0.438190 0.914024
Cu7   Cu    Cu3+1 0.000000 0.500200 0.561810 0.921172
Cu8   Cu    Cu3+1 1.000000 0.500200 0.438190 0.921390
Cu9   Cu    Cu3+1 0.958680 0.000030 0.458700 0.903078
Cu10  Cu    Cu3+1 0.041320 0.000030 0.541300 0.903301
Cu11  Cu    Cu3+1 0.458680 0.500030 0.458700 0.909755
Cu12  Cu    Cu3+1 0.541320 0.500030 0.541300 0.904191
H1    H     H_    0.274381 0.072283 0.217798 0.146072
H2    H     H_    0.725450 0.071876 0.781983 0.145704
H3    H     H_    0.774404 0.572083 0.216799 0.146275
H4    H     H_    0.225340 0.572289 0.781358 0.146239
H5    H     H_    0.876124 0.874860 0.064218 0.181800
H6    H     H_    0.124158 0.875465 0.936504 0.181887
H7    H     H_    0.399694 0.333075 0.096522 0.184532
H8    H     H_    0.623863 0.374771 0.936123 0.181764
H9    H     H_    0.067389 0.047139 0.208888 0.158690
H10   H     H_    0.932678 0.047392 0.791049 0.158753
H11   H     H_    0.566197 0.551942 0.208294 0.160947
H12   H     H_    0.432707 0.547511 0.791054 0.159509
H13   H     H_    0.045653 0.089344 0.404583 0.189698
H14   H     H_    0.954249 0.089325 0.594965 0.189505
H15   H     H_    0.543084 0.592219 0.402696 0.187918
H16   H     H_    0.454319 0.589376 0.595009 0.189791
H17   H     H_    0.224616 0.948361 0.300583 0.112508
H18   H     H_    0.775400 0.948311 0.699505 0.112446
H19   H     H_    0.724539 0.450168 0.301247 0.112993
H20   H     H_    0.275308 0.448581 0.699067 0.112921
H21   H     H_    0.567806 0.135751 0.516470 0.175386
H22   H     H_    0.431899 0.135623 0.482235 0.173592
H23   H     H_    0.067934 0.635697 0.516955 0.173973
H24   H     H_    0.931916 0.635667 0.482243 0.173614
O1    O     O_R   0.000000 0.947790 0.090180 -0.558057
O2    O     O_R   0.000000 0.947790 0.909820 -0.558086
O3    O     O_R   0.500000 0.447790 0.090180 -0.554907
O4    O     O_R   0.500000 0.447790 0.909820 -0.558115
O5    O     O_R   0.965110 0.000030 0.374950 -0.539840
O6    O     O_R   0.034890 0.000030 0.625050 -0.539674
O7    O     O_R   0.465110 0.500030 0.374950 -0.533882
O8    O     O_R   0.534890 0.500030 0.625050 -0.540393
O9    O     O_R   0.034890 0.000000 0.444730 -0.626283
O10   O     O_R   0.965110 0.000000 0.555270 -0.626684
O11   O     O_R   0.534890 0.500000 0.444730 -0.628886
O12   O     O_R   0.465110 0.500000 0.555270 -0.626317
O13   O     O_R   0.965120 0.090230 0.465150 -0.594599
O14   O     O_R   0.034880 0.090230 0.534850 -0.594280
O15   O     O_R   0.465120 0.590230 0.465150 -0.591535
O16   O     O_R   0.534880 0.590230 0.534850 -0.595787
O17   O     O_R   0.000000 0.052210 0.090190 -0.605867
O18   O     O_R   0.000000 0.052210 0.909810 -0.605919
O19   O     O_R   0.500000 0.552210 0.090190 -0.604271
O20   O     O_R   0.500000 0.552210 0.909810 -0.605589
O21   O     O_R   0.060280 0.947790 0.060280 -0.569100
O22   O     O_R   0.939720 0.947790 0.939720 -0.569240
O23   O     O_R   0.560280 0.447790 0.060280 -0.569203
O24   O     O_R   0.439720 0.447790 0.939720 -0.575933
O25   O     O_R   0.060280 0.052210 0.060300 -0.604645
O26   O     O_R   0.939720 0.052210 0.939700 -0.604567
O27   O     O_R   0.560280 0.552210 0.060300 -0.604765
O28   O     O_R   0.439720 0.552210 0.939700 -0.602715
O29   O     O_R   0.500000 0.910000 0.552220 -0.564183
O30   O     O_R   0.500000 0.910000 0.447780 -0.563523
O31   O     O_R   0.000000 0.410000 0.552220 -0.564195
O32   O     O_R   0.000000 0.410000 0.447780 -0.564293
O33   O     O_R   0.439720 0.000200 0.491920 -0.588318
O34   O     O_R   0.560280 0.000200 0.508080 -0.588689
O35   O     O_R   0.939720 0.500200 0.491920 -0.589073
O36   O     O_R   0.060280 0.500200 0.508080 -0.589125
O37   O     O_R   0.439720 0.000170 0.387540 -0.581218
O38   O     O_R   0.560280 0.000170 0.612460 -0.579373
O39   O     O_R   0.939720 0.500170 0.387540 -0.579387
O40   O     O_R   0.060280 0.500170 0.612460 -0.579614
O41   O     O_R   0.500000 0.090400 0.552190 -0.582786
O42   O     O_R   0.500000 0.090400 0.447810 -0.593315
O43   O     O_R   0.000000 0.590400 0.552190 -0.585748
O44   O     O_R   0.000000 0.590400 0.447810 -0.585902
O45   O     O_R   0.965090 0.909820 0.465090 -0.577130
O46   O     O_R   0.034910 0.909820 0.534910 -0.577592
O47   O     O_R   0.465090 0.409820 0.465090 -0.573079
O48   O     O_R   0.534910 0.409820 0.534910 -0.576858
N1    N     N_2   0.293637 0.907724 0.368797 -0.427308
H25   H     H_    0.274289 0.885906 0.379530 0.231020
C185  C     C_3   0.335791 0.882728 0.412147 -0.669485
H26   H     H_    0.355220 0.905890 0.467027 0.230282
H27   H     H_    0.351056 0.886778 0.382722 0.230759
H28   H     H_    0.334848 0.833662 0.423633 0.200805
N2    N     N_2   0.706423 0.907553 0.631407 -0.427465
H29   H     H_    0.725800 0.885829 0.620734 0.231070
C186  C     C_3   0.664306 0.882469 0.588129 -0.668908
H30   H     H_    0.644886 0.905522 0.533084 0.230444
H31   H     H_    0.648987 0.886576 0.617440 0.230483
H32   H     H_    0.665329 0.833383 0.576983 0.200712
N3    N     N_2   0.793600 0.409265 0.369965 -0.427413
H33   H     H_    0.774237 0.387820 0.380928 0.231066
C187  C     C_3   0.835781 0.384369 0.413738 -0.669821
H34   H     H_    0.855184 0.408127 0.468217 0.230445
H35   H     H_    0.851053 0.387766 0.384271 0.230712
H36   H     H_    0.834886 0.335489 0.426001 0.201156
N4    N     N_2   0.206344 0.407845 0.631044 -0.427173
H37   H     H_    0.225710 0.386059 0.620391 0.231127
C188  C     C_3   0.164209 0.382821 0.587769 -0.669542
H38   H     H_    0.144791 0.405910 0.532748 0.230211
H39   H     H_    0.148905 0.386931 0.617105 0.230658
H40   H     H_    0.165199 0.333737 0.576577 0.200865
N5    N     N_2   0.198759 0.886943 0.218278 -0.427380
H41   H     H_    0.178077 0.880976 0.232621 0.237416
C189  C     C_3   0.181182 0.865829 0.142731 -0.532438
H42   H     H_    0.165324 0.821518 0.134144 0.159612
H43   H     H_    0.205427 0.857456 0.133123 0.272037
H44   H     H_    0.157417 0.897885 0.100289 0.253054
N6    N     N_2   0.801297 0.886802 0.781944 -0.427272
H45   H     H_    0.821979 0.880911 0.767605 0.237393
C190  C     C_3   0.818900 0.865615 0.857548 -0.532361
H46   H     H_    0.834792 0.821329 0.866244 0.159456
H47   H     H_    0.794666 0.857169 0.867188 0.272067
H48   H     H_    0.842643 0.897666 0.899896 0.253071
N7    N     N_2   0.698854 0.387722 0.219980 -0.427163
H49   H     H_    0.678184 0.382202 0.234422 0.237150
C191  C     C_3   0.681315 0.365708 0.144786 -0.532677
H50   H     H_    0.665513 0.321473 0.136910 0.159279
H51   H     H_    0.705569 0.356899 0.135319 0.272289
H52   H     H_    0.657515 0.397419 0.101806 0.252579
N8    N     N_2   0.301194 0.387127 0.781524 -0.429727
H53   H     H_    0.321937 0.381250 0.767322 0.236965
C192  C     C_3   0.318663 0.365852 0.857032 -0.523041
H54   H     H_    0.334215 0.321296 0.865472 0.157376
H55   H     H_    0.294391 0.357881 0.866681 0.274076
H56   H     H_    0.342648 0.397604 0.899497 0.252746
O49   O     O_3   0.281135 0.892938 0.248897 -0.563417
C193  C     C_3   0.277839 0.829444 0.258421 -0.270966
H57   H     H_    0.265692 0.805751 0.204821 0.170630
H58   H     H_    0.257627 0.817906 0.276965 0.182042
H59   H     H_    0.308906 0.809325 0.299245 0.171788
O50   O     O_3   0.718942 0.892651 0.751373 -0.563187
C194  C     C_3   0.722216 0.829171 0.741999 -0.272369
H60   H     H_    0.734434 0.805454 0.795700 0.170173
H61   H     H_    0.742380 0.817655 0.723375 0.182366
H62   H     H_    0.691122 0.809096 0.701367 0.170973
O51   O     O_3   0.781134 0.393247 0.250237 -0.562786
C195  C     C_3   0.778113 0.329882 0.260743 -0.273303
H63   H     H_    0.765939 0.305669 0.207440 0.170322
H64   H     H_    0.758004 0.318646 0.279604 0.182694
H65   H     H_    0.809305 0.310107 0.301624 0.169798
O52   O     O_3   0.218877 0.393063 0.751042 -0.563689
C196  C     C_3   0.222064 0.329562 0.741635 -0.273547
H66   H     H_    0.234276 0.305849 0.795337 0.171280
H67   H     H_    0.242209 0.317965 0.722991 0.182414
H68   H     H_    0.190938 0.309557 0.701039 0.171039
O53   O     O_3   0.118352 0.129363 0.308285 -0.581762
C197  C     C_3   0.101835 0.162942 0.241661 -0.341807
H69   H     H_    0.072915 0.188222 0.224424 0.161291
H70   H     H_    0.095981 0.132930 0.195684 0.171794
H71   H     H_    0.125364 0.197199 0.251731 0.178354
O54   O     O_3   0.881599 0.129505 0.691192 -0.581635
C198  C     C_3   0.898049 0.162950 0.757765 -0.342021
H72   H     H_    0.927036 0.188134 0.775171 0.161290
H73   H     H_    0.903762 0.132858 0.803683 0.171587
H74   H     H_    0.874535 0.197277 0.747528 0.178343
O55   O     O_3   0.614837 0.637555 0.305640 -0.578821
C199  C     C_3   0.599333 0.666211 0.236374 -0.339481
H75   H     H_    0.568453 0.688368 0.212149 0.160642
H76   H     H_    0.597546 0.633466 0.195976 0.169892
H77   H     H_    0.621586 0.702490 0.245769 0.179127
O56   O     O_3   0.381681 0.629674 0.691228 -0.581468
C200  C     C_3   0.398150 0.663134 0.757797 -0.342453
H78   H     H_    0.427158 0.688263 0.775216 0.161161
H79   H     H_    0.403835 0.633063 0.803711 0.171897
H80   H     H_    0.374661 0.697513 0.747549 0.178237
N9    N     N_2   0.106120 0.152507 0.419619 -0.401561
H81   H     H_    0.091215 0.173054 0.440549 0.237139
C201  C     C_3   0.147351 0.130963 0.478670 -0.658768
H82   H     H_    0.165237 0.168509 0.518862 0.210730
H83   H     H_    0.164702 0.115755 0.455428 0.258818
H84   H     H_    0.144955 0.092544 0.509188 0.199128
N10   N     N_2   0.893762 0.152498 0.579680 -0.401544
H85   H     H_    0.908638 0.173023 0.558621 0.237112
C202  C     C_3   0.852546 0.130896 0.520762 -0.658962
H86   H     H_    0.834619 0.168403 0.480380 0.210663
H87   H     H_    0.835221 0.115705 0.544107 0.258808
H88   H     H_    0.854967 0.092451 0.490431 0.199160
N11   N     N_2   0.600774 0.660790 0.414576 -0.400889
H89   H     H_    0.584920 0.680773 0.433981 0.238306
C203  C     C_3   0.642272 0.641480 0.475208 -0.657200
H90   H     H_    0.659009 0.680130 0.514224 0.210413
H91   H     H_    0.660458 0.626684 0.453452 0.259201
H92   H     H_    0.640367 0.603333 0.506620 0.199440
N12   N     N_2   0.393890 0.652668 0.579771 -0.401597
H93   H     H_    0.408803 0.673203 0.558788 0.237035
C204  C     C_3   0.352680 0.631109 0.520771 -0.658911
H94   H     H_    0.334783 0.668647 0.480420 0.210565
H95   H     H_    0.335319 0.615897 0.544040 0.258869
H96   H     H_    0.355114 0.592691 0.490424 0.199410
O57   O     O_3   0.937276 0.905757 0.310428 -0.565406
C205  C     C_3   0.898364 0.917218 0.300051 -0.123104
H97   H     H_    0.883068 0.873421 0.296140 0.176962
H98   H     H_    0.876516 0.946891 0.251066 0.088447
H99   H     H_    0.903410 0.941516 0.348785 0.164213
O58   O     O_3   0.062753 0.905762 0.689976 -0.565699
C206  C     C_3   0.101613 0.917143 0.700098 -0.123024
H100  H     H_    0.116911 0.873316 0.704229 0.177019
H101  H     H_    0.123485 0.946901 0.748846 0.088678
H102  H     H_    0.096493 0.941326 0.651164 0.164369
O59   O     O_3   0.447390 0.398597 0.323882 -0.585879
C207  C     C_3   0.405084 0.401897 0.300263 -0.143000
H103  H     H_    0.394439 0.356116 0.304165 0.178540
H104  H     H_    0.382846 0.420801 0.242752 0.106807
H105  H     H_    0.402801 0.432288 0.338105 0.163808
O60   O     O_3   0.562613 0.405641 0.689770 -0.565907
C208  C     C_3   0.601522 0.416946 0.700051 -0.122863
H106  H     H_    0.616736 0.373087 0.703982 0.177643
H107  H     H_    0.623442 0.446510 0.748986 0.088391
H108  H     H_    0.596488 0.441299 0.651277 0.163846
O61   O     O_3   0.878789 0.844970 0.182401 -0.549064
C209  C     C_3   0.835809 0.855455 0.127080 -0.389253
H109  H     H_    0.825920 0.833815 0.073339 0.174486
H110  H     H_    0.827576 0.904804 0.118599 0.137767
H111  H     H_    0.817704 0.833599 0.145615 0.185829
O62   O     O_3   0.121507 0.845411 0.818495 -0.549160
C210  C     C_3   0.164470 0.856093 0.873670 -0.389310
H112  H     H_    0.174443 0.834584 0.927599 0.174593
H113  H     H_    0.172590 0.905474 0.881749 0.137767
H114  H     H_    0.182598 0.834232 0.855249 0.185898
O63   O     O_3   0.411283 0.306596 0.219654 -0.579089
C211  C     C_3   0.443337 0.264755 0.267013 -0.293075
H115  H     H_    0.465775 0.283946 0.323887 0.187970
H116  H     H_    0.460151 0.249772 0.242491 0.148748
H117  H     H_    0.429060 0.223801 0.273402 0.183037
O64   O     O_3   0.621085 0.344751 0.817964 -0.548756
C212  C     C_3   0.664082 0.355075 0.873242 -0.389216
H118  H     H_    0.673956 0.333373 0.927020 0.174352
H119  H     H_    0.672382 0.404393 0.881648 0.137761
H120  H     H_    0.682146 0.333173 0.854713 0.186032
O65   O     O_3   0.930287 0.921096 0.050349 -0.565517
C213  C     C_3   0.935028 0.858498 0.039440 -0.219128
H121  H     H_    0.904280 0.835164 0.007052 0.122450
H122  H     H_    0.957129 0.833708 0.093007 0.137873
H123  H     H_    0.948100 0.854522 0.006346 0.191670
O66   O     O_3   0.069812 0.921293 0.949995 -0.565582
C214  C     C_3   0.065098 0.858650 0.960969 -0.218709
H124  H     H_    0.095849 0.835298 0.993326 0.122465
H125  H     H_    0.042980 0.833962 0.907427 0.138038
H126  H     H_    0.052058 0.854540 0.994118 0.191509
O67   O     O_3   0.433752 0.410810 0.056655 -0.558449
C215  C     C_3   0.437067 0.351544 0.033677 -0.232913
H127  H     H_    0.405803 0.329829 0.998942 0.125662
H128  H     H_    0.459538 0.321163 0.081336 0.122239
H129  H     H_    0.449063 0.354370 0.998905 0.198396
O68   O     O_3   0.569774 0.421210 0.949958 -0.565236
C216  C     C_3   0.565221 0.358602 0.961363 -0.219984
H130  H     H_    0.596086 0.335586 0.994428 0.122830
H131  H     H_    0.543447 0.333497 0.907988 0.137350
H132  H     H_    0.551852 0.354603 0.993977 0.191158
N13   N     N_2   0.642117 0.796030 0.746976 -0.415886
H133  H     H_    0.650037 0.838024 0.738312 0.257566
C217  C     C_3   0.655468 0.785189 0.823295 -0.604979
H134  H     H_    0.663091 0.829087 0.853773 0.176069
H135  H     H_    0.684033 0.756538 0.852603 0.243254
H136  H     H_    0.630826 0.762265 0.825266 0.229677
N14   N     N_2   0.357478 0.797343 0.253512 -0.415496
H137  H     H_    0.349760 0.839487 0.262043 0.258204
C218  C     C_3   0.343907 0.786167 0.177168 -0.605909
H138  H     H_    0.336799 0.830008 0.146604 0.176425
H139  H     H_    0.314997 0.758295 0.148007 0.242887
H140  H     H_    0.368213 0.762254 0.175119 0.228480
N15   N     N_2   0.142130 0.296203 0.747282 -0.416575
H141  H     H_    0.150052 0.338173 0.738561 0.257273
C219  C     C_3   0.155455 0.285469 0.823603 -0.601401
H142  H     H_    0.163060 0.329408 0.853995 0.177045
H143  H     H_    0.184023 0.256825 0.852987 0.244251
H144  H     H_    0.130804 0.262577 0.825578 0.229185
N16   N     N_2   0.857632 0.296228 0.253547 -0.415860
H145  H     H_    0.849652 0.337979 0.262556 0.257583
C220  C     C_3   0.843997 0.285896 0.177014 -0.605220
H146  H     H_    0.836271 0.329970 0.146706 0.175945
H147  H     H_    0.815440 0.257254 0.147860 0.243055
H148  H     H_    0.868515 0.263186 0.174562 0.230172
N17   N     N_2   0.427472 0.872058 0.353025 -0.382691
H149  H     H_    0.402259 0.893441 0.346449 0.225193
C221  C     C_3   0.433132 0.886727 0.294577 -0.585565
H150  H     H_    0.435461 0.936662 0.290645 0.229542
H151  H     H_    0.406396 0.870691 0.239227 0.199767
H152  H     H_    0.462315 0.865654 0.307167 0.219797
N18   N     N_2   0.572546 0.871479 0.646905 -0.383804
H153  H     H_    0.597828 0.892612 0.653407 0.224659
C222  C     C_3   0.566927 0.886378 0.705311 -0.585340
H154  H     H_    0.564637 0.936325 0.708983 0.230862
H155  H     H_    0.593666 0.870405 0.760747 0.199856
H156  H     H_    0.537740 0.865430 0.692899 0.219222
N19   N     N_2   0.927259 0.371729 0.353244 -0.383614
H157  H     H_    0.901999 0.392715 0.346942 0.224586
C223  C     C_3   0.932665 0.386889 0.294587 -0.585145
H158  H     H_    0.934720 0.436864 0.290620 0.230838
H159  H     H_    0.905935 0.370779 0.239288 0.199938
H160  H     H_    0.961897 0.366229 0.306907 0.219343
N20   N     N_2   0.072544 0.371586 0.647066 -0.383767
H161  H     H_    0.097835 0.392710 0.653583 0.224754
C224  C     C_3   0.066888 0.386555 0.705410 -0.584468
H162  H     H_    0.064594 0.436507 0.709027 0.230852
H163  H     H_    0.093611 0.370610 0.760880 0.199790
H164  H     H_    0.037691 0.365625 0.692974 0.219187
O69   O     O_3   0.872017 0.172360 0.256917 -0.556620
C225  C     C_3   0.861062 0.126162 0.287523 -0.292203
H165  H     H_    0.853174 0.145245 0.325096 0.131875
H166  H     H_    0.886237 0.091520 0.317734 0.201758
H167  H     H_    0.832844 0.102500 0.240959 0.161945
O70   O     O_3   0.128155 0.172169 0.743399 -0.556414
C226  C     C_3   0.139166 0.126144 0.712836 -0.292536
H168  H     H_    0.146995 0.145405 0.675194 0.131700
H169  H     H_    0.114052 0.091442 0.682715 0.201589
H170  H     H_    0.167436 0.102505 0.759417 0.162192
O71   O     O_3   0.370315 0.673006 0.258893 -0.557620
C227  C     C_3   0.359396 0.628375 0.291212 -0.289725
H171  H     H_    0.351902 0.649110 0.328606 0.131579
H172  H     H_    0.384434 0.593626 0.322145 0.200914
H173  H     H_    0.330944 0.604466 0.245607 0.164702
O72   O     O_3   0.628100 0.671994 0.742934 -0.556468
C228  C     C_3   0.638968 0.625829 0.712297 -0.292733
H174  H     H_    0.646682 0.644936 0.674427 0.131394
H175  H     H_    0.613822 0.591148 0.682405 0.202004
H176  H     H_    0.667272 0.602207 0.758818 0.162033
O73   O     O_3   0.955760 0.135046 0.346626 -0.566986
C229  C     C_3   0.961785 0.151688 0.290986 -0.311075
H177  H     H_    0.991958 0.176154 0.316832 0.152449
H178  H     H_    0.936057 0.179928 0.245027 0.166350
H179  H     H_    0.962379 0.109973 0.263486 0.195159
O74   O     O_3   0.044471 0.134631 0.653649 -0.567099
C230  C     C_3   0.038450 0.151037 0.709311 -0.310430
H180  H     H_    0.008215 0.175334 0.683450 0.152547
H181  H     H_    0.064099 0.179355 0.755166 0.166120
H182  H     H_    0.038017 0.109237 0.736990 0.195155
O75   O     O_3   0.453952 0.634494 0.346054 -0.566882
C231  C     C_3   0.457517 0.649257 0.286981 -0.310042
H183  H     H_    0.486635 0.675558 0.308764 0.151614
H184  H     H_    0.430324 0.674944 0.240342 0.171225
H185  H     H_    0.458593 0.606604 0.261454 0.194767
O76   O     O_3   0.544338 0.634712 0.653362 -0.566598
C232  C     C_3   0.538340 0.651318 0.708996 -0.310889
H186  H     H_    0.508146 0.675741 0.683103 0.152551
H187  H     H_    0.564041 0.679590 0.754825 0.165854
H188  H     H_    0.537827 0.609597 0.736711 0.195185
N21   N     N_2   0.390585 0.167598 0.535212 -0.434086
H189  H     H_    0.378134 0.131413 0.498493 0.264018
C233  C     C_3   0.410327 0.148188 0.611904 -0.669183
H190  H     H_    0.438330 0.120003 0.630720 0.227188
H191  H     H_    0.388004 0.120501 0.615945 0.205980
H192  H     H_    0.419670 0.188147 0.649494 0.260081
N22   N     N_2   0.608771 0.168123 0.462882 -0.431030
H193  H     H_    0.621376 0.131884 0.499644 0.263806
C234  C     C_3   0.588790 0.148889 0.386137 -0.682739
H194  H     H_    0.560812 0.120738 0.367616 0.224517
H195  H     H_    0.610996 0.121218 0.381819 0.209470
H196  H     H_    0.579347 0.188944 0.348504 0.257449
N23   N     N_2   0.890582 0.667652 0.535149 -0.433947
H197  H     H_    0.878028 0.631627 0.498202 0.263880
C235  C     C_3   0.910374 0.647948 0.611754 -0.669542
H198  H     H_    0.938284 0.619639 0.630276 0.227161
H199  H     H_    0.888030 0.620301 0.615777 0.206325
H200  H     H_    0.919873 0.687768 0.649594 0.260102
N24   N     N_2   0.109261 0.668084 0.464069 -0.434005
H201  H     H_    0.121659 0.631705 0.500634 0.264004
C236  C     C_3   0.089533 0.649099 0.387306 -0.669459
H202  H     H_    0.061478 0.620971 0.368312 0.226894
H203  H     H_    0.111836 0.621481 0.383210 0.206320
H204  H     H_    0.080274 0.689265 0.349899 0.260303
O77   O     O_3   0.099187 0.794275 0.425575 -0.573822
C237  C     C_3   0.143226 0.788765 0.474346 -0.305983
H205  H     H_    0.155614 0.783073 0.534517 0.128945
H206  H     H_    0.157341 0.830847 0.469899 0.165915
H207  H     H_    0.153828 0.750341 0.456320 0.203064
O78   O     O_3   0.900983 0.793565 0.574539 -0.573680
C238  C     C_3   0.856932 0.788220 0.525936 -0.305565
H208  H     H_    0.846346 0.749702 0.543985 0.203034
H209  H     H_    0.844440 0.782776 0.465707 0.129018
H210  H     H_    0.842905 0.830266 0.530580 0.165901
O79   O     O_3   0.598508 0.294299 0.424191 -0.577392
C239  C     C_3   0.642559 0.288854 0.472601 -0.301853
H211  H     H_    0.655141 0.283309 0.532879 0.130146
H212  H     H_    0.656570 0.330901 0.467806 0.164782
H213  H     H_    0.653066 0.250369 0.454483 0.202591
O80   O     O_3   0.400815 0.293598 0.574202 -0.573764
C240  C     C_3   0.356771 0.288213 0.525476 -0.306174
H214  H     H_    0.344348 0.282730 0.465284 0.128824
H215  H     H_    0.342701 0.330260 0.530007 0.166298
H216  H     H_    0.346159 0.249702 0.543486 0.202992
N25   N     N_2   0.055181 0.869919 0.454585 -0.377108
H217  H     H_    0.038739 0.880984 0.398556 0.257908
C241  C     C_3   0.096183 0.898922 0.500854 -0.538504
H218  H     H_    0.094960 0.940091 0.528479 0.225780
H219  H     H_    0.107070 0.912535 0.465860 0.214598
H220  H     H_    0.119849 0.868772 0.547066 0.174835
N26   N     N_2   0.945018 0.869540 0.545676 -0.377361
H221  H     H_    0.961619 0.880363 0.601754 0.257942
C242  C     C_3   0.904043 0.898713 0.499742 -0.538279
H222  H     H_    0.905208 0.939935 0.471997 0.225942
H223  H     H_    0.893345 0.912236 0.535011 0.214625
H224  H     H_    0.880252 0.868726 0.453601 0.174870
N27   N     N_2   0.555150 0.369957 0.454532 -0.372294
H225  H     H_    0.539143 0.380976 0.398577 0.255148
C243  C     C_3   0.596233 0.398651 0.501285 -0.532789
H226  H     H_    0.595000 0.439883 0.528814 0.224531
H227  H     H_    0.607387 0.412166 0.466675 0.211886
H228  H     H_    0.619701 0.368320 0.547511 0.175089
N28   N     N_2   0.444902 0.369526 0.545464 -0.379234
H229  H     H_    0.461388 0.380354 0.601527 0.258273
C244  C     C_3   0.403942 0.398711 0.499281 -0.538019
H230  H     H_    0.405178 0.439829 0.471447 0.228928
H231  H     H_    0.393164 0.412404 0.534378 0.214365
H232  H     H_    0.380178 0.368654 0.453203 0.174711
O81   O     O_3   0.220018 0.113163 0.226944 -0.583900
C245  C     C_3   0.214438 0.168480 0.253820 -0.299840
H233  H     H_    0.227411 0.167889 0.314293 0.168545
H234  H     H_    0.180676 0.179891 0.220648 0.156670
H235  H     H_    0.229865 0.205941 0.244379 0.170714
O82   O     O_3   0.779817 0.112994 0.772716 -0.583826
C246  C     C_3   0.785363 0.168380 0.745729 -0.301374
H236  H     H_    0.772383 0.167876 0.685254 0.168805
H237  H     H_    0.819118 0.179810 0.778870 0.156637
H238  H     H_    0.769916 0.205783 0.755102 0.169863
O83   O     O_3   0.719995 0.613824 0.224879 -0.584268
C247  C     C_3   0.714383 0.669698 0.250758 -0.301290
H239  H     H_    0.727347 0.669905 0.311227 0.168676
H240  H     H_    0.680616 0.681139 0.217385 0.156722
H241  H     H_    0.729798 0.706734 0.240670 0.169801
O84   O     O_3   0.279792 0.613394 0.771974 -0.583588
C248  C     C_3   0.285316 0.668693 0.744808 -0.301647
H242  H     H_    0.272354 0.668041 0.684343 0.168993
H243  H     H_    0.319065 0.680154 0.777934 0.156415
H244  H     H_    0.269838 0.706151 0.754029 0.169937
N29   N     N_2   0.198408 0.064299 0.296951 -0.433895
H245  H     H_    0.172058 0.090161 0.261889 0.294766
C249  C     C_3   0.185546 0.015913 0.325650 -0.781909
H246  H     H_    0.169464 0.036728 0.348734 0.270064
H247  H     H_    0.211541 0.989419 0.372413 0.226384
H248  H     H_    0.162817 0.984634 0.280433 0.226991
N30   N     N_2   0.801485 0.064337 0.702839 -0.433946
H249  H     H_    0.827812 0.090213 0.737837 0.294534
C250  C     C_3   0.814391 0.016047 0.674254 -0.782058
H250  H     H_    0.830453 0.036957 0.651119 0.270123
H251  H     H_    0.788419 0.989564 0.627554 0.226475
H252  H     H_    0.837149 0.984750 0.719545 0.227035
N31   N     N_2   0.698078 0.566555 0.295222 -0.434804
H253  H     H_    0.671819 0.592435 0.259669 0.290189
C251  C     C_3   0.684889 0.518935 0.324231 -0.788127
H254  H     H_    0.668343 0.540539 0.346058 0.266911
H255  H     H_    0.710746 0.492848 0.371764 0.228434
H256  H     H_    0.662408 0.487158 0.279481 0.227412
N32   N     N_2   0.301465 0.564496 0.702253 -0.433996
H257  H     H_    0.327803 0.590355 0.737236 0.294953
C252  C     C_3   0.314361 0.516112 0.673767 -0.781532
H258  H     H_    0.330464 0.536928 0.650657 0.269871
H259  H     H_    0.288378 0.489638 0.627074 0.226352
H260  H     H_    0.337086 0.484826 0.719115 0.227420
N33   N     N_2   0.281241 0.022542 0.399723 -0.442042
H261  H     H_    0.263749 0.045397 0.413542 0.275216
C253  C     C_3   0.322973 0.020479 0.469281 -0.670801
H262  H     H_    0.323790 0.985152 0.506466 0.224613
H263  H     H_    0.330767 0.064823 0.498882 0.207064
H264  H     H_    0.347448 0.010027 0.461170 0.261006
N34   N     N_2   0.718693 0.022502 0.600164 -0.442070
H265  H     H_    0.736150 0.045461 0.586272 0.275188
C254  C     C_3   0.676955 0.020432 0.530619 -0.669976
H266  H     H_    0.676213 0.985332 0.493405 0.224515
H267  H     H_    0.669030 0.064880 0.501026 0.206953
H268  H     H_    0.652523 0.009628 0.538752 0.260974
N35   N     N_2   0.780828 0.524640 0.398982 -0.442434
H269  H     H_    0.763250 0.547894 0.412312 0.275341
C255  C     C_3   0.822476 0.522725 0.468732 -0.671714
H270  H     H_    0.823266 0.487305 0.505796 0.225473
H271  H     H_    0.830052 0.567045 0.498317 0.207115
H272  H     H_    0.847095 0.512572 0.460880 0.260759
N36   N     N_2   0.218632 0.522690 0.599658 -0.442116
H273  H     H_    0.236100 0.545552 0.585723 0.275163
C256  C     C_3   0.176881 0.520604 0.530153 -0.670352
H274  H     H_    0.176073 0.485327 0.493048 0.224670
H275  H     H_    0.169017 0.564968 0.500409 0.207051
H276  H     H_    0.152448 0.510067 0.538382 0.260902
N37   N     N_2   0.297632 0.106927 0.355426 -0.387299
H277  H     H_    0.292449 0.133514 0.388134 0.252934
C257  C     C_3   0.315551 0.140943 0.323234 -0.714206
H278  H     H_    0.335647 0.177872 0.362407 0.211800
H279  H     H_    0.290982 0.163098 0.269967 0.244751
H280  H     H_    0.335872 0.112701 0.315096 0.225953
N38   N     N_2   0.702223 0.106744 0.644258 -0.388147
H281  H     H_    0.707384 0.133410 0.611490 0.252471
C258  C     C_3   0.684271 0.140652 0.676357 -0.709468
H282  H     H_    0.664116 0.177558 0.637050 0.212826
H283  H     H_    0.708820 0.162806 0.729553 0.243697
H284  H     H_    0.663995 0.112336 0.684610 0.227210
N39   N     N_2   0.797486 0.608230 0.354023 -0.388391
H285  H     H_    0.792253 0.635286 0.386332 0.252757
C259  C     C_3   0.815561 0.641542 0.321646 -0.710120
H286  H     H_    0.835676 0.678632 0.360473 0.212510
H287  H     H_    0.791087 0.663388 0.268062 0.243765
H288  H     H_    0.835899 0.612883 0.313974 0.227220
N40   N     N_2   0.202188 0.607036 0.643650 -0.388073
H289  H     H_    0.207330 0.633631 0.610808 0.252837
C260  C     C_3   0.184283 0.641042 0.675769 -0.710699
H290  H     H_    0.164224 0.678045 0.636540 0.212455
H291  H     H_    0.208860 0.663111 0.729010 0.244121
H292  H     H_    0.163926 0.612809 0.683904 0.227137
O85   O     O_3   0.216911 0.958179 0.113362 -0.558199
C261  C     C_3   0.214589 0.965042 0.046482 -0.319030
H293  H     H_    0.223874 0.921334 0.034701 0.154365
H294  H     H_    0.235479 0.000839 0.049501 0.186501
H295  H     H_    0.181985 0.973447 0.998053 0.171927
O86   O     O_3   0.783132 0.957832 0.886751 -0.558188
C262  C     C_3   0.785475 0.964601 0.953638 -0.319261
H296  H     H_    0.776346 0.920799 0.965667 0.154332
H297  H     H_    0.764472 0.000234 0.950462 0.186340
H298  H     H_    0.818058 0.973177 0.001995 0.172030
O87   O     O_3   0.717068 0.457139 0.114016 -0.557739
C263  C     C_3   0.714715 0.463032 0.047014 -0.320057
H299  H     H_    0.723841 0.418932 0.035731 0.154495
H300  H     H_    0.735728 0.498382 0.049604 0.186373
H301  H     H_    0.682135 0.471450 0.998513 0.172146
O88   O     O_3   0.283239 0.458604 0.886545 -0.561502
C264  C     C_3   0.285732 0.465649 0.953538 -0.298097
H302  H     H_    0.277048 0.421756 0.966250 0.161684
H303  H     H_    0.264452 0.500937 0.950066 0.181975
H304  H     H_    0.318284 0.474906 0.001603 0.173659
N41   N     N_2   0.206216 0.066544 0.106103 -0.412485
H305  H     H_    0.224812 0.088810 0.093897 0.231029
C265  C     C_3   0.161796 0.072401 0.047894 -0.634953
H306  H     H_    0.147100 0.100459 0.068929 0.247530
H307  H     H_    0.146042 0.027548 0.028934 0.236529
H308  H     H_    0.156864 0.096059 0.998426 0.198527
N42   N     N_2   0.793638 0.066232 0.893638 -0.412636
H309  H     H_    0.775023 0.088327 0.905859 0.230498
C266  C     C_3   0.838057 0.072262 0.951725 -0.635578
H310  H     H_    0.852657 0.100349 0.930449 0.247589
H311  H     H_    0.853906 0.027468 0.970939 0.236637
H312  H     H_    0.842983 0.095975 0.001076 0.198228
N43   N     N_2   0.706295 0.565543 0.104941 -0.412689
H313  H     H_    0.724879 0.587197 0.092281 0.230761
C267  C     C_3   0.661862 0.571351 0.046805 -0.635891
H314  H     H_    0.647234 0.599769 0.067685 0.247536
H315  H     H_    0.646080 0.526494 0.028281 0.236823
H316  H     H_    0.656880 0.594611 0.997087 0.198460
N44   N     N_2   0.293457 0.567069 0.892819 -0.412962
H317  H     H_    0.274906 0.588800 0.905441 0.230576
C268  C     C_3   0.337908 0.573940 0.950136 -0.635403
H318  H     H_    0.352109 0.601356 0.927602 0.248420
H319  H     H_    0.354009 0.529406 0.970480 0.233787
H320  H     H_    0.342982 0.598796 0.998966 0.198368
N45   N     N_2   0.298146 0.012536 0.183421 -0.433938
H321  H     H_    0.319571 0.046643 0.196858 0.237599
C269  C     C_3   0.313691 0.953545 0.180924 -0.550414
H322  H     H_    0.326871 0.957271 0.147776 0.168345
H323  H     H_    0.288709 0.919052 0.152872 0.286343
H324  H     H_    0.339243 0.938813 0.237837 0.224540
N46   N     N_2   0.701782 0.011825 0.816462 -0.433763
H325  H     H_    0.680268 0.045813 0.802889 0.239108
C270  C     C_3   0.686361 0.952705 0.819101 -0.548247
H326  H     H_    0.672971 0.956301 0.851902 0.168486
H327  H     H_    0.711462 0.918384 0.847594 0.285553
H328  H     H_    0.660997 0.937768 0.762190 0.225012
N47   N     N_2   0.798293 0.511519 0.183490 -0.433887
H329  H     H_    0.819762 0.545481 0.196641 0.239131
C271  C     C_3   0.813847 0.452274 0.181829 -0.549273
H330  H     H_    0.827261 0.455436 0.149024 0.168674
H331  H     H_    0.788829 0.417828 0.153880 0.285850
H332  H     H_    0.839215 0.437764 0.238985 0.225167
N48   N     N_2   0.201790 0.512262 0.816060 -0.434351
H333  H     H_    0.180178 0.546141 0.802295 0.239340
C272  C     C_3   0.186550 0.453098 0.819059 -0.547133
H334  H     H_    0.173158 0.456736 0.851854 0.169291
H335  H     H_    0.211764 0.418947 0.847748 0.285368
H336  H     H_    0.161221 0.437928 0.762231 0.225136

loop_
_geom_bond_atom_site_label_1
_geom_bond_atom_site_label_2
_ccdc_geom_bond_type
C10   C174  S    
C255  H272  S    
C128  C166  S    
C214  H124  S    
Cu12  O8    S    
N9    H81   S    
C35   N11   S    
C55   C59   A    
C271  H331  S    
N27   H225  S    
C154  C161  A    
C226  H168  S    
Cu8   O39   S    
Cu2   O3    S    
C206  H102  S    
C47   O27   A    
C258  H282  S    
C269  H324  S    
C206  H100  S    
C190  H46   S    
C53   C99   S    
C234  H196  S    
N40   C260  S    
C142  N21   S    
O75   C231  S    
C87   N5    S    
C126  N30   S    
C143  N24   S    
N36   C256  S    
Cu3   O26   S    
C31   O55   S    
C26   C50   A    
C126  C164  S    
C196  H68   S    
C257  H279  S    
C60   C72   A    
C185  H26   S    
C29   C33   A    
Cu6   O30   S    
O80   C240  S    
C1    O1    A    
O77   C237  S    
C210  H114  S    
C149  C153  A    
O86   C262  S    
C64   C84   A    
C204  H96   S    
C94   C172  S    
C146  C150  A    
C210  H112  S    
C140  H24   S    
C104  O15   A    
C93   C171  S    
C152  C156  A    
C27   C51   A    
C218  H139  S    
C70   C74   A    
C96   C168  S    
C151  C155  A    
C259  H288  S    
C209  H110  S    
C126  C174  S    
C239  H213  S    
C80   C84   A    
C253  H264  S    
C260  H291  S    
C139  C159  A    
C166  N40   S    
C248  H243  S    
Cu1   O1    S    
C257  H280  S    
C102  O12   A    
C249  H247  S    
C26   H10   S    
C165  N35   S    
Cu9   O10   S    
Cu10  O14   S    
C90   H20   S    
C98   C162  S    
C17   C173  S    
C158  C167  A    
O53   C197  S    
C155  C162  A    
C25   C29   A    
C254  H268  S    
C243  H227  S    
C123  C134  A    
C27   C31   A    
O79   C239  S    
C165  C183  S    
C126  O82   S    
C72   O60   S    
C166  C184  S    
C207  H104  S    
C271  H330  S    
C62   C66   A    
C245  H233  S    
C58   C70   A    
C240  H216  S    
C216  H130  S    
C17   C21   T    
C153  C161  A    
C222  H156  S    
C237  H207  S    
C101  O7    A    
C19   C23   T    
Cu8   O44   S    
Cu4   O20   S    
C87   C177  S    
C256  H275  S    
N42   C266  S    
C78   C82   A    
C261  H294  S    
N38   H281  S    
C5    C181  S    
C127  C165  S    
O56   C200  S    
C124  C130  A    
C111  C113  A    
C88   N6    S    
Cu7   O40   S    
C113  O69   S    
C178  C182  S    
C179  O51   S    
Cu5   O38   S    
C97   O45   A    
C215  H127  S    
C221  H151  S    
C103  O14   A    
N1    C185  S    
O57   C205  S    
C28   H12   S    
C145  O77   S    
C202  H88   S    
N23   H197  S    
C225  H165  S    
C253  H262  S    
C64   C68   A    
C110  C116  A    
C258  H284  S    
C105  N17   S    
O72   C228  S    
N28   C244  S    
C190  H48   S    
C86   O31   A    
C106  C130  A    
O78   C238  S    
C193  H59   S    
C116  O72   S    
C245  H235  S    
C39   C43   A    
N12   H93   S    
C16   C184  S    
C57   C61   A    
Cu1   O22   S    
C119  C123  A    
N29   H245  S    
C59   C63   A    
C229  H179  S    
Cu11  O7    S    
C60   C64   A    
C1    O17   A    
O64   C212  S    
C269  H322  S    
N31   C251  S    
C222  H154  S    
Cu9   O5    S    
N19   C223  S    
C202  H86   S    
C270  H327  S    
O73   C229  S    
C244  H230  S    
C260  H290  S    
C156  C158  A    
C199  H75   S    
C7    C183  S    
C160  C168  A    
C242  H222  S    
C217  H135  S    
C240  H215  S    
C141  C147  A    
Cu11  Cu12  S    
C61   C65   A    
C95   O41   A    
C236  H203  S    
Cu9   Cu10  S    
C137  H21   S    
C201  H82   S    
C265  H307  S    
C73   C77   A    
C48   O28   A    
Cu5   O33   S    
C272  H335  S    
C256  H274  S    
C75   C79   A    
C42   C54   A    
C180  C184  S    
C180  O52   S    
C178  N2    S    
C47   O23   A    
C29   O53   S    
O65   C213  S    
C90   C176  S    
C163  C181  S    
O83   C247  S    
Cu10  O46   S    
C230  H182  S    
C112  C114  A    
O61   C209  S    
O82   C246  S    
C189  H43   S    
C220  H146  S    
N16   C220  S    
C30   C34   A    
N45   H321  S    
C104  C134  S    
C6    C182  S    
C146  O78   S    
C211  H115  S    
C233  H191  S    
N44   C268  S    
C192  H55   S    
C112  N15   S    
C88   C174  S    
C227  H171  S    
N15   C219  S    
C272  H334  S    
C118  C122  A    
C76   O64   S    
C193  H58   S    
C129  C135  A    
C139  C143  A    
C215  H129  S    
C94   O40   A    
O67   C215  S    
C98   O48   A    
C264  H303  S    
C99   O9    A    
C252  H260  S    
Cu7   O31   S    
C9    C173  S    
C108  N20   S    
C224  H162  S    
C132  C136  A    
C12   C176  S    
C44   C52   A    
C208  H107  S    
C13   C169  T    
C194  H60   S    
C96   O44   A    
C186  H30   S    
C247  H239  S    
C187  H36   S    
C200  H79   S    
C109  N14   S    
C244  H231  S    
C239  H212  S    
C188  H38   S    
C238  H210  S    
C21   C45   S    
C266  H311  S    
C90   C180  S    
C228  H175  S    
C23   C47   S    
C91   C169  S    
C24   C48   S    
C164  C182  S    
O52   C196  S    
C46   O26   A    
C226  H169  S    
C131  C136  A    
C256  H276  S    
C92   C170  S    
C4    C68   S    
C216  H131  S    
C5    H1    S    
C91   O33   A    
C193  H57   S    
Cu8   O36   S    
Cu8   O32   S    
C199  H77   S    
C116  C120  A    
C263  H299  S    
C194  H61   S    
C242  H224  S    
C147  C151  A    
C82   O66   S    
C110  N13   S    
C5    C9    S    
N5    H41   S    
C127  N31   S    
C83   O67   S    
N6    C190  S    
C138  C158  A    
N20   H161  S    
C127  O83   S    
C8    C12   S    
C203  H92   S    
C6    N46   S    
C102  O8    A    
N43   H313  S    
C235  H200  S    
N48   C272  S    
C51   C67   A    
C38   H14   S    
C100  O6    A    
C106  N18   S    
N47   C271  S    
C41   C53   A    
C42   C50   A    
C113  C117  A    
C18   C174  S    
C43   C55   A    
C267  H315  S    
O85   C261  S    
C13   C181  S    
C191  H50   S    
C198  H73   S    
C71   O59   S    
C213  H121  S    
C10   O86   S    
C271  H332  S    
C150  N26   S    
Cu12  O48   S    
C128  N32   S    
C230  H180  S    
C257  H278  S    
Cu3   O18   S    
C219  H143  S    
C209  H109  S    
C220  H148  S    
Cu7   Cu8   S    
C84   O68   S    
Cu2   O4    S    
C3    O3    A    
N18   C222  S    
C18   C22   T    
C107  C111  A    
C211  H117  S    
C148  C152  A    
C195  H63   S    
C206  H101  S    
C77   H5    S    
C269  H323  S    
C26   C30   A    
N3    C187  S    
C197  H71   S    
C197  H70   S    
C227  H173  S    
C137  C157  A    
O68   C216  S    
C128  O84   S    
C272  H336  S    
C180  N4    S    
N8    C192  S    
O74   C230  S    
C56   C102  S    
Cu3   O25   S    
C61   C81   A    
N31   H253  S    
C140  C160  A    
C20   C176  S    
C177  C181  S    
N17   C221  S    
Cu11  O12   S    
C226  H170  S    
C210  H113  S    
C37   C41   A    
C243  H228  S    
C19   C175  S    
C204  H95   S    
C8    H4    S    
C241  H218  S    
C164  N34   S    
C139  H23   S    
C104  O16   A    
C125  N29   S    
C213  H123  S    
N9    C201  S    
C218  H138  S    
C186  H32   S    
C111  N16   S    
C187  H34   S    
C141  N22   S    
C12   N44   S    
C250  H251  S    
C251  H255  S    
N11   C203  S    
C92   O34   A    
C58   C62   A    
C185  H28   S    
C5    N45   S    
C7    N47   S    
C205  H97   S    
C155  C157  A    
C211  H116  S    
C223  H158  S    
C201  H83   S    
C48   O24   A    
C224  H163  S    
C157  C167  A    
C200  H78   S    
C223  H160  S    
N34   H265  S    
C85   O29   A    
C254  H267  S    
N39   H285  S    
C237  H206  S    
C212  H119  S    
C151  N27   S    
C263  H301  S    
C11   O87   S    
C32   O56   S    
N33   H261  S    
C224  H164  S    
N35   C255  S    
C106  C110  A    
Cu2   O23   S    
C245  H234  S    
N13   C217  S    
O66   C214  S    
C203  H90   S    
C247  H241  S    
C2    O2    A    
C188  H40   S    
N3    H33   S    
Cu4   O27   S    
Cu5   O29   S    
C41   C49   A    
N25   C241  S    
C105  C109  A    
C14   C182  S    
C144  N23   S    
N36   H273  S    
C9    N41   S    
C260  H292  S    
C15   C183  S    
C205  H98   S    
N10   H85   S    
N38   C258  S    
C69   C73   A    
C118  O74   S    
N33   C253  S    
N37   C257  S    
Cu11  O47   S    
C152  N28   S    
C72   C76   A    
C115  O71   S    
N26   H221  S    
C215  H128  S    
O50   C194  S    
C62   C82   A    
C241  H220  S    
C265  H306  S    
C103  O13   A    
C71   C75   A    
N1    H25   S    
C127  C175  S    
N48   H333  S    
N27   C243  S    
Cu10  O9    S    
Cu11  O15   S    
C225  H166  S    
N15   H141  S    
C195  H65   S    
C25   H9    S    
Cu9   O13   S    
C258  H283  S    
C261  H293  S    
C196  H67   S    
C86   O32   A    
C87   C173  S    
C128  C176  S    
N14   H137  S    
C75   O63   S    
O59   C207  S    
C241  H219  S    
C259  H287  S    
C138  C142  A    
C208  H108  S    
C45   O25   A    
C189  H42   S    
C147  O79   S    
C53   C57   A    
C74   O62   S    
Cu1   O21   S    
Cu12  O16   S    
C205  H99   S    
C2    C66   S    
O81   C245  S    
C253  H263  S    
Cu7   O35   S    
C108  C112  A    
C115  C119  A    
C95   C167  S    
C107  N19   S    
C225  H167  S    
C35   C39   A    
C243  H226  S    
C270  H326  S    
C91   O37   A    
C89   N7    S    
C214  H125  S    
C196  H66   S    
C44   C56   A    
N46   H325  S    
C28   C32   A    
C218  H140  S    
C199  H76   S    
C4    O20   A    
Cu5   O41   S    
N30   C250  S    
O60   C208  S    
C88   C178  S    
C99   O5    A    
C190  H47   S    
C49   C65   A    
C268  H319  S    
C144  C146  A    
N20   C224  S    
C130  C135  A    
C248  H244  S    
C177  N1    S    
Cu1   O2    S    
C57   C69   A    
C191  H51   S    
C54   C58   A    
C249  H248  S    
C31   C35   A    
C30   O54   S    
C237  H205  S    
C46   O22   A    
Cu2   Cu4   S    
C236  H204  S    
C32   C36   A    
O55   C199  S    
C200  H80   S    
C90   N8    S    
C33   C37   A    
C250  H250  S    
C219  H142  S    
C36   N12   S    
C137  C141  A    
C222  H155  S    
C179  N3    S    
C81   O65   S    
N24   C236  S    
O54   C198  S    
C117  O73   S    
C119  O75   S    
C140  C144  A    
C207  H103  S    
C230  H181  S    
C6    C10   S    
C92   O38   A    
C251  H254  S    
C93   O35   A    
C124  C134  A    
C8    N48   S    
C40   H16   S    
C220  H147  S    
C11   C175  S    
C114  O70   S    
Cu10  O6    S    
C100  O10   A    
O58   C206  S    
O87   C263  S    
Cu4   O19   S    
C234  H195  S    
C11   N43   S    
C246  H238  S    
C79   C83   A    
C198  H72   S    
C43   C51   A    
C192  H54   S    
C80   H8    S    
C14   C170  T    
N24   H201  S    
C227  H172  S    
Cu5   Cu6   S    
C25   C49   A    
C261  H295  S    
Cu1   Cu3   S    
C56   C60   A    
C97   O46   A    
C221  H152  S    
N5    C189  S    
C264  H302  S    
C74   C78   A    
C63   C83   A    
O63   C211  S    
Cu6   O34   S    
O62   C210  S    
C188  H39   S    
N40   H289  S    
C208  H106  S    
C145  C149  A    
C97   C161  S    
C3    O19   A    
N41   C265  S    
C255  H270  S    
Cu2   O24   S    
N42   H309  S    
C187  H35   S    
C28   C52   A    
C149  N25   S    
N30   H249  S    
N18   H153  S    
C125  C173  S    
N14   C218  S    
C212  H118  S    
C240  H214  S    
C186  H31   S    
N32   H257  S    
C238  H209  S    
N44   H317  S    
C266  H310  S    
C7    C11   S    
N29   C249  S    
C191  H52   S    
C231  H184  S    
C228  H174  S    
C236  H202  S    
C88   H18   S    
O49   C193  S    
N7    H49   S    
N2    C186  S    
C38   C42   A    
C270  H328  S    
C202  H87   S    
C166  N36   S    
C246  H237  S    
O71   C227  S    
C143  C145  A    
C10   N42   S    
C159  C168  A    
C233  H190  S    
C263  H300  S    
C242  H223  S    
C117  C121  A    
C238  H208  S    
C217  H136  S    
N43   C267  S    
C95   O42   A    
C20   C24   T    
C231  H183  S    
C203  H91   S    
C247  H240  S    
C265  H308  S    
C229  H178  S    
C249  H246  S    
C235  H199  S    
C77   C81   A    
C201  H84   S    
O69   C225  S    
C52   C68   A    
C89   H19   S    
C250  H252  S    
C266  H312  S    
C8    C184  S    
N22   C234  S    
N4    C188  S    
C156  C162  A    
C85   O30   A    
N39   C259  S    
C93   O39   A    
C123  C129  A    
C213  H122  S    
N10   C202  S    
Cu6   O37   S    
C54   C100  S    
C125  C163  S    
C268  H320  S    
C121  C131  A    
C207  H105  S    
C255  H271  S    
C122  C132  A    
Cu3   O17   S    
C189  H44   S    
C179  C183  S    
N12   C204  S    
C12   O88   S    
C214  H126  S    
C63   C67   A    
C244  H232  S    
N32   C252  S    
C108  C132  A    
C15   C171  T    
C142  C148  A    
C36   C40   A    
C233  H192  S    
N19   H157  S    
C195  H64   S    
C262  H298  S    
C246  H236  S    
C6    H2    S    
N6    H45   S    
C2    O18   A    
C192  H56   S    
C105  C129  A    
C164  N38   S    
N7    C191  S    
C268  H318  S    
C4    O4    A    
C163  N33   S    
C235  H198  S    
N26   C242  S    
Cu7   O43   S    
C153  C159  A    
C122  C133  A    
C154  C160  A    
C229  H177  S    
C120  O76   S    
C94   O36   A    
C219  H144  S    
C209  H111  S    
C16   C172  T    
C1    C65   S    
C221  H150  S    
Cu12  O11   S    
C40   C44   A    
C98   O47   A    
N22   H193  S    
C264  H304  S    
C234  H194  S    
N21   H189  S    
N17   H149  S    
C87   H17   S    
C39   H15   S    
C101  O11   A    
C50   C66   A    
C37   H13   S    
C204  H94   S    
C114  C118  A    
C85   C135  S    
C33   N9    S    
C34   N10   S    
C86   C136  S    
N46   C270  S    
N2    H29   S    
C259  H286  S    
C96   O43   A    
C79   H7    S    
C232  H187  S    
N4    H37   S    
C232  H188  S    
C76   C80   A    
C45   O21   A    
C70   O58   S    
C212  H120  S    
C9    O85   S    
C239  H211  S    
N11   H89   S    
N47   H329  S    
C251  H256  S    
C185  H27   S    
C267  H314  S    
N34   C254  S    
O70   C226  S    
C228  H176  S    
C165  N39   S    
C262  H297  S    
C22   C46   S    
C34   C38   A    
N41   H305  S    
C3    C67   S    
C78   H6    S    
C163  N37   S    
C223  H159  S    
C252  H259  S    
C254  H266  S    
C55   C101  S    
C248  H242  S    
C148  O80   S    
C194  H62   S    
Cu9   O45   S    
O88   C264  S    
Cu6   O42   S    
C107  C131  A    
C103  C133  S    
C69   O57   S    
C217  H134  S    
N45   C269  S    
N35   H269  S    
O51   C195  S    
C178  O50   S    
N13   H133  S    
C252  H258  S    
C231  H185  S    
O84   C248  S    
N21   C233  S    
C216  H132  S    
Cu4   O28   S    
C27   H11   S    
C89   C179  S    
C262  H296  S    
C7    H3    S    
N25   H217  S    
C109  C115  A    
N28   H229  S    
N16   H145  S    
N23   C235  S    
C267  H316  S    
C177  O49   S    
O76   C232  S    
C138  H22   S    
C197  H69   S    
C150  C154  A    
C198  H74   S    
C73   O61   S    
C89   C175  S    
C121  C133  A    
N37   H277  S    
C232  H186  S    
C125  O81   S    
C120  C124  A    
N8    H53   S    
C59   C71   A    
