data_mof_unit_34173.cif
_audit_creation_date              2012-12-11T14:51:39-0500
_audit_creation_method            fapswitch 2.2
_symmetry_space_group_name_H-M    P1
_symmetry_Int_Tables_number       1
_space_group_crystal_system       triclinic
_cell_length_a                    6.959618
_cell_length_b                    16.640481
_cell_length_c                    17.013273
_cell_angle_alpha                 101.197471
_cell_angle_beta                  90.766376
_cell_angle_gamma                 90.134893
_cell_volume                      1932.62553307

loop_
_atom_site_label
_atom_site_type_symbol
_atom_type_description
_atom_site_fract_x
_atom_site_fract_y
_atom_site_fract_z
_atom_type_partial_charge
O1    O     O_R   0.506340 0.439070 0.579550 -0.524027
O2    O     O_R   0.170010 0.404890 0.412100 -0.527064
O3    O     O_R   0.005010 0.560930 0.420450 -0.513860
C1    C     C_R   0.339081 0.381563 0.383556 0.763814
O4    O     O_R   0.176280 0.429360 0.578400 -0.541706
O5    O     O_R   0.011320 0.585570 0.587940 -0.516471
C2    C     C_R   0.346066 0.414993 0.605829 0.735385
O6    O     O_R   0.500030 0.414430 0.412060 -0.543577
O7    O     O_3   0.340950 0.551220 0.502940 -0.359207
V1    V     V_3+5 0.064020 0.490500 0.499460 1.660420
O8    O     O_R   0.681910 0.595110 0.587900 -0.553106
C3    C     C_R   0.851872 0.618571 0.616053 0.861765
O9    O     O_R   0.675640 0.570640 0.421600 -0.545028
C4    C     C_R   0.843449 0.587514 0.396146 0.814342
V2    V     V_3+5 0.564670 0.509500 0.500540 1.609900
O10   O     O_3   0.837610 0.448780 0.497060 -0.376918
C5    C     C_R   0.923576 0.864738 0.169422 -0.309065
C6    C     C_R   0.848139 0.638737 0.333302 -0.157600
C7    C     C_R   0.708334 0.671668 0.210915 0.678535
C8    C     C_R   0.730847 0.616755 0.263466 -0.185977
C9    C     C_R   0.953322 0.713808 0.345621 -0.038680
C10   C     C_R   0.956363 0.761340 0.284079 -0.149351
C11   C     C_R   0.819345 0.743814 0.220293 -0.101700
C12   C     C_R   0.800040 0.797263 0.165129 0.587537
C13   C     C_R   0.067215 0.878940 0.229202 0.498788
C14   C     C_R   0.090199 0.826644 0.284172 -0.113103
C15   C     C_3   0.838927 0.819698 0.729615 0.593534
C16   C     C_3   0.001600 0.762430 0.694495 0.517467
C17   C     C_3   0.865881 0.687929 0.687124 -0.325200
C18   C     C_3   0.701865 0.745579 0.721833 -0.236773
C19   C     C_3   0.759537 0.735945 0.807786 -0.215576
C20   C     C_3   0.925060 0.678384 0.772955 -0.159537
C21   C     C_3   0.061452 0.753014 0.779962 0.455481
C22   C     C_3   0.897538 0.810382 0.815114 -0.278601
C23   C     C_3   0.553988 0.275975 0.281919 -0.185758
C24   C     C_3   0.472018 0.187396 0.273485 -0.211171
H1    H     H_    0.546650 0.135822 0.293459 0.197580
H2    H     H_    0.697114 0.296905 0.307649 0.216435
C25   C     C_3   0.407409 0.189564 0.186363 -0.249227
C26   C     C_3   0.487103 0.277108 0.195059 0.652210
C27   C     C_3   0.292507 0.312882 0.226225 0.560371
C28   C     C_3   0.210771 0.225472 0.217631 -0.181315
C29   C     C_3   0.275632 0.223843 0.304327 -0.080768
C30   C     C_3   0.356028 0.311445 0.312905 -0.245034
C31   C     C_R   0.406507 0.133686 0.830048 -0.267045
C32   C     C_R   0.360149 0.365556 0.670212 -0.128166
C33   C     C_R   0.413980 0.356399 0.811174 -0.092674
C34   C     C_R   0.403742 0.403987 0.750361 -0.047208
C35   C     C_R   0.322674 0.280286 0.651760 -0.086115
C36   C     C_R   0.350888 0.230950 0.711046 -0.055901
C37   C     C_R   0.397876 0.269252 0.791327 -0.066946
C38   C     C_R   0.431135 0.219001 0.849256 0.567337
C39   C     C_R   0.360916 0.095520 0.750419 -0.270367
C40   C     C_R   0.339817 0.143899 0.691594 0.590197
O11   O     O_R   0.266070 0.085680 0.087850 -0.560636
O12   O     O_R   0.590090 0.070660 0.921580 -0.531733
O13   O     O_R   0.754780 0.914400 0.912080 -0.515492
C41   C     C_R   0.420275 0.086032 0.895092 0.879010
O14   O     O_R   0.596110 0.095130 0.087880 -0.527481
O15   O     O_R   0.760850 0.939050 0.079570 -0.520881
C42   C     C_R   0.426567 0.119085 0.115928 0.790157
O16   O     O_R   0.260010 0.061030 0.920360 -0.556386
O17   O     O_3   0.425070 0.948840 0.997010 -0.339932
V3    V     V_3+5 0.702100 0.009490 0.000550 1.682330
O18   O     O_R   0.090200 0.929250 0.078500 -0.517443
C43   C     C_R   0.923191 0.914493 0.105693 0.852046
O19   O     O_R   0.084180 0.904770 0.912200 -0.520842
C44   C     C_R   0.913914 0.881187 0.884324 0.834768
V4    V     V_3+5 0.201420 0.990350 0.999580 1.677700
O20   O     O_3   0.928580 0.051150 0.002990 -0.408156
F1    F     F_    0.666388 0.782298 0.105104 -0.576856
C45   C     C_2   0.623966 0.716880 0.869369 0.614368
H3    H     H_    0.534709 0.662515 0.855665 0.067836
O21   O     O_2   0.613255 0.761737 0.934916 -0.463811
C46   C     C_2   0.976380 0.600835 0.800499 0.435747
H4    H     H_    0.023015 0.603437 0.862017 0.074052
O22   O     O_2   0.965462 0.534830 0.754534 -0.528602
F2    F     F_    0.244905 0.757507 0.812077 -0.692322
F3    F     F_    0.596369 0.305374 0.138731 -0.596623
F4    F     F_    0.200159 0.377263 0.201340 -0.621366
C47   C     C_2   0.017232 0.200871 0.180913 0.533995
H5    H     H_    0.974699 0.219101 0.125395 0.104340
O23   O     O_2   0.908805 0.159070 0.212109 -0.530764
C48   C     C_2   0.157277 0.192503 0.364728 0.515012
H6    H     H_    0.204764 0.139570 0.388049 0.083608
O24   O     O_2   0.006414 0.225816 0.387358 -0.508686
F5    F     F_    0.491865 0.251346 0.925041 -0.637679
F6    F     F_    0.192570 0.942329 0.231571 -0.689669
C49   C     C_2   0.338245 0.004841 0.725052 0.597972
H7    H     H_    0.280203 0.978989 0.666011 0.162434
O25   O     O_2   0.385599 0.957604 0.768393 -0.499178
C50   C     C_2   0.440193 0.399858 0.895551 0.602464
H8    H     H_    0.560292 0.441755 0.911992 0.034814
O26   O     O_2   0.321684 0.392477 0.945996 -0.444812
F7    F     F_    0.319530 0.104135 0.614251 -0.661907
C51   C     C_2   0.423929 0.495149 0.773286 0.370133
H9    H     H_    0.383306 0.526760 0.832538 0.031869
O27   O     O_2   0.488781 0.536059 0.727509 -0.537741
C52   C     C_2   0.247851 0.245367 0.570209 0.621033
H10   H     H_    0.320800 0.258434 0.518110 -0.068568
O28   O     O_2   0.097820 0.206255 0.561138 -0.472937
F8    F     F_    0.584797 0.651688 0.147437 -0.617260
C53   C     C_2   0.271605 0.836259 0.332124 0.475392
H11   H     H_    0.330053 0.896943 0.355047 0.105253
O29   O     O_2   0.363564 0.776524 0.342063 -0.519332
C54   C     C_2   0.627548 0.536760 0.243017 0.525244
H12   H     H_    0.500165 0.530647 0.204780 0.150795
O30   O     O_2   0.687540 0.475975 0.265443 -0.510700
C55   C     C_2   0.028521 0.750982 0.426999 0.498740
H13   H     H_    0.009692 0.816099 0.449433 0.073751
O31   O     O_2   0.118863 0.711255 0.467915 -0.471346
F9    F     F_    0.112078 0.778368 0.632860 -0.610877
F10   F     F_    0.797607 0.893442 0.707231 -0.615710
C56   C     C_2   0.510624 0.744581 0.681794 0.717511
H14   H     H_    0.411090 0.694483 0.682280 0.078828
O32   O     O_2   0.470599 0.798419 0.644987 -0.436753

loop_
_geom_bond_atom_site_label_1
_geom_bond_atom_site_label_2
_ccdc_geom_bond_type
C41   O16   A    
C3    C17   S    
C6    C9    A    
C33   C50   S    
C4    C6    S    
O2    C1    A    
C7    C8    A    
C1    O6    A    
C20   C46   S    
C47   H5    S    
C39   C40   A    
C16   F9    S    
C32   C35   A    
C16   C17   S    
O14   V3    S    
C36   C40   A    
C24   H1    S    
C48   O24   D    
C17   C20   S    
C55   O31   D    
O5    C3    A    
C18   C19   S    
C7    F8    S    
C21   F2    S    
C54   H12   S    
V2    O10   S    
C27   C28   S    
O8    V2    S    
C33   C34   A    
C51   O27   D    
C11   C12   A    
O12   V3    S    
O1    V2    S    
V3    O20   S    
C49   O25   D    
O7    V1    S    
O15   C43   A    
O9    C4    A    
C15   C18   S    
C29   C48   S    
C28   C47   S    
C27   F4    S    
C47   O23   D    
C21   C22   S    
C25   C28   S    
C8    C54   S    
C38   F5    S    
C15   C22   S    
C25   C42   S    
C32   C34   A    
C31   C41   S    
C19   C22   S    
C5    C12   A    
O14   C42   A    
C37   C38   A    
C2    C32   S    
O17   V4    S    
C23   H2    S    
C48   H6    S    
C45   O21   D    
C22   C44   S    
C25   C26   S    
O4    C2    A    
C33   C37   A    
C1    C30   S    
C31   C38   A    
C13   C14   A    
C13   F6    S    
O19   C44   A    
O16   V4    S    
O19   V4    S    
C23   C24   S    
C7    C11   A    
C46   H4    S    
C17   C18   S    
C14   C53   S    
C35   C52   S    
C56   O32   D    
C19   C20   S    
C51   H9    S    
C50   O26   D    
C36   C37   A    
C5    C43   S    
C26   F3    S    
C53   O29   D    
C23   C30   S    
C46   O22   D    
C40   F7    S    
O11   V4    S    
O3    C4    A    
C15   F10   S    
C26   C27   S    
C52   O28   D    
C16   C21   S    
O18   C43   A    
O6    V2    S    
O9    V2    S    
C29   C30   S    
C39   C49   S    
C27   C30   S    
C28   C29   S    
O13   C44   A    
O2    V1    S    
C15   C16   S    
O13   V3    S    
C18   C56   S    
C19   C45   S    
C34   C51   S    
O1    C2    A    
C24   C25   S    
C45   H3    S    
O5    V1    S    
C9    C55   S    
O8    C3    A    
C56   H14   S    
C52   H10   S    
O15   V3    S    
C5    C13   A    
C20   C21   S    
C23   C26   S    
O7    V2    S    
O4    V1    S    
O3    V1    S    
V1    O10   S    
C55   H13   S    
C54   O30   D    
O18   V4    S    
O11   C42   A    
C50   H8    S    
O12   C41   A    
C6    C8    A    
V4    O20   S    
C31   C39   A    
O17   V3    S    
C35   C36   A    
C10   C14   A    
C53   H11   S    
C10   C11   A    
C24   C29   S    
C49   H7    S    
C9    C10   A    
C12   F1    S    
