data_mof_unit_38476.cif
_audit_creation_date              2012-12-10T18:07:39-0500
_audit_creation_method            fapswitch 2.2
_symmetry_space_group_name_H-M    P1
_symmetry_Int_Tables_number       1
_space_group_crystal_system       triclinic
_cell_length_a                    11.553882
_cell_length_b                    12.632435
_cell_length_c                    13.083448
_cell_angle_alpha                 81.4947
_cell_angle_beta                  90.940638
_cell_angle_gamma                 102.725192
_cell_volume                      1841.92983084

loop_
_atom_site_label
_atom_site_type_symbol
_atom_type_description
_atom_site_fract_x
_atom_site_fract_y
_atom_site_fract_z
_atom_type_partial_charge
C1    C     C_R   0.481915 0.437468 0.692009 0.859575
C2    C     C_R   0.390766 0.634648 0.900317 -0.224652
C3    C     C_R   0.392386 0.555521 0.837996 -0.169447
C4    C     C_R   0.717803 0.501098 0.500263 0.896234
C5    C     C_R   0.548350 0.533233 0.130511 0.128592
C6    C     C_R   0.498665 0.705430 0.154486 0.211943
C7    C     C_R   0.465495 0.394897 0.803586 -0.218873
C8    C     C_R   0.337683 0.092931 0.339643 0.075568
C9    C     C_R   0.646587 0.801508 0.624038 0.270085
C10   C     C_R   0.693203 0.910156 0.635820 -0.365308
C11   C     C_R   0.647632 0.993756 0.579155 0.085478
C12   C     C_R   0.528033 0.604704 0.196879 -0.228003
C13   C     C_R   0.545042 0.966327 0.518061 0.038892
C14   C     C_R   0.508608 0.855750 0.501678 0.083899
C15   C     C_R   0.480590 0.043240 0.469139 -0.064117
C16   C     C_R   0.517502 0.562643 0.308125 0.845397
C17   C     C_R   0.392633 0.012205 0.394132 0.018793
C18   C     C_R   0.361730 0.900944 0.378369 0.090945
C19   C     C_R   0.422059 0.827017 0.429741 -0.167242
C20   C     C_R   0.495307 0.148369 0.497007 -0.097845
C21   C     C_R   0.362689 0.198419 0.367607 0.302426
C22   C     C_R   0.282208 0.498907 0.499788 0.885898
C23   C     C_R   0.484286 0.289301 0.844901 0.240606
C24   C     C_1   0.838960 0.502866 0.500487 -0.192526
C25   C     C_1   0.940943 0.501536 0.500149 -0.002774
C26   C     C_1   0.059130 0.498657 0.499597 -0.004556
C27   C     C_1   0.161095 0.497280 0.499417 -0.202561
C28   C     C_R   0.452365 0.713365 0.054407 -0.226993
C29   C     C_3   0.526384 0.906373 0.154394 -0.832838
C30   C     C_3   0.313746 0.103562 0.153004 -0.846885
C31   C     C_3   0.744345 0.510658 0.089325 -0.790558
C32   C     C_3   0.529581 0.111782 0.815938 -0.843742
C33   C     C_3   0.187092 0.276211 0.333151 -0.749602
C34   C     C_R   0.498239 0.265174 0.952019 -0.192399
C35   C     C_R   0.498741 0.343970 0.015618 -0.234156
C36   C     C_R   0.480032 0.448389 0.975066 0.099218
C37   C     C_R   0.445887 0.466491 0.871385 0.047828
C38   C     C_R   0.490263 0.534529 0.035024 0.051219
C39   C     C_R   0.443092 0.627121 0.997033 0.067650
H1    H     H_    0.546053 0.173314 0.562241 0.193163
H2    H     H_    0.595268 0.925475 0.092074 0.241208
H3    H     H_    0.550266 0.967871 0.208114 0.247102
H4    H     H_    0.439147 0.914000 0.121417 0.240705
H5    H     H_    0.281012 0.884148 0.239530 0.231734
H6    H     H_    0.186142 0.875693 0.342377 0.197257
H7    H     H_    0.175746 0.079340 0.262648 0.233249
H8    H     H_    0.292597 0.182451 0.118064 0.245497
H9    H     H_    0.276071 0.040838 0.103335 0.241283
H10   H     H_    0.411545 0.112124 0.154935 0.245937
H11   H     H_    0.787335 0.734109 0.662001 0.164191
H12   H     H_    0.769088 0.930044 0.684791 0.150777
H13   H     H_    0.686584 0.718028 0.758528 0.166163
H14   H     H_    0.799395 0.108317 0.544444 0.194421
H15   H     H_    0.725807 0.122366 0.650343 0.188440
H16   H     H_    0.660911 0.459397 0.231080 0.243779
H17   H     H_    0.807125 0.456139 0.110255 0.238967
H18   H     H_    0.788536 0.595537 0.100625 0.236212
H19   H     H_    0.722416 0.509305 0.006541 0.257149
H20   H     H_    0.406237 0.190599 0.738069 0.238403
H21   H     H_    0.533786 0.065149 0.751118 0.246380
H22   H     H_    0.469909 0.056928 0.876824 0.232965
H23   H     H_    0.399940 0.746396 0.409886 0.233629
H24   H     H_    0.620624 0.136192 0.845858 0.251830
H25   H     H_    0.337144 0.305604 0.236856 0.219626
H26   H     H_    0.132299 0.241450 0.270611 0.205584
H27   H     H_    0.172587 0.360114 0.333037 0.249652
H28   H     H_    0.156934 0.226207 0.409123 0.232591
H29   H     H_    0.351570 0.703518 0.871459 0.144821
H30   H     H_    0.422133 0.785660 0.020432 0.150909
H31   H     H_    0.508191 0.319740 0.097437 0.178861
H32   H     H_    0.510482 0.185712 0.987636 0.159709
H33   H     H_    0.349855 0.563935 0.763827 0.164386
H34   H     H_    0.589277 0.797679 0.261406 0.252036
N1    N     N_R   0.440320 0.222190 0.444690 -0.138837
N2    N     N_2   0.311734 0.282813 0.313480 -0.245643
N3    N     N_R   0.559060 0.776980 0.554780 -0.122697
N4    N     N_2   0.520245 0.797228 0.210536 -0.282579
N5    N     N_3   0.263407 0.856006 0.317854 -0.454055
N6    N     N_2   0.261259 0.069825 0.255545 -0.317779
N7    N     N_3   0.696487 0.716464 0.679496 -0.379183
N8    N     N_3   0.715110 0.104121 0.574896 -0.467525
N9    N     N_2   0.638808 0.472380 0.154383 -0.311595
N10   N     N_2   0.483403 0.207995 0.779069 -0.284742
O1    O     O_R   0.471500 0.366730 0.627160 -0.609478
O2    O     O_R   0.509620 0.544830 0.662520 -0.585785
O3    O     O_R   0.646490 0.410960 0.482310 -0.604171
O4    O     O_R   0.684610 0.589050 0.517670 -0.595393
O5    O     O_R   0.490380 0.455170 0.337480 -0.595239
O6    O     O_R   0.528500 0.633270 0.372840 -0.637409
O7    O     O_R   0.315390 0.410950 0.482330 -0.584976
O8    O     O_R   0.353510 0.589040 0.517690 -0.636634
Zn1   Zn    Zn3+2 0.474550 0.381080 0.476390 0.951823
Zn2   Zn    Zn3+2 0.525450 0.618920 0.523610 0.938115

loop_
_geom_bond_atom_site_label_1
_geom_bond_atom_site_label_2
_ccdc_geom_bond_type
C29   H3    S    
C35   C36   A    
C33   H26   S    
C4    O4    A    
C11   N8    S    
C1    O1    A    
C26   C27   T    
C31   N9    S    
C23   N10   S    
C31   H19   S    
C30   H9    S    
C36   C37   A    
H20   N10   S    
C32   H22   S    
C18   C19   A    
C2    H29   S    
C6    C12   A    
H7    N6    S    
C20   H1    S    
C7    C23   A    
C4    O3    A    
C19   H23   S    
H14   N8    S    
C34   C35   A    
N1    Zn1   S    
O2    Zn2   S    
C2    C39   A    
C33   N2    S    
C6    C28   A    
C28   H30   S    
C35   H31   S    
C8    N6    S    
C22   O8    A    
H6    N5    S    
C9    N3    A    
C31   H17   S    
C9    C10   A    
C16   O6    A    
C13   C14   A    
C29   H4    S    
C12   C16   S    
C10   H12   S    
C33   H27   S    
C8    C21   A    
C1    O2    A    
C15   C20   A    
O5    Zn1   S    
C30   H8    S    
C24   C25   T    
C5    C12   A    
C6    N4    S    
C28   C39   A    
C25   C26   S    
C21   N1    A    
C7    C37   A    
C9    N7    S    
C14   N3    A    
N3    Zn2   S    
O8    Zn2   S    
O7    Zn1   S    
C18   N5    S    
C23   C34   A    
C17   C18   A    
C22   O7    A    
C20   N1    A    
H16   N9    S    
C30   N6    S    
C30   H10   S    
C22   C27   S    
C13   C15   A    
C32   H21   S    
C33   H28   S    
C15   C17   A    
C32   N10   S    
C29   H2    S    
C1    C7    S    
H13   N7    S    
C14   C19   A    
C32   H24   S    
H11   N7    S    
C21   N2    S    
C8    C17   A    
C31   H18   S    
H5    N5    S    
C2    C3    A    
O3    Zn1   S    
C5    N9    S    
C11   C13   A    
C38   C39   A    
C4    C24   S    
O4    Zn2   S    
C36   C38   A    
H25   N2    S    
C3    H33   S    
O6    Zn2   S    
C10   C11   A    
C29   N4    S    
C3    C37   A    
C16   O5    A    
H34   N4    S    
O1    Zn1   S    
C5    C38   A    
C34   H32   S    
H15   N8    S    
