data_mof_unit_25750.cif
_audit_creation_date              2012-12-10T20:31:08-0500
_audit_creation_method            fapswitch 2.2
_symmetry_space_group_name_H-M    P1
_symmetry_Int_Tables_number       1
_space_group_crystal_system       triclinic
_cell_length_a                    15.001283
_cell_length_b                    10.704028
_cell_length_c                    9.845969
_cell_angle_alpha                 90.582681
_cell_angle_beta                  89.719605
_cell_angle_gamma                 90.08264
_cell_volume                      1580.90591561

loop_
_atom_site_label
_atom_site_type_symbol
_atom_type_description
_atom_site_fract_x
_atom_site_fract_y
_atom_site_fract_z
_atom_type_partial_charge
C1    C     C_R   0.498969 0.260200 0.499567 0.943303
C2    C     C_R   0.184663 0.484382 0.380998 -0.250912
C3    C     C_R   0.230703 0.505971 0.501298 -0.077787
C4    C     C_R   0.326572 0.500928 0.500373 0.874469
C5    C     C_R   0.185632 0.534485 0.622101 -0.226329
C6    C     C_R   0.512728 0.065574 0.618904 -0.060492
C7    C     C_R   0.491809 0.128638 0.500708 -0.042304
C8    C     C_R   0.458249 0.063199 0.388248 -0.216726
C9    C     C_R   0.458192 0.933901 0.389324 -0.198182
C10   C     C_R   0.490869 0.871615 0.503514 -0.084591
C11   C     C_R   0.510812 0.938499 0.621859 0.059609
C12   C     C_R   0.906094 0.541582 0.624094 -0.012776
C13   C     C_3   0.586817 0.933028 0.721549 0.249613
C14   C     C_3   0.589813 0.076683 0.714526 0.226875
C15   C     C_R   0.429302 0.451649 0.071468 0.171625
C16   C     C_R   0.499062 0.739945 0.500770 0.880049
C17   C     C_R   0.567133 0.554586 0.072131 -0.099947
C18   C     C_R   0.567582 0.553438 0.928194 -0.134358
C19   C     C_R   0.429055 0.451787 0.928395 0.214292
C20   C     C_3   0.397739 0.318925 0.922999 -0.064025
C21   C     C_3   0.397565 0.319928 0.077437 -0.517924
C22   C     C_R   0.673377 0.501666 0.499779 0.929057
C23   C     C_R   0.954782 0.465880 0.259444 -0.159759
C24   C     C_R   0.813398 0.536839 0.620552 -0.153524
C25   C     C_R   0.769144 0.507991 0.499826 -0.087815
C26   C     C_R   0.815984 0.486435 0.379557 -0.209665
C27   C     C_R   0.907980 0.490109 0.379898 0.143178
C28   C     C_R   0.953542 0.516511 0.502608 0.002681
C29   C     C_3   0.555747 0.886705 0.861201 -0.906933
C30   C     C_3   0.670056 0.863436 0.668261 -0.716471
C31   C     C_3   0.305021 0.303541 0.861232 -0.849157
C32   C     C_3   0.096228 0.600649 0.876663 -0.841644
C33   C     C_R   0.047008 0.465271 0.259894 -0.212571
C34   C     C_R   0.092777 0.488820 0.380837 0.147156
C35   C     C_R   0.046283 0.515816 0.503217 0.023363
C36   C     C_R   0.092707 0.540433 0.625423 0.037155
C37   C     C_R   0.045714 0.569786 0.747202 0.118437
C38   C     C_R   0.951656 0.569636 0.745918 0.373186
Cl1   Cl    Cl    0.686919 0.144042 0.636570 -0.608317
Cl2   Cl    Cl    0.890507 0.603093 0.897015 -0.686876
H1    H     H_    0.774554 0.555287 0.711281 0.206262
H2    H     H_    0.920038 0.446033 0.165384 0.194390
H3    H     H_    0.082563 0.445115 0.166094 0.152360
H4    H     H_    0.220246 0.462626 0.287506 0.154248
H5    H     H_    0.224054 0.552194 0.712875 0.176700
H6    H     H_    0.435583 0.111031 0.298609 0.153896
H7    H     H_    0.611181 0.893340 0.935289 0.257537
H8    H     H_    0.498649 0.942690 0.900562 0.218529
H9    H     H_    0.533381 0.788464 0.853235 0.265609
H10   H     H_    0.684675 0.887490 0.560917 0.243116
H11   H     H_    0.728665 0.888139 0.731592 0.269395
H12   H     H_    0.436171 0.883343 0.299654 0.169207
H13   H     H_    0.660173 0.760914 0.673911 0.217840
H14   H     H_    0.258427 0.375809 0.900888 0.233130
H15   H     H_    0.309305 0.310504 0.749129 0.259453
H16   H     H_    0.278209 0.209816 0.886389 0.245588
H17   H     H_    0.135772 0.518437 0.907822 0.213383
H18   H     H_    0.141420 0.681169 0.858989 0.231457
H19   H     H_    0.053524 0.626715 0.964197 0.291334
H20   H     H_    0.570946 0.125384 0.810585 0.106989
H21   H     H_    0.621920 0.597289 0.126556 0.164428
H22   H     H_    0.622913 0.594885 0.874014 0.168745
H23   H     H_    0.447938 0.254271 0.878061 0.177964
H24   H     H_    0.330468 0.312908 0.125357 0.203384
H25   H     H_    0.780983 0.464788 0.286028 0.170819
H26   H     H_    0.448516 0.256583 0.120357 0.195499
N1    N     N_R   0.499390 0.499140 0.142800 -0.112498
N2    N     N_R   0.499390 0.499180 0.857150 -0.128266
O1    O     O_R   0.500010 0.316790 0.614690 -0.614476
O2    O     O_R   0.500000 0.316760 0.385350 -0.624754
O3    O     O_R   0.367850 0.499990 0.614680 -0.632616
O4    O     O_R   0.367840 0.499950 0.385340 -0.624533
O5    O     O_R   0.500000 0.683240 0.614650 -0.626266
O6    O     O_R   0.499990 0.683210 0.385310 -0.624144
O7    O     O_R   0.632160 0.500050 0.614660 -0.617200
O8    O     O_R   0.632150 0.500010 0.385320 -0.626000
Zn1   Zn    Zn3+2 0.500010 0.500020 0.653130 0.957327
Zn2   Zn    Zn3+2 0.499990 0.499980 0.346870 0.957205

loop_
_geom_bond_atom_site_label_1
_geom_bond_atom_site_label_2
_ccdc_geom_bond_type
C30   H11   S    
C21   H26   S    
O2    Zn2   S    
O1    Zn1   S    
C35   C36   A    
C32   H18   S    
C7    C8    A    
C29   H9    S    
C15   C19   A    
C9    H12   S    
C26   C27   A    
C23   H2    S    
C12   C28   A    
C16   O6    A    
C32   H17   S    
C13   C29   S    
C36   C37   A    
O8    Zn2   S    
C18   N2    A    
C5    C36   A    
C34   C35   A    
C21   H24   S    
O4    Zn2   S    
C17   H21   S    
C14   Cl1   S    
C19   C20   S    
C28   C35   A    
C2    H4    S    
C8    C9    A    
C23   C33   A    
C22   C25   S    
C23   C27   A    
C31   H16   S    
C9    C10   A    
C2    C34   A    
C30   H10   S    
C13   C14   S    
C24   H1    S    
N1    Zn2   S    
C22   O7    A    
C33   C34   A    
C22   O8    A    
C30   H13   S    
C17   N1    A    
C29   H8    S    
C16   O5    A    
C33   H3    S    
C13   C30   S    
C24   C25   A    
C6    C11   A    
C18   H22   S    
C25   C26   A    
C5    H5    S    
C1    O1    A    
C37   C38   A    
C6    C14   S    
C15   N1    A    
C4    O4    A    
C17   C18   A    
C19   N2    A    
C32   C37   S    
O7    Zn1   S    
C29   H7    S    
C3    C4    S    
O3    Zn1   S    
N2    Zn1   S    
C1    C7    S    
C26   H25   S    
C3    C5    A    
C6    C7    A    
C14   H20   S    
C12   C24   A    
C1    O2    A    
C20   H23   S    
C2    C3    A    
C10   C16   S    
C38   Cl2   S    
C11   C13   S    
C31   H14   S    
C12   C38   A    
C8    H6    S    
C10   C11   A    
C15   C21   S    
C20   C21   S    
O6    Zn2   S    
C27   C28   A    
O5    Zn1   S    
C32   H19   S    
C31   H15   S    
C4    O3    A    
C20   C31   S    
