data_mof_unit_35507.cif
_audit_creation_date              2012-12-11T20:57:53-0500
_audit_creation_method            fapswitch 2.2
_symmetry_space_group_name_H-M    P1
_symmetry_Int_Tables_number       1
_space_group_crystal_system       triclinic
_cell_length_a                    8.232478
_cell_length_b                    18.773152
_cell_length_c                    22.821506
_cell_angle_alpha                 99.652901
_cell_angle_beta                  89.759661
_cell_angle_gamma                 91.417989
_cell_volume                      3476.05163023

loop_
_atom_site_label
_atom_site_type_symbol
_atom_type_description
_atom_site_fract_x
_atom_site_fract_y
_atom_site_fract_z
_atom_type_partial_charge
Ba1   Ba    Ba6+2 0.157800 0.534120 0.474430 1.663402
Ba2   Ba    Ba6+2 0.652390 0.465870 0.525520 1.673819
C1    C     C_3   0.360001 0.704485 0.262383 -0.307847
C2    C     C_R   0.068448 0.905121 0.563331 -0.085695
C3    C     C_R   0.205024 0.048756 0.554307 -0.087410
C4    C     C_3   0.910854 0.726744 0.355166 0.350193
C5    C     C_R   0.051422 0.024374 0.530404 0.013469
C6    C     C_R   0.261585 0.119187 0.554691 -0.087236
C7    C     C_R   0.168092 0.168998 0.531362 -0.035230
C8    C     C_R   0.018721 0.145065 0.503198 -0.001060
C9    C     C_R   0.960405 0.072441 0.502331 0.023754
C10   C     C_R   0.220162 0.241940 0.534660 -0.018925
C11   C     C_R   0.120942 0.290455 0.512639 -0.291824
C12   C     C_3   0.389084 0.685529 0.323578 0.319904
C13   C     C_R   0.980761 0.267045 0.480383 0.044256
C14   C     C_R   0.929999 0.193219 0.474470 -0.045893
C15   C     C_R   0.839740 0.929419 0.503416 0.030095
C16   C     C_3   0.926843 0.802252 0.339642 -0.361068
C17   C     C_R   0.780938 0.856873 0.502736 -0.003115
C18   C     C_R   0.872414 0.808102 0.529823 -0.052072
C19   C     C_R   0.010867 0.834774 0.562408 -0.016023
C20   C     C_R   0.794716 0.165673 0.440229 -0.023240
C21   C     C_R   0.735874 0.095569 0.440095 -0.087866
C22   C     C_R   0.812271 0.048444 0.473003 0.012175
C23   C     C_3   0.452650 0.689851 0.630387 0.869853
C24   C     C_R   0.748815 0.977512 0.475346 0.019560
C25   C     C_R   0.594625 0.953427 0.451836 -0.103396
C26   C     C_R   0.630373 0.833205 0.475250 -0.036326
C27   C     C_R   0.537231 0.883102 0.451782 -0.085001
C28   C     C_3   0.822054 0.374128 0.343113 0.293307
C29   C     C_R   0.577677 0.760297 0.472197 -0.016480
C30   C     C_R   0.676332 0.711866 0.494731 -0.254846
C31   C     C_R   0.821725 0.734389 0.523911 0.096862
C32   C     C_R   0.642966 0.525290 0.335440 -0.303299
C33   C     C_R   0.374267 0.550408 0.944396 -0.026308
C34   C     C_3   0.400925 0.767564 0.648996 -0.295932
C35   C     C_R   0.324764 0.543803 0.884424 0.591784
C36   C     C_R   0.282661 0.415792 0.879000 0.585958
C37   C     C_R   0.328909 0.420772 0.939005 -0.018044
C38   C     C_R   0.375812 0.488431 0.971752 -0.054079
C39   C     C_R   0.422806 0.617532 0.977635 -0.073041
C40   C     C_3   0.817241 0.354037 0.275724 -0.359745
C41   C     C_R   0.472509 0.622953 0.036726 -0.074492
C42   C     C_R   0.474122 0.561510 0.064624 -0.018400
C43   C     C_R   0.425007 0.494043 0.032053 -0.053099
C44   C     C_R   0.331031 0.359278 0.966793 -0.074336
C45   C     C_3   0.848458 0.268190 0.645377 0.394318
C46   C     C_R   0.378819 0.364831 0.026026 -0.075008
C47   C     C_R   0.426222 0.432035 0.059355 -0.025192
C48   C     C_R   0.475011 0.438513 0.119302 0.589993
C49   C     C_R   0.523078 0.566169 0.124403 0.577793
C50   C     C_2   0.102833 0.433945 0.766856 -0.088894
C51   C     C_3   0.080647 0.414161 0.700230 -0.067477
C52   C     C_3   0.983716 0.616444 0.653347 0.360508
C53   C     C_1   0.308259 0.498757 0.691143 -0.005538
C54   C     C_2   0.352200 0.500144 0.747135 -0.079215
C55   C     C_2   0.239520 0.470171 0.789223 0.211922
C56   C     C_3   0.835640 0.197392 0.669335 -0.358220
C57   C     C_R   0.710148 0.545103 0.235918 -0.092481
C58   C     C_R   0.750092 0.551565 0.296190 -0.022449
C59   C     C_R   0.500646 0.487936 0.314651 0.031168
C60   C     C_R   0.458260 0.482322 0.254405 -0.100399
C61   C     C_R   0.561920 0.511629 0.214373 0.200805
C62   C     C_2   0.185524 0.458993 0.665209 -0.273149
C63   C     C_3   0.001646 0.631630 0.720623 -0.349652
C64   C     C_3   0.319912 0.313739 0.393014 0.313939
C65   C     C_3   0.320930 0.231972 0.374767 -0.380477
C66   C     C_1   0.369289 0.164319 0.713465 0.285409
C67   C     C_3   0.360806 0.278612 0.673594 0.306747
C68   C     C_3   0.384667 0.243379 0.728387 -0.251213
C69   C     C_R   0.989056 0.953115 0.532084 0.012078
F1    F     F_    0.619436 0.689179 0.626026 -0.739996
H1    H     H_    0.307557 0.639078 0.328544 0.107427
H2    H     H_    0.194227 0.330608 0.403459 0.003832
H3    H     H_    0.398050 0.328955 0.432875 0.070103
H4    H     H_    0.243731 0.732977 0.261491 0.146787
H5    H     H_    0.239872 0.215061 0.335886 0.127600
H6    H     H_    0.277760 0.205073 0.411791 0.058609
H7    H     H_    0.446297 0.214306 0.362830 0.120034
H8    H     H_    0.517565 0.669883 0.326676 -0.039230
H9    H     H_    0.352166 0.654173 0.229193 0.122104
H10   H     H_    0.397710 0.669459 0.586237 -0.013583
H11   H     H_    0.463429 0.792222 0.690802 0.130670
H12   H     H_    0.729632 0.308295 0.262403 0.141037
H13   H     H_    0.432702 0.799540 0.613590 0.049797
H14   H     H_    0.267687 0.768983 0.656525 0.055723
H15   H     H_    0.460748 0.739858 0.250519 0.126939
H16   H     H_    0.866928 0.841577 0.374245 0.073949
H17   H     H_    0.786289 0.261632 0.601718 0.094480
H18   H     H_    0.979184 0.278897 0.637807 -0.103693
H19   H     H_    0.706609 0.181714 0.674987 0.147561
H20   H     H_    0.893794 0.153948 0.637719 0.076636
H21   H     H_    0.898643 0.203162 0.712872 0.116017
H22   H     H_    0.236264 0.264232 0.656769 -0.058523
H23   H     H_    0.778998 0.400586 0.255535 0.073522
H24   H     H_    0.374159 0.338098 0.686917 0.044729
H25   H     H_    0.289956 0.262286 0.761536 0.117668
H26   H     H_    0.506114 0.258736 0.748218 0.123159
H27   H     H_    0.971646 0.727334 0.398649 0.069459
H28   H     H_    0.160103 0.346501 0.516696 0.064727
H29   H     H_    0.379880 0.133820 0.573860 0.114377
H30   H     H_    0.077433 0.801734 0.587785 0.086915
H31   H     H_    0.730812 0.197907 0.413274 0.099545
H32   H     H_    0.418411 0.868626 0.432931 0.115708
H33   H     H_    0.636848 0.655889 0.491060 0.085304
H34   H     H_    0.939820 0.338036 0.258587 0.128626
H35   H     H_    0.287060 0.014272 0.572396 0.085993
H36   H     H_    0.175160 0.920442 0.590042 0.068784
H37   H     H_    0.631267 0.079397 0.412403 0.061245
H38   H     H_    0.779404 0.713254 0.359016 -0.062059
H39   H     H_    0.512856 0.988277 0.433987 0.072164
H40   H     H_    0.378474 0.316141 0.045658 0.125150
H41   H     H_    0.295770 0.306442 0.942762 0.123655
H42   H     H_    0.509236 0.675666 0.060606 0.123241
H43   H     H_    0.795295 0.564894 0.205759 0.112786
H44   H     H_    0.423216 0.666193 0.957966 0.125885
H45   H     H_    0.098039 0.594986 0.632971 -0.056669
H46   H     H_    0.469127 0.523575 0.762927 0.115294
H47   H     H_    0.017787 0.411767 0.795935 0.109558
H48   H     H_    0.346122 0.454458 0.238606 0.119218
H49   H     H_    0.675885 0.529755 0.381784 0.080375
H50   H     H_    0.057138 0.818261 0.337168 0.138850
H51   H     H_    0.175239 0.448130 0.617108 0.074829
H52   H     H_    0.868002 0.803539 0.296144 0.125581
H53   H     H_    0.698840 0.388371 0.359509 0.013913
H54   H     H_    0.906994 0.421087 0.355283 0.066068
H55   H     H_    0.885797 0.575128 0.641921 0.102495
H56   H     H_    0.104221 0.670538 0.733527 0.136429
H57   H     H_    0.025103 0.580849 0.737549 0.064165
H58   H     H_    0.888004 0.654745 0.741280 0.146809
N1    N     N_R   0.280862 0.476857 0.852085 -0.425566
N2    N     N_R   0.519314 0.505376 0.151769 -0.424793
N3    N     N_1   0.357196 0.102013 0.701746 -0.295744
O1    O     O_2   0.110690 0.676100 0.539200 -0.495788
O2    O     O_2   0.756003 0.465673 0.707877 -0.492532
O3    O     O_3   0.775773 0.323823 0.685565 -0.573949
O4    O     O_3   0.863220 0.586720 0.534720 -0.474680
O5    O     O_3   0.450900 0.461390 0.429220 -0.490072
O6    O     O_2   0.599830 0.538970 0.641850 -0.421545
O7    O     O_3   0.401890 0.649353 0.673901 -0.656367
O8    O     O_2   0.552980 0.242698 0.519560 -0.494728
O9    O     O_3   0.478925 0.254487 0.630888 -0.594539
O10   O     O_2   0.319535 0.597777 0.861143 -0.590967
O11   O     O_2   0.245968 0.356691 0.850450 -0.622340
O12   O     O_3   0.377649 0.345412 0.345507 -0.626139
O13   O     O_2   0.480203 0.384369 0.142376 -0.596751
O14   O     O_2   0.568388 0.624591 0.152147 -0.615106
O15   O     O_3   0.368310 0.629070 0.432760 -0.490613
O16   O     O_2   0.238247 0.756348 0.473709 -0.493655
O17   O     O_3   0.946128 0.680782 0.633496 -0.578682
O18   O     O_3   0.354195 0.745510 0.366850 -0.611914
O19   O     O_2   0.210480 0.460990 0.358130 -0.465758
O20   O     O_3   0.959520 0.592090 0.401630 -0.495107
O21   O     O_2   0.087510 0.544654 0.295070 -0.501152
O22   O     O_3   0.985537 0.677451 0.310566 -0.598032
O23   O     O_2   0.699610 0.323860 0.460780 -0.467581
O24   O     O_3   0.947090 0.413280 0.465240 -0.493907
O25   O     O_3   0.442000 0.370930 0.567190 -0.472183
O26   O     O_3   0.873775 0.314433 0.366565 -0.639588
O27   O     O_3   0.359410 0.538600 0.570730 -0.484954
O28   O     O_3   0.850780 0.407910 0.598320 -0.481904
P1    P     P_3+3 0.935930 0.665430 0.555670 1.060221
P2    P     P_3+3 0.382700 0.439650 0.365620 0.992486
P3    P     P_3+3 0.946317 0.590069 0.325029 0.939081
P4    P     P_3+3 0.874370 0.334570 0.444280 0.972109
P5    P     P_3+3 0.864609 0.406032 0.674324 0.963584
P6    P     P_3+3 0.384419 0.722991 0.437334 0.933598
P7    P     P_3+3 0.414172 0.556769 0.645916 1.002111
P8    P     P_3+3 0.421718 0.277262 0.562890 0.939288

loop_
_geom_bond_atom_site_label_1
_geom_bond_atom_site_label_2
_ccdc_geom_bond_type
O7    P7    S    
C53   C54   D    
C28   H54   S    
C45   O3    S    
C25   C27   A    
C39   C41   A    
C17   C18   A    
O16   P6    D    
C67   H24   S    
C63   H58   S    
C52   O17   S    
C52   C63   S    
C42   C43   A    
C5    C9    A    
C2    H36   S    
C19   H30   S    
C24   C25   A    
Ba2   O6    S    
O21   P3    D    
C66   N3    T    
C33   C35   A    
C56   H21   S    
C22   C24   A    
C41   H42   S    
C5    C69   A    
O4    P1    S    
C51   C62   S    
C59   C60   A    
C34   H11   S    
C13   C14   A    
C64   H2    S    
C7    C8    A    
C9    C22   A    
C54   C55   S    
Ba1   O19   S    
Ba1   Ba2   S    
C64   O12   S    
C58   P3    S    
C6    C7    A    
C65   H5    S    
C12   O18   S    
C1    H9    S    
Ba2   O23   S    
C21   C22   A    
O5    P2    S    
C43   C47   A    
C56   H19   S    
C60   H48   S    
C4    O22   S    
C68   H25   S    
C66   C68   S    
C48   O13   D    
C64   C65   S    
C28   H53   S    
C25   H39   S    
C57   C58   A    
C32   C58   A    
C45   H17   S    
C28   O26   S    
C65   H6    S    
C36   O11   D    
C53   P7    S    
O17   P1    S    
Ba2   O28   S    
C26   C29   A    
C38   C43   A    
C21   H37   S    
C4    C16   S    
C44   C46   A    
O20   P3    S    
C1    H15   S    
C40   H23   S    
Ba2   O5    S    
C63   H56   S    
C23   O7    S    
C40   H12   S    
C67   H22   S    
C8    C9    A    
O24   P4    S    
C37   C38   A    
C3    C5    A    
O12   P2    S    
C34   H14   S    
C67   O9    S    
C32   C59   A    
C16   H16   S    
C20   H31   S    
O1    P1    D    
C27   H32   S    
C4    H38   S    
C41   C42   A    
C12   H1    S    
C60   C61   A    
C1    H4    S    
C36   N1    Am   
C35   N1    Am   
C29   C30   A    
C49   O14   D    
Ba2   O25   S    
C53   C62   D    
O8    P8    D    
C65   H7    S    
C23   F1    S    
C61   N2    S    
C10   C11   A    
Ba1   O20   S    
C17   C26   A    
C40   H34   S    
Ba2   P4    S    
C1    C12   S    
C48   N2    Am   
C16   H50   S    
O9    P8    S    
C18   C31   A    
C42   C49   A    
C57   H43   S    
C46   C47   A    
C46   H40   S    
C29   P6    S    
Ba1   P1    S    
C15   C69   A    
C32   H49   S    
C12   H8    S    
C30   H33   S    
C37   C44   A    
C23   H10   S    
C34   H13   S    
C45   H18   S    
C15   C24   A    
C39   H44   S    
Ba1   O1    S    
Ba1   O4    S    
C50   C51   S    
C3    H35   S    
C26   C27   A    
C14   C20   A    
C35   O10   D    
C44   H41   S    
C59   P2    S    
Ba2   O4    S    
C54   H46   S    
C55   N1    S    
Ba1   O27   S    
C13   P4    S    
O28   P5    S    
C3    C6    A    
C63   H57   S    
C49   N2    Am   
O25   P8    S    
C10   P8    S    
C6    H29   S    
O22   P3    S    
C62   H51   S    
C52   H55   S    
C57   C61   A    
C4    H27   S    
C11   H28   S    
C11   C13   A    
C31   P1    S    
O6    P7    D    
C8    C14   A    
C30   C31   A    
C45   C56   S    
C2    C19   A    
C36   C37   A    
O3    P5    S    
O23   P4    D    
Ba2   O24   S    
O18   P6    S    
C64   H3    S    
Ba1   O24   S    
C15   C17   A    
O2    P5    D    
C33   C38   A    
O27   P7    S    
C67   C68   S    
C33   C39   A    
C7    C10   A    
O19   P2    D    
C50   C55   D    
C23   C34   S    
C50   H47   S    
O26   P4    S    
C51   P5    S    
C18   C19   A    
Ba1   P2    S    
Ba2   O27   S    
C47   C48   A    
C52   H45   S    
O15   P6    S    
C20   C21   A    
C28   C40   S    
Ba1   O15   S    
C56   H20   S    
C2    C69   A    
Ba1   O5    S    
C68   H26   S    
C16   H52   S    
