data_mof_unit_25000.cif
_audit_creation_date              2012-10-26T19:56:44-0400
_audit_creation_method            fapswitch 2.2
_symmetry_space_group_name_H-M    P1
_symmetry_Int_Tables_number       1
_space_group_crystal_system       triclinic
_cell_length_a                    15.561174
_cell_length_b                    15.120437
_cell_length_c                    9.765385
_cell_angle_alpha                 90.00008
_cell_angle_beta                  61.969018
_cell_angle_gamma                 89.998736
_cell_volume                      2028.17792195

loop_
_atom_site_label
_atom_site_type_symbol
_atom_type_description
_atom_site_fract_x
_atom_site_fract_y
_atom_site_fract_z
_atom_type_partial_charge
C1    C     C_R   0.368495 0.115414 0.560649 0.524699
C2    C     C_2   0.488720 0.998790 0.083033 0.008461
C3    C     C_2   0.011281 0.498799 0.916965 0.008352
C4    C     C_2   0.988719 0.501204 0.083035 0.008386
C5    C     C_2   0.314290 0.800241 0.578071 -0.124562
C6    C     C_2   0.685716 0.199755 0.421928 -0.124586
C7    C     C_2   0.712112 0.824434 0.410150 -0.117524
C8    C     C_2   0.287863 0.175545 0.589836 -0.117679
C9    C     C_2   0.787897 0.324427 0.589839 -0.117539
C10   C     C_2   0.212100 0.675575 0.410158 -0.117502
C11   C     C_2   0.185745 0.300262 0.421924 -0.124650
C12   C     C_R   0.631497 0.884580 0.439351 0.524662
C13   C     C_2   0.814296 0.699767 0.578074 -0.124571
C14   C     C_2   0.335903 0.738946 0.465349 0.007307
C15   C     C_2   0.664094 0.261060 0.534642 0.007324
C16   C     C_2   0.763850 0.830170 0.489017 0.020934
C17   C     C_2   0.236158 0.169808 0.510911 0.021086
C18   C     C_2   0.736155 0.330165 0.510978 0.020936
C19   C     C_2   0.263843 0.669840 0.489018 0.020934
C20   C     C_2   0.164075 0.238895 0.534557 0.007322
C21   C     C_2   0.835913 0.761064 0.465349 0.007303
C22   C     C_2   0.567890 0.266775 0.676682 0.275189
C23   C     C_R   0.623549 0.122729 0.442796 0.524893
C24   C     C_2   0.432089 0.733249 0.323285 0.275166
C25   C     C_2   0.241717 0.092630 0.412488 0.264151
C26   C     C_2   0.758323 0.907347 0.587425 0.263921
C27   C     C_2   0.258327 0.592660 0.587415 0.263874
C28   C     C_2   0.741669 0.407348 0.412589 0.263889
C29   C     C_2   0.932106 0.766761 0.323277 0.275164
C30   C     C_2   0.067802 0.233075 0.676442 0.275062
C31   C     C_R   0.376453 0.877270 0.557203 0.524892
C32   C     C_R   0.876457 0.622734 0.557203 0.524903
C33   C     C_R   0.123554 0.377274 0.442794 0.524864
C34   C     C_R   0.131493 0.615423 0.439353 0.524666
C35   C     C_R   0.868506 0.384578 0.560647 0.524664
C36   C     C_2   0.511281 0.001203 0.916965 0.008460
Cu1   Cu    Cu3+1 0.522650 0.000000 0.349410 0.977406
Cu2   Cu    Cu3+1 0.477350 0.000000 0.650590 0.977386
Cu3   Cu    Cu3+1 0.022650 0.500000 0.349410 0.977317
Cu4   Cu    Cu3+1 0.977350 0.500000 0.650590 0.977312
H1    H     H_    0.627681 0.002988 0.035923 0.235818
H2    H     H_    0.772086 0.272124 0.674759 0.128547
H3    H     H_    0.747279 0.705439 0.686828 0.141451
H4    H     H_    0.252825 0.294666 0.313255 0.141371
H5    H     H_    0.413511 0.995932 0.172418 0.149757
H6    H     H_    0.586491 0.004054 0.827578 0.149751
H7    H     H_    0.913508 0.504051 0.172422 0.149763
H8    H     H_    0.086491 0.495954 0.827578 0.149739
H9    H     H_    0.505051 0.231256 0.685345 0.143269
H10   H     H_    0.494935 0.768743 0.314631 0.143267
H11   H     H_    0.274785 0.031054 0.420282 0.120286
H12   H     H_    0.372319 0.997019 0.964078 0.235822
H13   H     H_    0.725230 0.968920 0.579684 0.120322
H14   H     H_    0.225236 0.531088 0.579674 0.120315
H15   H     H_    0.774765 0.468916 0.420327 0.120333
H16   H     H_    0.994946 0.731239 0.314587 0.143298
H17   H     H_    0.005039 0.268800 0.685224 0.143283
H18   H     H_    0.127682 0.497025 0.035921 0.235788
H19   H     H_    0.872318 0.502973 0.964079 0.235803
H20   H     H_    0.752742 0.205413 0.313190 0.141415
H21   H     H_    0.247274 0.794575 0.686816 0.141463
H22   H     H_    0.272006 0.227835 0.674795 0.128326
H23   H     H_    0.727933 0.772135 0.325219 0.128539
H24   H     H_    0.227911 0.727876 0.325237 0.128564
N1    N     N_2   0.443290 0.000000 0.876860 -0.343520
N2    N     N_2   0.556710 0.000000 0.123140 -0.343523
N3    N     N_2   0.943290 0.500000 0.876860 -0.343534
N4    N     N_2   0.056710 0.500000 0.123140 -0.343548
O1    O     O_R   0.422430 0.089640 0.419570 -0.501683
O2    O     O_R   0.615830 0.910350 0.326090 -0.475083
O3    O     O_R   0.615830 0.089650 0.326090 -0.457672
O4    O     O_R   0.384170 0.910350 0.673910 -0.457682
O5    O     O_R   0.884170 0.589650 0.673910 -0.457669
O6    O     O_R   0.115830 0.410350 0.326090 -0.457671
O7    O     O_R   0.115830 0.589650 0.326090 -0.475091
O8    O     O_R   0.884170 0.410350 0.673910 -0.475103
O9    O     O_2   0.557249 0.314042 0.784927 -0.478767
O10   O     O_2   0.442696 0.686039 0.214988 -0.478785
O11   O     O_2   0.206329 0.096440 0.324426 -0.495855
O12   O     O_R   0.577570 0.910360 0.580430 -0.501678
O13   O     O_2   0.793763 0.903541 0.675413 -0.495815
O14   O     O_2   0.293774 0.596464 0.675396 -0.495876
O15   O     O_2   0.706211 0.403551 0.324623 -0.495875
O16   O     O_2   0.942737 0.814015 0.215028 -0.478753
O17   O     O_2   0.056999 0.185450 0.784399 -0.478572
O18   O     O_R   0.577570 0.089640 0.580430 -0.527078
O19   O     O_R   0.422430 0.910360 0.419570 -0.527079
O20   O     O_R   0.922430 0.589640 0.419570 -0.527067
O21   O     O_R   0.077570 0.410360 0.580430 -0.527141
O22   O     O_R   0.077570 0.589640 0.580430 -0.501654
O23   O     O_R   0.922430 0.410360 0.419570 -0.501694
O24   O     O_R   0.384170 0.089650 0.673910 -0.475094

loop_
_geom_bond_atom_site_label_1
_geom_bond_atom_site_label_2
_ccdc_geom_bond_type
C15   C18   S    
C16   C21   S    
Cu1   O1    S    
C1    C8    S    
Cu3   N4    S    
C13   C32   S    
C25   H11   S    
C27   H14   S    
C20   C30   S    
C9    H2    S    
Cu2   O12   S    
Cu2   O18   S    
C32   O20   A    
C30   H17   S    
Cu2   O24   S    
C3    H8    S    
C17   C20   S    
Cu4   O5    S    
Cu3   O6    S    
C14   C24   S    
H19   N3    S    
C6    C15   D    
C15   C22   S    
Cu4   N3    S    
C36   H6    S    
Cu3   O7    S    
Cu4   O21   S    
C19   C27   S    
C34   O7    A    
Cu1   O2    S    
C28   O15   D    
C16   C26   S    
Cu3   O20   S    
Cu3   O23   S    
C28   H15   S    
C24   O10   D    
C2    H5    S    
C24   H10   S    
C7    C12   S    
C35   O8    A    
Cu2   O4    S    
C11   C20   D    
C31   O19   A    
C5    H21   S    
C6    H20   S    
C11   C33   S    
C18   C28   S    
C29   O16   D    
Cu3   Cu4   S    
C4    N4    D    
C36   N1    D    
C21   C29   S    
C23   O18   A    
C1    O1    A    
Cu4   O8    S    
C34   O22   A    
Cu1   Cu2   S    
C33   O21   A    
C33   O6    A    
Cu2   N1    S    
C10   C19   D    
Cu1   N2    S    
C13   C21   D    
C11   H4    S    
C10   C34   S    
C30   O17   D    
C7    H23   S    
C5    C14   D    
C22   H9    S    
H18   N4    S    
C31   O4    A    
C26   O13   D    
Cu1   O3    S    
C3    C4    S    
C26   H13   S    
C13   H3    S    
C2    C36   S    
C12   O2    A    
C7    C16   D    
C25   O11   D    
C14   C19   S    
Cu1   O19   S    
C27   O14   D    
C10   H24   S    
C22   O9    D    
C2    N2    D    
H1    N2    S    
C29   H16   S    
C1    O24   A    
C8    C17   D    
C17   C25   S    
C3    N3    D    
C6    C23   S    
C12   O12   A    
C9    C18   D    
C23   O3    A    
C9    C35   S    
Cu4   O22   S    
C32   O5    A    
H12   N1    S    
C8    H22   S    
C5    C31   S    
C4    H7    S    
C35   O23   A    
