data_mof_unit_22804.cif
_audit_creation_date              2013-03-05T15:43:08-0500
_audit_creation_method            fapswitch 2.2
_symmetry_space_group_name_H-M    P1
_symmetry_Int_Tables_number       1
_space_group_crystal_system       triclinic
_cell_length_a                    6.959656
_cell_length_b                    13.768975
_cell_length_c                    18.11136
_cell_angle_alpha                 111.841013
_cell_angle_beta                  94.871719
_cell_angle_gamma                 90.339027
_cell_volume                      1603.8433289

loop_
_atom_site_label
_atom_site_type_symbol
_atom_site_description
_atom_site_fract_x
_atom_site_fract_y
_atom_site_fract_z
_atom_type_partial_charge
O1    O     O_R   0.484560 0.544530 0.414330 -0.577747
O2    O     O_R   0.197040 0.638810 0.585080 -0.498012
O3    O     O_R   0.026800 0.455470 0.585670 -0.570367
C1    C     C_R   0.373285 0.678394 0.610229 0.837825
O4    O     O_R   0.155000 0.556150 0.414940 -0.505135
O5    O     O_R   0.984450 0.372220 0.414320 -0.573852
C2    C     C_R   0.318229 0.567001 0.387637 0.774469
O6    O     O_R   0.526900 0.627780 0.585680 -0.506199
O7    O     O_3   0.339170 0.439750 0.499990 -0.310072
V1    V     V_3+5 0.064350 0.511180 0.500000 1.240376
O8    O     O_R   0.654880 0.361190 0.414920 -0.573062
C3    C     C_R   0.817642 0.324779 0.386598 0.824594
O9    O     O_R   0.696930 0.443850 0.585060 -0.566641
C4    C     C_R   0.872453 0.438325 0.614301 0.857940
V2    V     V_3+5 0.564340 0.488820 0.500000 1.179471
O10   O     O_3   0.839390 0.560250 0.500010 -0.167449
C5    C     C_R   0.052598 0.895800 0.848918 -0.129186
C6    C     C_R   0.903433 0.410290 0.684848 -0.105228
C7    C     C_R   0.948570 0.850933 0.709997 0.307614
C8    C     C_R   0.014253 0.822975 0.773253 -0.102626
C9    C     C_R   0.047404 0.003059 0.862264 -0.149225
C10   C     C_R   0.995005 0.036186 0.797349 0.035814
C11   C     C_R   0.935074 0.957444 0.721273 -0.025508
C12   C     C_R   0.994068 0.143787 0.805130 0.046811
C13   C     C_R   0.931957 0.169668 0.737333 0.035904
C14   C     C_R   0.857203 0.089194 0.666512 -0.112549
C15   C     C_R   0.856423 0.986278 0.659218 -0.074543
C16   C     C_R   0.051007 0.226436 0.878115 -0.093572
C17   C     C_R   0.052178 0.329985 0.883956 -0.048691
C18   C     C_R   0.004943 0.355097 0.817040 0.048780
C19   C     C_R   0.940788 0.275657 0.742864 0.052765
C20   C     C_R   0.021462 0.459558 0.823856 -0.054922
C21   C     C_R   0.971340 0.486970 0.758297 -0.090491
C22   C     C_R   0.891178 0.305551 0.676764 -0.124116
H1    H     H_    0.786360 0.930420 0.604357 0.146303
H2    H     H_    0.849551 0.249783 0.617445 0.047066
H3    H     H_    0.987947 0.567930 0.764611 0.081126
H4    H     H_    0.090921 0.391437 0.941621 0.063865
H5    H     H_    0.029048 0.741224 0.764512 0.105016
H6    H     H_    0.080540 0.057385 0.922834 0.047564
H7    H     H_    0.791249 0.102902 0.615552 0.082726
H8    H     H_    0.095476 0.213665 0.932083 0.060976
H9    H     H_    0.075268 0.519989 0.879977 0.125322
H10   H     H_    0.114660 0.222530 0.307848 0.109655
H11   H     H_    0.833766 0.035929 0.194583 0.116466
C23   C     C_2   0.134232 0.036585 0.183555 -0.211695
C24   C     C_2   0.972173 0.078016 0.217195 -0.080947
H12   H     H_    0.676151 0.179568 0.295820 0.068648
C25   C     C_2   0.814212 0.221852 0.318916 -0.221472
C26   C     C_2   0.976251 0.180446 0.285239 -0.090443
H13   H     H_    0.272287 0.078878 0.206638 0.063640
C27   C     C_R   0.406777 0.782096 0.677858 -0.081781
C28   C     C_R   0.538494 0.471692 0.830792 -0.130308
C29   C     C_R   0.530184 0.876742 0.815657 -0.061043
C30   C     C_R   0.481028 0.782884 0.752126 -0.069586
C31   C     C_R   0.387166 0.879216 0.667822 -0.120605
C32   C     C_R   0.438785 0.977506 0.732621 0.038784
C33   C     C_R   0.509952 0.973094 0.806754 0.053284
C34   C     C_R   0.428013 0.079380 0.726534 0.030390
C35   C     C_R   0.492840 0.174293 0.793810 0.046705
C36   C     C_R   0.562232 0.161834 0.865126 -0.099529
C37   C     C_R   0.566944 0.064545 0.871631 -0.125810
C38   C     C_R   0.357642 0.088670 0.654655 -0.099289
C39   C     C_R   0.353683 0.184648 0.646671 -0.090890
C40   C     C_R   0.417125 0.276967 0.709885 0.001065
C41   C     C_R   0.487527 0.276379 0.785974 0.001142
C42   C     C_R   0.408511 0.370121 0.695691 -0.069878
C43   C     C_R   0.466772 0.465421 0.755037 -0.149585
C44   C     C_R   0.546822 0.378161 0.848057 0.368937
H14   H     H_    0.623465 0.060588 0.928084 0.064010
H15   H     H_    0.453458 0.535483 0.741666 0.074891
H16   H     H_    0.298466 0.186600 0.589428 0.076932
H17   H     H_    0.587629 0.873934 0.872214 0.120398
H18   H     H_    0.503078 0.710198 0.760991 0.061196
H19   H     H_    0.335886 0.875049 0.608882 0.089401
H20   H     H_    0.621957 0.224371 0.917529 0.144227
H21   H     H_    0.303501 0.022380 0.602643 0.093453
H22   H     H_    0.353979 0.369468 0.637644 0.113740
H23   H     H_    0.335166 0.668921 0.193626 0.158337
H24   H     H_    0.595096 0.566462 0.293396 0.119565
C45   C     C_2   0.315158 0.614378 0.325430 0.178924
C46   C     C_2   0.468815 0.606575 0.281950 -0.131684
H25   H     H_    0.767477 0.627504 0.200954 0.148834
C47   C     C_2   0.631922 0.652029 0.180876 -0.229320
C48   C     C_2   0.470218 0.645784 0.215536 -0.054590
O11   O     O_R   0.421600 0.630430 0.917010 -0.576148
O12   O     O_R   0.793840 0.702190 0.087630 -0.542478
O13   O     O_R   0.964010 0.886170 0.088190 -0.565258
C49   C     C_R   0.630383 0.692209 0.115242 0.846049
O14   O     O_R   0.751460 0.619510 0.917500 -0.553026
O15   O     O_R   0.921330 0.802900 0.916840 -0.563896
C50   C     C_R   0.575037 0.579330 0.893590 0.847202
O16   O     O_R   0.464290 0.713700 0.088350 -0.562841
O17   O     O_3   0.609200 0.818520 0.002630 -0.293224
V3    V     V_3+5 0.884140 0.747190 0.002530 1.127797
O18   O     O_R   0.251150 0.814630 0.917340 -0.565031
C51   C     C_R   0.079128 0.851765 0.911030 0.804706
O19   O     O_R   0.293530 0.897310 0.087470 -0.566692
C52   C     C_R   0.130827 0.933615 0.115936 0.835741
V4    V     V_3+5 0.384070 0.769710 0.002370 1.106840
O20   O     O_3   0.109180 0.698190 0.002460 -0.285144
O21   O     O_3   0.634348 0.387740 0.921941 -0.667775
C53   C     C_3   0.499174 0.418118 0.979503 0.105728
H26   H     H_    0.405778 0.350038 0.974401 0.031183
H27   H     H_    0.408653 0.482884 0.976377 0.027575
H28   H     H_    0.579340 0.445969 0.039673 0.063967
N1    N     N_R   0.151413 0.674045 0.316062 0.074744
O22   O     O_R   0.979265 0.645539 0.325053 -0.371582
O23   O     O_R   0.178157 0.766814 0.314342 -0.362719
N2    N     N_R   0.892055 0.767185 0.636253 0.066436
O24   O     O_R   0.859747 0.676205 0.639853 -0.364147
O25   O     O_R   0.927968 0.772097 0.568324 -0.365311

loop_
_geom_bond_atom_site_label_1
_geom_bond_atom_site_label_2
_geom_bond_distance
_ccdc_geom_bond_type
C33   C37   1.391967 A    
C23   C52   1.487700 S    
C45   N1    1.443746 S    
C13   C19   1.425706 A    
C4    C6    1.465987 S    
O2    C1    1.312086 A    
C7    C8    1.382376 A    
C1    O6    1.298208 A    
C28   C44   1.434253 A    
C3    C25   1.487838 S    
O14   V3    2.009912 S    
C44   O21   1.381433 S    
C14   C15   1.373314 A    
C1    C27   1.496543 S    
C16   C17   1.389803 A    
O5    C3    1.294031 A    
C18   C19   1.414058 A    
C32   C34   1.449224 A    
C41   C44   1.463037 A    
V2    O10   2.146905 S    
O19   C52   1.308439 A    
C5    C8    1.366355 A    
C31   C32   1.441810 A    
C37   H14   1.084653 S    
C28   C43   1.390715 A    
N2    O24   1.297697 A    
C23   C24   1.354419 D    
C30   H18   1.080810 S    
O8    V2    2.005710 S    
C47   C48   1.351658 D    
C40   C42   1.399452 A    
O12   V3    2.006211 S    
C17   H4    1.082286 S    
N1    O22   1.300439 A    
O1    V2    2.012072 S    
C11   C15   1.396600 A    
O11   V4    2.001134 S    
O7    V1    2.155861 S    
C36   C37   1.388056 A    
C27   C30   1.395514 A    
C38   H21   1.076272 S    
O13   V3    2.002435 S    
C35   C41   1.464715 A    
C34   C35   1.452892 A    
C31   H19   1.076861 S    
O9    C4    1.303731 A    
N1    O23   1.301904 A    
O21   C53   1.411964 S    
C42   H22   1.083743 S    
C45   C46   1.362624 D    
C24   C26   1.486269 S    
H11   C24   1.086833 S    
C36   H20   1.065683 S    
C42   C43   1.382676 A    
C12   C13   1.434866 A    
H24   C46   1.086479 S    
O4    C2    1.306049 A    
C8    H5    1.083630 S    
C15   H1    1.077603 S    
C13   C14   1.402135 A    
C23   H13   1.086768 S    
C21   H3    1.081871 S    
C35   C36   1.410994 A    
C7    C11   1.408310 A    
C17   C18   1.393500 A    
C29   H17   1.081973 S    
O14   C50   1.313237 A    
H25   C47   1.083129 S    
O17   V4    1.700167 S    
O18   C51   1.317308 A    
C28   C50   1.498986 S    
C19   C22   1.421254 A    
C53   H27   1.110630 S    
O15   C51   1.316591 A    
C6    C22   1.395654 A    
O16   V4    2.020487 S    
O3    C4    1.288894 A    
H12   C25   1.086778 S    
C2    C45   1.496089 S    
C25   C26   1.354449 D    
O6    V2    2.000541 S    
O19   V4    2.005635 S    
O12   C49   1.307309 A    
C10   C12   1.435210 A    
C47   C49   1.485413 S    
O2    V1    2.009899 S    
H23   C48   1.084736 S    
C29   C33   1.401211 A    
C7    N2    1.423974 S    
H10   C26   1.086829 S    
C29   C30   1.390186 A    
O1    C2    1.299992 A    
C12   C16   1.409173 A    
O5    V1    2.002439 S    
O8    C3    1.308321 A    
C46   C48   1.491139 S    
C34   C38   1.402610 A    
C20   C21   1.392359 A    
O9    V2    2.020715 S    
O7    V2    1.702834 S    
O4    V1    2.006226 S    
O3    V1    2.004052 S    
V1    O10   1.708863 S    
C39   C40   1.395052 A    
C18   C20   1.400271 A    
C32   C33   1.414145 A    
C9    H6    1.077293 S    
C43   H15   1.081147 S    
O18   V4    2.020757 S    
C16   H8    1.076687 S    
V4    O20   2.146926 S    
C20   H9    1.080765 S    
C53   H28   1.108676 S    
C22   H2    1.076315 S    
C39   H16   1.084644 S    
C49   O16   1.294862 A    
O17   V3    2.155817 S    
C6    C21   1.396406 A    
N2    O25   1.301759 A    
O13   C52   1.294160 A    
O15   V3    2.003904 S    
C38   C39   1.382038 A    
C27   C31   1.420805 A    
C40   C41   1.425790 A    
C53   H26   1.108098 S    
C10   C11   1.425976 A    
O11   C50   1.295790 A    
C9    C10   1.432298 A    
C5    C51   1.463122 S    
V3    O20   1.708914 S    
C14   H7    1.075574 S    
C5    C9    1.406161 A    
