data_mof_unit_43871.cif
_audit_creation_date              2013-03-05T16:33:13-0500
_audit_creation_method            fapswitch 2.2
_symmetry_space_group_name_H-M    P1
_symmetry_Int_Tables_number       1
_space_group_crystal_system       triclinic
_cell_length_a                    27.777624
_cell_length_b                    10.832908
_cell_length_c                    9.572422
_cell_angle_alpha                 90.607504
_cell_angle_beta                  89.042958
_cell_angle_gamma                 91.38261
_cell_volume                      2879.0706797

loop_
_atom_site_label
_atom_site_type_symbol
_atom_site_description
_atom_site_fract_x
_atom_site_fract_y
_atom_site_fract_z
_atom_type_partial_charge
O1    O     O_R   0.500000 0.319640 0.618810 -0.601239
O2    O     O_R   0.500010 0.319680 0.381230 -0.580937
C1    C     C_R   0.498246 0.262473 0.499285 0.792640
O3    O     O_R   0.430260 0.500000 0.618780 -0.581661
O4    O     O_R   0.430270 0.500040 0.381190 -0.585712
C2    C     C_R   0.407862 0.500395 0.500961 0.786229
Cu1   Cu    Cu3+1 0.500000 0.499980 0.640670 0.932962
Cu2   Cu    Cu3+1 0.500000 0.500020 0.359330 0.937159
O5    O     O_R   0.499990 0.680320 0.618770 -0.574994
O6    O     O_R   0.500000 0.680360 0.381190 -0.585429
O7    O     O_R   0.569730 0.499960 0.618810 -0.579895
O8    O     O_R   0.569740 0.500000 0.381220 -0.574260
C3    C     C_R   0.498733 0.737801 0.500436 0.787712
C4    C     C_R   0.592437 0.499994 0.499115 0.804351
C5    C     C_R   0.180054 0.462677 0.381946 0.607568
O9    O     O_2   0.206682 0.448579 0.264138 -0.492217
N1    N     N_R   0.203114 0.489113 0.504056 -0.450673
C6    C     C_R   0.178387 0.516468 0.624141 0.592645
C7    C     C_R   0.279567 0.601610 0.474460 -0.125499
C8    C     C_R   0.330202 0.608656 0.472901 0.112388
C9    C     C_R   0.330646 0.390428 0.534966 -0.357209
C10   C     C_R   0.280362 0.383634 0.536532 0.040938
C11   C     C_R   0.254743 0.490807 0.505390 0.301323
C12   C     C_R   0.102946 0.487394 0.501749 -0.059803
C13   C     C_R   0.129074 0.453880 0.379097 -0.041082
C14   C     C_R   0.103166 0.417813 0.258216 -0.013988
C15   C     C_R   0.128038 0.518251 0.624800 -0.008855
C16   C     C_R   0.355386 0.500738 0.503120 -0.057836
H1    H     H_    0.350936 0.308912 0.557856 0.131041
C17   C     C_R   0.645298 0.499750 0.497781 -0.039487
C18   C     C_R   0.975113 0.449399 0.385210 0.063168
C19   C     C_R   0.975559 0.543695 0.619701 0.005487
C20   C     C_R   0.949907 0.498661 0.502906 0.063359
C21   C     C_R   0.948065 0.394292 0.276537 -0.211200
C22   C     C_R   0.898220 0.392913 0.280378 -0.166782
C23   C     C_R   0.873192 0.447668 0.391562 -0.000774
C24   C     C_R   0.898688 0.501883 0.503761 -0.076255
C25   C     C_R   0.872965 0.558054 0.616186 -0.048310
C26   C     C_R   0.821931 0.561373 0.607454 0.526342
N2    N     N_R   0.798299 0.503777 0.499510 -0.460936
C27   C     C_R   0.822863 0.446902 0.393361 0.526139
C28   C     C_R   0.721965 0.550888 0.385105 -0.098405
C29   C     C_R   0.671738 0.548299 0.384011 -0.219967
C30   C     C_R   0.669762 0.452004 0.611619 -0.227077
C31   C     C_R   0.719928 0.451880 0.611125 -0.100800
C32   C     C_R   0.746420 0.502205 0.498444 0.350404
O10   O     O_2   0.798515 0.388606 0.289999 -0.553200
C33   C     C_R   0.026348 0.454396 0.380993 0.044448
C34   C     C_R   0.051757 0.490703 0.502056 0.073930
C35   C     C_R   0.026362 0.530712 0.623759 0.060420
C36   C     C_R   0.052999 0.422917 0.259539 -0.276366
H2    H     H_    0.653623 0.586323 0.295626 0.145753
H3    H     H_    0.741905 0.591000 0.297924 0.148624
H4    H     H_    0.879300 0.348590 0.194643 0.184219
H5    H     H_    0.964238 0.347125 0.188654 0.143944
H6    H     H_    0.035511 0.400917 0.162401 0.124800
O11   O     O_2   0.202637 0.542859 0.742246 -0.526961
C37   C     C_R   0.102520 0.549201 0.746541 -0.149626
H7    H     H_    0.258479 0.681262 0.451591 0.152200
H8    H     H_    0.121005 0.569997 0.843068 0.180002
C38   C     C_R   0.949743 0.601518 0.728929 -0.228753
C39   C     C_R   0.899469 0.609114 0.730408 0.160309
O12   O     O_2   0.795688 0.622881 0.703647 -0.559857
C40   C     C_R   0.052738 0.554867 0.746507 -0.212331
H9    H     H_    0.968396 0.644696 0.814914 0.138489
H10   H     H_    0.650094 0.413402 0.700215 0.155145
H11   H     H_    0.738284 0.412936 0.698697 0.147475
H12   H     H_    0.035896 0.575289 0.846039 0.135426
C41   C     C_R   0.486218 0.065402 0.622414 0.110703
C42   C     C_R   0.491842 0.129456 0.497597 -0.096909
C43   C     C_R   0.489887 0.062754 0.370998 -0.212888
H13   H     H_    0.490960 0.109436 0.271451 0.164570
C44   C     C_R   0.490272 0.933932 0.372085 -0.213801
H14   H     H_    0.491291 0.884854 0.273031 0.160493
C45   C     C_R   0.492840 0.870887 0.499682 -0.101091
C46   C     C_R   0.486797 0.938298 0.623770 0.132504
C47   C     C_3   0.514627 0.938966 0.755922 -0.483144
C48   C     C_3   0.513517 0.078601 0.754547 -0.451680
H15   H     H_    0.493156 0.899136 0.844263 0.195319
H16   H     H_    0.551595 0.903558 0.740283 0.201471
H17   H     H_    0.491314 0.118120 0.840938 0.189146
H18   H     H_    0.549680 0.123185 0.739116 0.206528
C49   C     C_R   0.539442 0.541468 0.071949 0.253558
N3    N     N_R   0.500300 0.500930 0.147930 -0.205123
C50   C     C_R   0.464431 0.442183 0.077899 -0.092732
H19   H     H_    0.435934 0.395979 0.137215 0.157414
C51   C     C_R   0.464220 0.439323 0.929563 0.223523
N4    N     N_R   0.500310 0.500890 0.852020 -0.202374
C52   C     C_R   0.539619 0.540585 0.925081 0.221586
C53   C     C_3   0.563532 0.664462 0.919152 -0.498800
C54   C     C_3   0.562904 0.666374 0.077889 -0.485703
H20   H     H_    0.600356 0.661197 0.872185 0.205760
H21   H     H_    0.539695 0.732510 0.874147 0.212937
H22   H     H_    0.599490 0.664540 0.122626 0.191254
H23   H     H_    0.538987 0.737464 0.123667 0.208225
C55   C     C_3   0.876923 0.668335 0.860054 -0.350093
C56   C     C_3   0.856086 0.570694 0.959767 -0.727610
H24   H     H_    0.838914 0.616552 0.051483 0.240044
H25   H     H_    0.828797 0.510210 0.908168 0.273877
H26   H     H_    0.885431 0.512265 0.997290 0.228768
H27   H     H_    0.904306 0.723043 0.919293 0.174669
H28   H     H_    0.850113 0.737850 0.833111 0.245223
C57   C     C_2   0.256553 0.263141 0.570492 0.426461
H29   H     H_    0.278417 0.184439 0.593831 0.051993
O13   O     O_2   0.212822 0.249238 0.573047 -0.517600
C58   C     C_3   0.424220 0.360172 0.867293 -0.392171
C59   C     C_3   0.375420 0.421946 0.882852 -0.759590
H30   H     H_    0.376456 0.514734 0.834722 0.271669
H31   H     H_    0.347307 0.363851 0.831325 0.244337
H32   H     H_    0.365130 0.432198 0.994888 0.242636
H33   H     H_    0.430916 0.331844 0.758764 0.250126
H34   H     H_    0.421949 0.271005 0.923887 0.156716
C60   C     C_2   0.125567 0.366575 0.129199 0.492393
H35   H     H_    0.113674 0.396605 0.027896 0.037270
O14   O     O_2   0.154364 0.283438 0.134614 -0.466637
C61   C     C_3   0.358374 0.728062 0.441556 -0.393924
C62   C     C_3   0.328273 0.842108 0.418014 -0.823916
H36   H     H_    0.305317 0.828544 0.324944 0.261668
H37   H     H_    0.305588 0.862164 0.511805 0.256917
H38   H     H_    0.352675 0.923174 0.399099 0.245286
H39   H     H_    0.382645 0.749172 0.530320 0.194600
H40   H     H_    0.381278 0.713511 0.346785 0.217484

loop_
_geom_bond_atom_site_label_1
_geom_bond_atom_site_label_2
_geom_bond_distance
_ccdc_geom_bond_type
C51   N4    1.397913 A    
C55   H28   1.107148 S    
C35   C40   1.413805 A    
C44   H14   1.082434 S    
C30   H10   1.083324 S    
C7    C8    1.406596 A    
C12   C15   1.411678 A    
C56   H24   1.110540 S    
C23   C27   1.397658 A    
Cu1   Cu2   2.693109 S    
C58   H34   1.112441 S    
C31   C32   1.403126 A    
N2    C32   1.440965 S    
N1    C11   1.434091 S    
C61   H40   1.111374 S    
C49   N3    1.364309 A    
C40   H12   1.077595 S    
C23   C24   1.411367 A    
C19   C38   1.408041 A    
C21   C22   1.384174 A    
C39   C55   1.523310 S    
C62   H37   1.110819 S    
C28   H3    1.082909 S    
C50   H19   1.082312 S    
O4    C2    1.295419 A    
O7    C4    1.298655 A    
C29   H2    1.081806 S    
C5    C13   1.417725 A    
C58   C59   1.530498 S    
C37   H8    1.083532 S    
C5    O9    1.347620 S    
C61   C62   1.529137 S    
C41   C46   1.377588 A    
Cu1   O5    1.967037 S    
C36   H6    1.078052 S    
C28   C32   1.403816 A    
O5    C3    1.299765 A    
C33   C36   1.411042 A    
C2    C16   1.457545 S    
C22   C23   1.396315 A    
C31   H11   1.082971 S    
C59   H30   1.109694 S    
C18   C20   1.422407 A    
C42   C43   1.405495 A    
C50   C51   1.420048 A    
C21   H5    1.077008 S    
O1    Cu1   1.962574 S    
C9    C10   1.396785 A    
C22   H4    1.083589 S    
C59   H31   1.109837 S    
C17   C30   1.403714 A    
C41   C48   1.489380 S    
C38   C39   1.400711 A    
C4    C17   1.468255 S    
O3    Cu1   1.951996 S    
C56   H25   1.108853 S    
Cu1   O7    1.944731 S    
C58   H33   1.094350 S    
C47   H15   1.111512 S    
C37   C40   1.385678 A    
C49   C52   1.405740 A    
C61   H39   1.111935 S    
C3    C45   1.454995 S    
C1    C42   1.447588 S    
C12   C13   1.418524 A    
O3    C2    1.297207 A    
C62   H38   1.110846 S    
C26   N2    1.370089 A    
C43   C44   1.395956 A    
C8    C16   1.411784 A    
C7    H7    1.080861 S    
C13   C14   1.419206 A    
C47   C48   1.513910 S    
C9    H1    1.085205 S    
O6    C3    1.294625 A    
C20   C24   1.423911 A    
C10   C57   1.485598 S    
O1    C1    1.296275 A    
C7    C11   1.401664 A    
C45   C46   1.397585 A    
C24   C25   1.421407 A    
C48   H18   1.112330 S    
C6    O11   1.350159 S    
C53   H20   1.111617 S    
Cu1   N4    2.023213 S    
Cu2   O8    1.951990 S    
C55   C56   1.529143 S    
N1    C6    1.362774 A    
C27   O10   1.350444 S    
C18   C21   1.412197 A    
C57   O13   1.220314 D    
N3    C50   1.352701 A    
C19   C35   1.422774 A    
N2    C27   1.364369 A    
C9    C16   1.397952 A    
O8    C4    1.301874 A    
C18   C33   1.422816 A    
C59   H32   1.110397 S    
C17   C29   1.403154 A    
C28   C29   1.394984 A    
C44   C45   1.409377 A    
C56   H26   1.110656 S    
C49   C54   1.488573 S    
C30   C31   1.393465 A    
C53   H21   1.098750 S    
C8    C61   1.525484 S    
C60   H35   1.085309 S    
C47   H16   1.112049 S    
C12   C34   1.423181 A    
C5    N1    1.366626 A    
C33   C34   1.414243 A    
Cu2   N3    2.023616 S    
O2    Cu2   1.967039 S    
C6    C15   1.399077 A    
C15   C37   1.395880 A    
O4    Cu2   1.944734 S    
C26   O12   1.345830 S    
C14   C36   1.395767 A    
C19   C20   1.412075 A    
O2    C1    1.294236 A    
C14   C60   1.482221 S    
C43   H13   1.083145 S    
C62   H36   1.110673 S    
C54   H22   1.110085 S    
C46   C47   1.493354 S    
C48   H17   1.111628 S    
C53   C54   1.519235 S    
C25   C26   1.422775 A    
C51   C58   1.513386 S    
C41   C42   1.392683 A    
C54   H23   1.110985 S    
C38   H9    1.076618 S    
N4    C52   1.364830 A    
Cu2   O6    1.962573 S    
C34   C35   1.420999 A    
C57   H29   1.085895 S    
C10   C11   1.413325 A    
C60   O14   1.220991 D    
C52   C53   1.484118 S    
C55   H27   1.112145 S    
C25   C39   1.427549 A    
