data_mof_unit_53038.cif
_audit_creation_date              2013-03-05T15:46:53-0500
_audit_creation_method            fapswitch 2.2
_symmetry_space_group_name_H-M    P1
_symmetry_Int_Tables_number       1
_space_group_crystal_system       triclinic
_cell_length_a                    14.789698
_cell_length_b                    14.81839
_cell_length_c                    14.876852
_cell_angle_alpha                 108.787319
_cell_angle_beta                  109.912369
_cell_angle_gamma                 108.612883
_cell_volume                      2543.10312756

loop_
_atom_site_label
_atom_site_type_symbol
_atom_site_description
_atom_site_fract_x
_atom_site_fract_y
_atom_site_fract_z
_atom_type_partial_charge
C1    C     C_R   0.194291 0.995326 0.903483 -0.110627
C2    C     C_R   0.746871 0.931435 0.025057 -0.069948
H1    H     H_    0.165602 0.018869 0.842240 0.121838
H2    H     H_    0.755889 0.877237 0.057137 0.095258
N1    N     N_R   0.293810 0.002730 0.945950 -0.045002
N2    N     N_R   0.706190 0.997270 0.054050 -0.037267
C3    C     C_R   0.802122 0.207422 0.300453 0.276194
C4    C     C_R   0.242505 0.777399 0.685027 0.338428
N3    N     N_R   0.706160 0.152130 0.208910 -0.085391
N4    N     N_R   0.293840 0.847870 0.791090 -0.085900
C5    C     C_R   0.406644 0.973475 0.221836 -0.062104
C6    C     C_R   0.590716 0.095380 0.790587 -0.120989
H3    H     H_    0.321275 0.940732 0.199850 0.102235
H4    H     H_    0.674209 0.155518 0.823032 0.129513
N5    N     N_R   0.443140 0.945920 0.152090 -0.045632
N6    N     N_R   0.556860 0.054080 0.847910 -0.052960
C7    C     C_R   0.587657 0.314311 0.058700 -0.081974
C8    C     C_R   0.412872 0.702464 0.009350 -0.098832
H5    H     H_    0.671771 0.377901 0.106229 0.138686
H6    H     H_    0.328463 0.648994 0.980817 0.153216
N7    N     N_R   0.556830 0.208940 0.002760 -0.057170
N8    N     N_R   0.443170 0.791060 0.997240 -0.055274
C9    C     C_R   0.590003 0.066563 0.313224 -0.048243
C10   C     C_R   0.408887 0.005677 0.700255 -0.089542
H7    H     H_    0.674189 0.121258 0.376071 0.125624
H8    H     H_    0.325918 0.986517 0.650942 0.168995
N9    N     N_R   0.556790 0.002750 0.208910 -0.033662
N10   N     N_R   0.443210 0.997250 0.791090 -0.059368
C11   C     C_R   0.404601 0.220811 0.971425 -0.123229
C12   C     C_R   0.594038 0.795399 0.101924 -0.129015
H9    H     H_    0.318973 0.194266 0.942090 0.116819
H10   H     H_    0.677947 0.833618 0.164111 0.148210
N11   N     N_R   0.443180 0.152110 0.945950 -0.049656
N12   N     N_R   0.556820 0.847890 0.054050 -0.048280
C13   C     C_R   0.800363 0.302204 0.210944 -0.102995
C14   C     C_R   0.250844 0.686442 0.779611 -0.188402
H11   H     H_    0.827184 0.360227 0.184017 0.136690
H12   H     H_    0.236459 0.622277 0.801283 0.141005
N13   N     N_R   0.706170 0.208950 0.152090 -0.065004
N14   N     N_R   0.293830 0.791050 0.847910 -0.060442
C15   C     C_R   0.196100 0.904296 0.995892 -0.135288
C16   C     C_R   0.746990 0.023776 0.932476 -0.126818
H13   H     H_    0.170175 0.843161 0.019480 0.106706
H14   H     H_    0.756420 0.055306 0.878532 0.155755
N15   N     N_R   0.293800 0.945910 0.002760 -0.046633
N16   N     N_R   0.706200 0.054090 0.997240 -0.051770
C17   C     C_R   0.130610 0.932659 0.932652 0.043597
C18   C     C_R   0.771451 0.944552 0.946478 0.017837
C19   C     C_R   0.860847 0.302654 0.304430 -0.103428
C20   C     C_R   0.217583 0.675286 0.676224 -0.108697
C21   C     C_R   0.497408 0.051075 0.323937 0.001917
C22   C     C_R   0.499373 0.066952 0.697521 0.036218
C23   C     C_R   0.493214 0.324699 0.044567 0.115718
C24   C     C_R   0.506071 0.704632 0.079248 0.098082
Ni1   Ni    Ni4+2 0.369690 0.999990 0.869700 0.259740
Ni2   Ni    Ni4+2 0.630310 0.000010 0.130300 0.294201
Ni3   Ni    Ni4+2 0.369670 0.869670 0.000000 0.238473
Ni4   Ni    Ni4+2 0.630330 0.130330 0.000000 0.217687
C25   C     C_R   0.126139 0.248838 0.800167 -0.155270
C26   C     C_R   0.851457 0.891113 0.407493 -0.130208
H15   H     H_    0.093206 0.231205 0.715822 0.212534
H16   H     H_    0.874488 0.953644 0.485969 0.209443
C27   C     C_R   0.238284 0.318191 0.872192 -0.199097
C28   C     C_R   0.746193 0.801315 0.345969 -0.156174
H17   H     H_    0.289935 0.353513 0.842593 0.147092
H18   H     H_    0.689884 0.795892 0.377739 0.162708
C29   C     C_R   0.282512 0.347327 0.983279 0.180488
C30   C     C_R   0.714118 0.718685 0.244200 0.200561
C31   C     C_R   0.214273 0.302209 0.020705 -0.115798
C32   C     C_R   0.788110 0.726894 0.204224 -0.172044
H19   H     H_    0.247190 0.324983 0.106446 0.145505
H20   H     H_    0.764157 0.663597 0.125553 0.136343
C33   C     C_R   0.101558 0.233937 0.948740 -0.239091
C34   C     C_R   0.893022 0.817065 0.265360 -0.224460
H21   H     H_    0.049190 0.203162 0.979686 0.164775
H22   H     H_    0.948383 0.821660 0.232540 0.169521
C35   C     C_R   0.056175 0.209430 0.838600 0.403881
C36   C     C_R   0.926016 0.900071 0.367880 0.466606
C37   C     C_R   0.406530 0.544233 0.092665 0.291242
C38   C     C_R   0.591680 0.523083 0.175785 0.286701
C39   C     C_R   0.507879 0.628378 0.124513 -0.091308
C40   C     C_R   0.490727 0.427840 0.095819 -0.102657
C41   C     C_R   0.603750 0.622897 0.179844 -0.164424
C42   C     C_R   0.394347 0.439020 0.061141 -0.153612
C43   C     C_R   0.950146 0.430768 0.493703 -0.050093
C44   C     C_R   0.139962 0.537804 0.487204 -0.065520
H23   H     H_    0.876152 0.390278 0.495930 0.117716
H24   H     H_    0.213647 0.580261 0.485575 0.145613
C45   C     C_R   0.038177 0.521825 0.585632 -0.150570
C46   C     C_R   0.050238 0.446346 0.393683 -0.134623
H25   H     H_    0.031736 0.552350 0.658676 0.134860
H26   H     H_    0.053432 0.416675 0.318663 0.133067
C47   C     C_R   0.132192 0.575554 0.581819 0.154173
C48   C     C_R   0.956394 0.394014 0.398391 0.189426
C49   C     C_R   0.596711 0.158539 0.619869 -0.121585
C50   C     C_R   0.397478 0.057583 0.427700 -0.111965
H27   H     H_    0.675269 0.196471 0.692335 0.151944
H28   H     H_    0.319100 0.016195 0.354077 0.138272
C51   C     C_R   0.596059 0.156604 0.526011 -0.126475
C52   C     C_R   0.398018 0.059730 0.521575 -0.100491
H29   H     H_    0.674242 0.193473 0.530065 0.132517
H30   H     H_    0.319831 0.019770 0.516389 0.170317
C53   C     C_R   0.496756 0.095122 0.426797 0.105425
C54   C     C_R   0.497940 0.100388 0.614906 0.082896
C55   C     C_R   0.965053 0.839522 0.942370 -0.148173
C56   C     C_R   0.862504 0.930489 0.834190 -0.146941
H31   H     H_    0.003256 0.804779 0.986492 0.118816
H32   H     H_    0.823745 0.965873 0.791618 0.175249
C57   C     C_R   0.872169 0.839894 0.943621 -0.144106
C58   C     C_R   0.956502 0.931540 0.833974 -0.143096
H33   H     H_    0.843201 0.806064 0.988985 0.109369
H34   H     H_    0.988271 0.969036 0.792267 0.134060
C59   C     C_R   0.829052 0.897536 0.901002 0.120321
C60   C     C_R   0.014395 0.896256 0.897935 0.127746
N17   N     N_R   0.320162 0.567929 0.096967 0.230060
O1    O     O_R   0.218134 0.503997 0.020477 -0.407584
O2    O     O_R   0.345383 0.659246 0.175312 -0.390115
N18   N     N_R   0.676364 0.517913 0.255387 0.232158
O3    O     O_R   0.779602 0.574217 0.287164 -0.391950
O4    O     O_R   0.649184 0.452985 0.294350 -0.396279
N19   N     N_R   0.848298 0.157903 0.358097 0.227955
O5    O     O_R   0.797230 0.053067 0.318832 -0.445740
O6    O     O_R   0.945898 0.214849 0.443492 -0.369547
N20   N     N_R   0.186396 0.798409 0.601272 0.223057
O7    O     O_R   0.170251 0.748617 0.503104 -0.395419
O8    O     O_R   0.145896 0.863723 0.621824 -0.408496
N21   N     N_R   0.939334 0.150818 0.768008 0.222119
O9    O     O_R   0.897447 0.105991 0.662481 -0.406468
O10   O     O_R   0.874825 0.154401 0.808957 -0.468418
N22   N     N_R   0.034364 0.992609 0.431289 0.255731
O11   O     O_R   0.065854 0.068326 0.527181 -0.369429
O12   O     O_R   0.102760 0.001864 0.393941 -0.412137

loop_
_geom_bond_atom_site_label_1
_geom_bond_atom_site_label_2
_geom_bond_distance
_ccdc_geom_bond_type
C10   C22   1.379214 A    
C17   C60   1.461504 S    
C51   C53   1.403096 A    
C27   H17   1.083398 S    
N12   Ni2   1.870451 S    
C37   N17   1.444495 S    
C33   H21   1.082795 S    
C2    H2    1.078175 S    
C52   C54   1.403545 A    
C25   C35   1.403921 A    
N8    Ni3   1.829803 S    
C55   H31   1.079742 S    
N15   Ni3   1.829714 S    
C34   H22   1.082386 S    
C1    N1    1.340295 A    
C28   C30   1.400864 A    
N4    N14   1.371826 A    
C13   H11   1.081421 S    
C10   H8    1.074616 S    
C57   H33   1.080777 S    
C37   C42   1.405457 A    
C44   H24   1.083598 S    
N7    N11   1.385304 A    
C21   C53   1.462348 S    
N17   O1    1.301082 A    
C11   N11   1.332357 A    
N3    N13   1.371826 A    
C26   H16   1.080961 S    
C16   N16   1.335727 A    
C31   H19   1.082956 S    
N18   O3    1.300764 A    
C6    C22   1.380724 A    
C5    N5    1.335658 A    
C9    C21   1.387458 A    
C6    N6    1.335640 A    
N17   O2    1.301713 A    
C50   H28   1.080823 S    
C13   C19   1.370145 A    
C31   C33   1.399550 A    
C9    N9    1.335217 A    
C19   C48   1.413512 S    
C45   H25   1.084402 S    
C58   C60   1.401137 A    
C8    H6    1.075845 S    
N6    N10   1.385305 A    
C35   N21   1.435843 S    
C57   C59   1.399764 A    
C56   H32   1.078462 S    
C29   C42   1.473178 S    
N16   Ni4   1.829713 S    
N5    Ni3   1.863253 S    
C2    N2    1.334244 A    
C16   H14   1.076090 S    
C3    N19   1.437560 S    
C38   C41   1.410585 A    
C39   C41   1.419916 A    
N10   Ni1   1.848077 S    
C46   C48   1.395250 A    
C38   N18   1.444399 S    
C43   H23   1.084921 S    
N5    N9    1.385305 A    
N8    N12   1.385306 A    
C27   C29   1.403298 A    
C25   H15   1.082246 S    
C12   N12   1.333547 A    
C56   C59   1.401625 A    
C55   C60   1.404018 A    
C14   N14   1.325086 A    
C3    C19   1.370430 A    
C38   C40   1.414173 A    
C44   C46   1.383191 A    
C37   C39   1.403088 A    
C43   C45   1.364996 A    
N9    Ni2   1.848075 S    
C4    N20   1.431295 S    
C16   C18   1.389157 A    
C2    C18   1.388249 A    
N13   Ni4   1.863888 S    
N1    N15   1.371706 A    
C7    N7    1.337392 A    
C23   C40   1.490991 S    
C1    H1    1.080624 S    
C28   H18   1.083159 S    
N22   O12   1.301591 A    
N21   O10   1.300609 A    
C32   C34   1.397366 A    
C44   C47   1.396927 A    
C12   C24   1.381034 A    
C43   C48   1.392730 A    
C46   H26   1.083628 S    
C26   C36   1.407293 A    
C52   H30   1.080021 S    
C15   C17   1.376131 A    
N11   Ni1   1.870451 S    
N3    Ni2   1.871246 S    
N6    Ni4   1.863255 S    
N4    Ni1   1.871246 S    
N19   O5    1.300387 A    
N18   O4    1.301672 A    
C4    N4    1.331607 A    
C51   H29   1.080349 S    
C6    H4    1.080016 S    
C40   C42   1.424902 A    
N21   O9    1.301074 A    
C7    C23   1.406054 A    
C14   C20   1.379829 A    
C49   C54   1.401400 A    
N20   O8    1.301220 A    
C56   C58   1.386420 A    
C3    N3    1.327661 A    
C55   C57   1.381919 A    
C22   C54   1.462073 S    
C15   N15   1.329910 A    
N14   Ni3   1.863890 S    
N2    N16   1.371706 A    
C8    N8    1.337394 A    
C30   C41   1.475460 S    
N1    Ni1   1.847811 S    
C1    C17   1.384693 A    
C15   H13   1.079598 S    
C10   N10   1.334655 A    
N2    Ni2   1.847812 S    
C49   H27   1.080584 S    
C20   C47   1.419506 S    
C25   C27   1.395456 A    
C26   C28   1.398076 A    
C14   H12   1.080888 S    
N22   O11   1.301452 A    
C36   N22   1.439620 S    
N7    Ni4   1.829805 S    
C11   H9    1.069563 S    
C12   H10   1.071692 S    
C5    H3    1.077932 S    
C11   C23   1.390414 A    
C13   N13   1.333357 A    
C50   C52   1.383876 A    
C7    H5    1.076498 S    
C4    C20   1.387827 A    
C49   C51   1.384020 A    
C9    H7    1.075205 S    
C45   C47   1.395218 A    
C58   H34   1.080941 S    
N19   O6    1.300942 A    
C5    C21   1.390024 A    
C8    C24   1.398636 A    
C30   C32   1.403915 A    
C34   C36   1.406686 A    
C50   C53   1.400832 A    
C33   C35   1.406828 A    
N20   O7    1.300078 A    
C32   H20   1.083247 S    
C29   C31   1.402634 A    
C24   C39   1.492700 S    
C18   C59   1.461747 S    
