data_mof_unit_49817.cif
_audit_creation_date              2013-03-05T15:52:05-0500
_audit_creation_method            fapswitch 2.2
_symmetry_space_group_name_H-M    P1
_symmetry_Int_Tables_number       1
_space_group_crystal_system       triclinic
_cell_length_a                    19.371164
_cell_length_b                    10.867344
_cell_length_c                    9.597065
_cell_angle_alpha                 91.398505
_cell_angle_beta                  90.929538
_cell_angle_gamma                 93.256437
_cell_volume                      2016.1310506

loop_
_atom_site_label
_atom_site_type_symbol
_atom_site_description
_atom_site_fract_x
_atom_site_fract_y
_atom_site_fract_z
_atom_type_partial_charge
O1    O     O_R   0.499990 0.319640 0.618810 -0.599418
O2    O     O_R   0.500000 0.319660 0.381240 -0.607651
C1    C     C_R   0.506552 0.263499 0.500059 0.797474
O3    O     O_R   0.400140 0.499970 0.618820 -0.531681
O4    O     O_R   0.400150 0.500000 0.381250 -0.548004
C2    C     C_R   0.367408 0.505996 0.499241 0.850163
Cu1   Cu    Cu3+1 0.500000 0.499990 0.640660 0.955497
Cu2   Cu    Cu3+1 0.500000 0.500010 0.359340 0.957604
O5    O     O_R   0.500000 0.680340 0.618760 -0.606974
O6    O     O_R   0.500010 0.680360 0.381190 -0.590738
O7    O     O_R   0.599850 0.500000 0.618750 -0.609605
O8    O     O_R   0.599860 0.500030 0.381180 -0.602165
C3    C     C_R   0.497163 0.737739 0.502321 0.793511
C4    C     C_R   0.632412 0.500088 0.500971 0.788066
C5    C     C_R   0.256045 0.538807 0.625775 0.302989
C6    C     C_R   0.183802 0.527905 0.629115 -0.190820
H1    H     H_    0.158030 0.545414 0.726401 0.201225
C7    C     C_R   0.144739 0.497173 0.508595 -0.077522
C8    C     C_R   0.178141 0.481075 0.382335 -0.190023
H2    H     H_    0.147787 0.463973 0.287266 0.201305
C9    C     C_R   0.250196 0.493700 0.374744 0.291318
C10   C     C_R   0.290785 0.515387 0.498843 -0.283273
N1    N     N_R   0.031549 0.419217 0.415605 -0.220328
N2    N     N_R   0.962845 0.416370 0.414318 -0.225231
C11   C     C_R   0.928975 0.485035 0.507933 0.457178
N3    N     N_R   0.966166 0.554504 0.605152 -0.191628
N4    N     N_R   0.034908 0.556536 0.607261 -0.214792
C12   C     C_R   0.068849 0.489638 0.511784 0.459791
C13   C     C_R   0.815669 0.464764 0.627844 0.336228
C14   C     C_R   0.743868 0.472987 0.626115 -0.253387
H3    H     H_    0.715521 0.455984 0.720782 0.192088
C15   C     C_R   0.708219 0.497441 0.502907 -0.115812
C16   C     C_R   0.744975 0.516831 0.380437 -0.200646
H4    H     H_    0.717356 0.537456 0.285494 0.162662
C17   C     C_R   0.817058 0.512718 0.378946 0.053349
C18   C     C_R   0.853030 0.485565 0.503909 -0.079651
H5    H     H_    0.510334 0.104075 0.279998 0.148396
C19   C     C_R   0.545103 0.129247 0.758383 -0.154566
H6    H     H_    0.573014 0.218239 0.759123 0.165522
C20   C     C_R   0.535888 0.073775 0.886506 -0.177838
H7    H     H_    0.552976 0.122334 0.981866 0.137596
C21   C     C_R   0.502522 0.957705 0.891855 -0.137006
H8    H     H_    0.491800 0.916987 0.991642 0.152010
C22   C     C_R   0.484729 0.892212 0.768580 -0.127166
H9    H     H_    0.456791 0.804739 0.780223 0.215998
C23   C     C_R   0.500224 0.942356 0.636622 0.080809
C24   C     C_R   0.520550 0.068919 0.632884 0.102092
C25   C     C_R   0.515193 0.130177 0.504020 -0.106940
C26   C     C_R   0.509119 0.060874 0.379750 -0.219079
H10   H     H_    0.499953 0.883819 0.282684 0.172695
C27   C     C_R   0.502038 0.933944 0.381790 -0.198905
C28   C     C_R   0.496672 0.872748 0.508417 -0.099885
C29   C     C_R   0.591100 0.667911 0.150820 -0.155134
H11   H     H_    0.597021 0.674111 0.260928 0.195558
C30   C     C_R   0.635372 0.749693 0.081585 -0.223184
H12   H     H_    0.670542 0.813289 0.140162 0.157302
C31   C     C_R   0.635293 0.748973 0.937943 -0.174953
H13   H     H_    0.670146 0.812348 0.884127 0.161705
C32   C     C_R   0.590941 0.666442 0.862682 -0.142411
H14   H     H_    0.595501 0.671950 0.752934 0.198437
C33   C     C_R   0.544313 0.582676 0.928831 0.179634
C34   C     C_R   0.544101 0.583390 0.078359 0.194665
N5    N     N_R   0.500660 0.501210 0.147910 -0.213558
C35   C     C_R   0.459244 0.416157 0.067488 0.202215
H15   H     H_    0.426280 0.357646 0.855296 0.147843
C36   C     C_R   0.458495 0.420921 0.919551 0.008389
N6    N     N_R   0.500680 0.501290 0.852040 -0.223475
N7    N     N_R   0.292698 0.580781 0.750730 0.142337
O9    O     O_R   0.333628 0.679882 0.748957 -0.361914
O10   O     O_R   0.275113 0.535523 0.870160 -0.295237
C37   C     C_3   0.421560 0.305997 0.132984 -0.343299
C38   C     C_3   0.370226 0.226332 0.039560 -0.426893
C39   C     C_3   0.331830 0.127289 0.123584 -0.721814
H16   H     H_    0.369113 0.066128 0.171670 0.242481
H17   H     H_    0.301364 0.170259 0.206879 0.269096
H18   H     H_    0.295875 0.070478 0.053619 0.261550
H19   H     H_    0.331950 0.284686 0.990279 0.290896
H20   H     H_    0.398576 0.178549 0.956292 0.217258
H21   H     H_    0.461792 0.244026 0.163344 0.184458
H22   H     H_    0.393299 0.335722 0.225072 0.267325
N8    N     N_R   0.280022 0.490105 0.239044 0.132737
O11   O     O_R   0.315937 0.586428 0.196494 -0.295565
O12   O     O_R   0.255109 0.409287 0.146600 -0.358092
N9    N     N_R   0.849350 0.431312 0.755133 0.127919
O13   O     O_R   0.825406 0.465770 0.874941 -0.396256
O14   O     O_R   0.897423 0.352394 0.752676 -0.330570
C40   C     C_3   0.853122 0.541160 0.243099 -0.353390
C41   C     C_3   0.891160 0.668979 0.249043 -0.389877
C42   C     C_3   0.925523 0.697664 0.110653 -0.708087
H23   H     H_    0.963825 0.628404 0.085755 0.273645
H24   H     H_    0.886088 0.697207 0.025248 0.270783
H25   H     H_    0.952771 0.790344 0.117953 0.240721
H26   H     H_    0.853711 0.740237 0.272367 0.226314
H27   H     H_    0.931600 0.674178 0.332543 0.233998
H28   H     H_    0.888798 0.468515 0.215686 0.241272
H29   H     H_    0.814615 0.539490 0.155718 0.230340

loop_
_geom_bond_atom_site_label_1
_geom_bond_atom_site_label_2
_geom_bond_distance
_ccdc_geom_bond_type
C19   C20   1.392217 A    
C30   H12   1.083035 S    
C39   H16   1.111305 S    
C17   C18   1.422817 A    
C40   C41   1.534316 S    
C37   H21   1.098927 S    
N8    O11   1.301486 A    
Cu1   Cu2   2.699852 S    
C29   H11   1.061164 S    
Cu1   O7    1.948987 S    
C13   C18   1.418469 A    
N3    N4    1.330371 A    
C34   N5    1.383175 A    
O4    C2    1.308879 A    
C8    C9    1.397992 A    
N9    O14   1.301433 A    
C14   H3    1.083488 S    
O7    C4    1.303319 A    
C31   C32   1.387426 A    
C5    C6    1.398658 A    
C2    C10   1.493507 S    
C23   C28   1.427139 A    
C1    C25   1.469246 S    
C7    C8    1.394809 A    
C35   C37   1.521014 S    
O5    C3    1.294902 A    
C38   H20   1.111851 S    
C38   H19   1.110078 S    
C41   H26   1.112051 S    
C17   C40   1.519205 S    
C5    C10   1.425662 A    
C8    H2    1.083806 S    
C6    H1    1.083705 S    
C26   C27   1.379064 A    
C40   H28   1.108075 S    
N1    N2    1.329337 A    
C42   H24   1.111045 S    
C20   C21   1.386742 A    
C36   N6    1.346885 A    
C32   H14   1.061244 S    
C9    C10   1.423751 A    
C39   H17   1.110762 S    
C21   C22   1.393851 A    
O3    Cu1   1.942332 S    
C37   H22   1.098629 S    
N8    O12   1.300491 A    
C22   C23   1.420660 A    
H10   C27   1.083499 S    
C29   C30   1.388374 A    
C41   H27   1.109693 S    
C32   C33   1.414543 A    
C27   C28   1.401995 A    
C7    C12   1.468565 S    
N9    O13   1.301323 A    
C13   N9    1.439764 S    
O3    C2    1.306941 A    
N7    O9    1.301187 A    
Cu2   N5    2.029711 S    
C11   N3    1.357020 A    
O1    C1    1.291035 A    
C35   C36   1.421831 A    
C13   C14   1.398640 A    
C3    C28   1.467508 S    
H5    C26   1.076508 S    
C29   C34   1.417538 A    
C33   N6    1.379427 A    
C24   C25   1.423828 A    
Cu2   O8    1.942330 S    
C40   H29   1.112387 S    
C16   H4    1.083740 S    
C9    N8    1.433832 S    
N1    C12   1.356754 A    
N2    C11   1.355168 A    
C42   H25   1.110352 S    
C19   C24   1.419193 A    
C6    C7    1.394988 A    
C20   H7    1.082746 S    
O8    C4    1.302191 A    
C30   C31   1.378347 A    
C39   H18   1.110343 S    
C21   H8    1.082944 S    
C22   H9    1.075976 S    
Cu1   O5    1.976256 S    
C23   C24   1.410461 A    
C25   C26   1.394617 A    
O1    Cu1   1.966005 S    
O2    Cu2   1.976256 S    
C4    C15   1.470198 S    
C38   C39   1.527359 S    
O6    C3    1.309156 A    
O4    Cu2   1.948991 S    
C15   C16   1.398221 A    
O2    C1    1.314153 A    
C37   C38   1.541955 S    
C14   C15   1.398346 A    
C31   H13   1.082934 S    
C19   H6    1.080658 S    
C5    N7    1.434968 S    
C16   C17   1.399872 A    
C33   C34   1.434940 A    
C11   C18   1.471362 S    
Cu1   N6    2.028156 S    
N5    C35   1.398039 A    
C41   C42   1.526293 S    
Cu2   O6    1.966005 S    
H15   C36   1.077307 S    
N4    C12   1.357106 A    
N7    O10   1.301086 A    
C42   H23   1.111097 S    
