data_mof_unit_46698.cif
_audit_creation_date              2013-03-05T16:46:09-0500
_audit_creation_method            fapswitch 2.2
_symmetry_space_group_name_H-M    P1
_symmetry_Int_Tables_number       1
_space_group_crystal_system       triclinic
_cell_length_a                    10.762924
_cell_length_b                    10.705763
_cell_length_c                    9.909727
_cell_angle_alpha                 89.237058
_cell_angle_beta                  91.208322
_cell_angle_gamma                 91.400927
_cell_volume                      1141.16266683

loop_
_atom_site_label
_atom_site_type_symbol
_atom_site_description
_atom_site_fract_x
_atom_site_fract_y
_atom_site_fract_z
_atom_type_partial_charge
O1    O     O_R   0.500020 0.316790 0.614690 -0.613012
O2    O     O_R   0.500000 0.316760 0.385350 -0.618386
C1    C     C_R   0.505342 0.259900 0.500194 0.900466
O3    O     O_R   0.316770 0.500030 0.614670 -0.628573
O4    O     O_R   0.316750 0.499990 0.385330 -0.604314
C2    C     C_R   0.260547 0.509507 0.498250 0.896246
Zn1   Zn    Zn3+2 0.500010 0.500020 0.653130 0.947192
Zn2   Zn    Zn3+2 0.499990 0.499980 0.346870 0.952451
O5    O     O_R   0.500000 0.683240 0.614650 -0.629721
O6    O     O_R   0.499980 0.683210 0.385310 -0.636572
O7    O     O_R   0.683250 0.500010 0.614670 -0.617318
O8    O     O_R   0.683230 0.499970 0.385330 -0.627375
C3    C     C_R   0.506930 0.739989 0.499202 0.858542
C4    C     C_R   0.740076 0.507195 0.501622 0.873158
H1    H     H_    0.221130 0.675826 0.885698 0.143218
C5    C     C_R   0.216077 0.720530 0.095821 -0.119168
H2    H     H_    0.264667 0.809516 0.083165 0.136426
C6    C     C_R   0.176023 0.682290 0.223011 -0.145245
H3    H     H_    0.192038 0.743921 0.307802 0.131991
C7    C     C_R   0.113739 0.566324 0.240831 0.014817
C8    C     C_R   0.092084 0.487437 0.128833 0.302988
C9    C     C_R   0.128461 0.530465 0.000948 -0.207365
H4    H     H_    0.109494 0.473127 0.914171 0.164533
C10   C     C_R   0.191192 0.645251 0.984567 -0.162775
C11   C     C_R   0.931761 0.528799 0.379636 -0.173097
H5    H     H_    0.878646 0.527062 0.285652 0.157960
C12   C     C_R   0.872940 0.524740 0.503952 -0.099068
C13   C     C_R   0.942630 0.544154 0.624369 -0.000948
C14   C     C_R   0.070409 0.543163 0.618270 -0.256563
H6    H     H_    0.124835 0.554378 0.709921 0.158594
C15   C     C_R   0.128778 0.530327 0.495265 -0.090224
C16   C     C_R   0.059348 0.537839 0.373783 0.077202
C17   C     C_R   0.893292 0.702384 0.795288 -0.159595
H7    H     H_    0.927014 0.775062 0.727281 0.135043
C18   C     C_R   0.857178 0.734106 0.924723 -0.133313
H8    H     H_    0.861481 0.830725 0.955680 0.147517
C19   C     C_R   0.817281 0.640937 0.014857 -0.154847
H9    H     H_    0.790117 0.665787 0.115301 0.132936
C20   C     C_R   0.810837 0.516098 0.974775 -0.106921
H10   H     H_    0.778738 0.444259 0.044540 0.158041
C21   C     C_R   0.847650 0.483806 0.845522 -0.058729
H11   H     H_    0.845644 0.386562 0.816573 0.153093
C22   C     C_R   0.889340 0.576997 0.755134 0.116687
C23   C     C_R   0.551582 0.062984 0.617305 0.140625
C24   C     C_R   0.529713 0.128940 0.497992 -0.108941
C25   C     C_R   0.536847 0.066764 0.374405 -0.196867
H12   H     H_    0.531620 0.116290 0.278664 0.166395
C26   C     C_R   0.537665 0.937364 0.373860 -0.230621
H13   H     H_    0.531150 0.890115 0.277903 0.160899
C27   C     C_R   0.533207 0.871430 0.497074 -0.101285
C28   C     C_R   0.555726 0.935130 0.617208 0.148181
C29   C     C_3   0.491701 0.923480 0.749130 -0.498895
C30   C     C_3   0.482346 0.063568 0.745212 -0.502487
H14   H     H_    0.399912 0.873591 0.742685 0.209408
H15   H     H_    0.555462 0.892342 0.831611 0.193733
H16   H     H_    0.385041 0.092918 0.726846 0.207998
H17   H     H_    0.536728 0.110369 0.827577 0.208035
C31   C     C_R   0.481879 0.391361 0.073049 0.184698
N1    N     N_R   0.499160 0.499140 0.142800 -0.106045
C32   C     C_R   0.524238 0.606315 0.070720 -0.128135
H18   H     H_    0.543517 0.692685 0.123243 0.136611
C33   C     C_R   0.525320 0.605853 0.927413 -0.111603
H19   H     H_    0.547560 0.690571 0.873207 0.150731
N2    N     N_R   0.499160 0.499180 0.857150 -0.107399
C34   C     C_R   0.479245 0.391647 0.930363 0.198224
C35   C     C_3   0.361186 0.315079 0.930269 -0.492771
C36   C     C_3   0.369197 0.309926 0.082519 -0.429319
H20   H     H_    0.281647 0.366817 0.887717 0.220474
H21   H     H_    0.369224 0.221932 0.888351 0.199017
H22   H     H_    0.292723 0.355777 0.133503 0.242752
H23   H     H_    0.390709 0.215601 0.123246 0.189178
N3    N     N_R   0.039620 0.362554 0.143808 0.180550
O9    O     O_R   0.048104 0.302694 0.258672 -0.402043
O10   O     O_R   0.001202 0.300611 0.038161 -0.437070

loop_
_geom_bond_atom_site_label_1
_geom_bond_atom_site_label_2
_geom_bond_distance
_ccdc_geom_bond_type
C35   H20   1.104181 S    
C21   H11   1.083141 S    
C18   H8    1.082453 S    
C20   C21   1.398929 A    
C24   C25   1.406089 A    
C23   C24   1.387845 A    
Zn1   O7    2.016566 S    
C19   H9    1.081731 S    
C13   C14   1.378182 A    
C18   C19   1.395939 A    
Zn2   N1    2.022248 S    
O4    C2    1.289603 A    
O7    C4    1.288138 A    
C35   H21   1.091434 S    
C32   C33   1.420499 A    
C6    H3    1.083597 S    
O5    C3    1.290890 A    
C33   N2    1.365823 A    
C23   C30   1.483988 S    
C5    H2    1.082597 S    
C4    C12   1.437468 S    
C6    C7    1.407248 A    
C29   H15   1.109246 S    
C11   C16   1.376646 A    
C26   C27   1.403320 A    
C35   C36   1.509751 S    
N1    C32   1.367752 A    
C5    C10   1.391905 A    
C8    C9    1.402894 A    
C21   C22   1.403673 A    
O3    Zn1   2.000783 S    
C29   H14   1.112546 S    
C27   C28   1.393716 A    
C19   C20   1.399009 A    
C25   C26   1.385648 A    
C8    N3    1.445574 S    
C28   C29   1.492959 S    
C17   C22   1.404567 A    
N3    O10   1.301395 A    
C20   H10   1.082474 S    
C30   H17   1.111863 S    
C11   H5    1.082625 S    
C1    C24   1.433181 S    
C32   H18   1.080664 S    
O1    C1    1.297856 A    
C14   H6    1.076796 S    
C31   C34   1.413629 A    
C15   C16   1.405899 A    
Zn2   O8    2.000784 S    
C33   H19   1.072515 S    
C17   H7    1.083444 S    
C23   C28   1.370604 A    
O3    C2    1.295337 A    
H1    C10   1.081911 S    
O8    C4    1.295653 A    
C9    C10   1.396805 A    
C29   C30   1.505514 S    
C7    C16   1.478059 S    
C30   H16   1.111394 S    
Zn1   O5    1.993245 S    
C25   H12   1.081787 S    
C26   H13   1.083181 S    
O1    Zn1   2.003237 S    
Zn2   O6    2.003238 S    
O2    Zn2   1.993243 S    
N3    O9    1.301440 A    
O6    C3    1.288959 A    
O4    Zn2   2.016566 S    
C11   C12   1.396593 A    
C13   C22   1.478222 S    
C36   H22   1.103446 S    
N2    C34   1.367436 A    
O2    C1    1.284358 A    
C31   N1    1.359807 A    
C14   C15   1.392972 A    
C17   C18   1.396680 A    
C2    C15   1.440629 S    
C36   H23   1.110343 S    
Zn1   N2    2.021895 S    
C3    C27   1.428491 S    
C31   C36   1.480095 S    
C7    C8    1.415563 A    
C5    C6    1.393783 A    
C34   C35   1.495181 S    
C12   C13   1.411034 A    
C9    H4    1.076333 S    
