data_mof_unit_9113.cif
_audit_creation_date              2012-12-10T17:09:52-0500
_audit_creation_method            fapswitch 2.2
_symmetry_space_group_name_H-M    P1
_symmetry_Int_Tables_number       1
_space_group_crystal_system       triclinic
_cell_length_a                    10.776677
_cell_length_b                    12.998521
_cell_length_c                    11.675722
_cell_angle_alpha                 99.735431
_cell_angle_beta                  93.480103
_cell_angle_gamma                 90.435722
_cell_volume                      1608.75379997

loop_
_atom_site_label
_atom_site_type_symbol
_atom_type_description
_atom_site_fract_x
_atom_site_fract_y
_atom_site_fract_z
_atom_type_partial_charge
C1    C     C_R   0.498356 0.299106 0.478725 0.843983
C2    C     C_R   0.070070 0.594675 0.563108 0.098158
C3    C     C_R   0.129240 0.507343 0.502241 -0.143849
C4    C     C_R   0.060708 0.423101 0.438630 -0.208693
C5    C     C_R   0.932465 0.421669 0.437195 0.254196
C6    C     C_R   0.871285 0.506423 0.499081 -0.169372
C7    C     C_R   0.501943 0.814257 0.533656 -0.049620
C8    C     C_R   0.497999 0.185735 0.466478 -0.052161
C9    C     C_R   0.496073 0.015411 0.344595 -0.195095
C10   C     C_R   0.495639 0.123502 0.355644 -0.146225
C11   C     C_R   0.500518 0.139216 0.566316 -0.238017
C12   C     C_R   0.262640 0.502303 0.500839 0.806535
C13   C     C_R   0.501015 0.031185 0.555977 0.171152
C14   C     C_R   0.498809 0.968821 0.444238 0.165842
C15   C     C_R   0.499310 0.860802 0.433870 -0.247060
C16   C     C_R   0.504320 0.876459 0.644518 -0.210212
C17   C     C_R   0.503765 0.984566 0.655611 -0.188474
C18   C     C_R   0.389235 0.394845 0.022390 0.021683
C19   C     C_R   0.399744 0.406617 0.144759 0.076454
C20   C     C_R   0.546010 0.545330 0.156585 0.035805
C21   C     C_R   0.538902 0.537060 0.033800 0.034953
C22   C     C_R   0.459464 0.460937 0.965302 0.014921
C23   C     C_R   0.501621 0.700894 0.521300 0.773694
C24   C     C_R   0.453468 0.454020 0.842252 0.064113
C25   C     C_R   0.600258 0.592829 0.856197 0.098807
C26   C     C_R   0.609519 0.603000 0.978183 -0.302485
C27   C     C_R   0.737503 0.501404 0.499548 0.852178
C28   C     C_R   0.138052 0.683286 0.622624 -0.156110
C29   C     C_R   0.076992 0.769366 0.679896 -0.120892
C30   C     C_R   0.947793 0.769385 0.677981 -0.123512
C31   C     C_R   0.878903 0.683305 0.618823 -0.167286
C32   C     C_R   0.938856 0.594468 0.561183 0.055738
Cu1   Cu    Cu3+1 0.509250 0.507730 0.615930 0.952306
Cu2   Cu    Cu3+1 0.490750 0.492270 0.384070 0.972213
H1    H     H_    0.107647 0.356939 0.391694 0.174337
H2    H     H_    0.505416 0.031564 0.741750 0.155357
H3    H     H_    0.493782 0.158235 0.277528 0.173633
H4    H     H_    0.502058 0.186824 0.652194 0.165935
H5    H     H_    0.393031 0.397061 0.787229 0.156799
H6    H     H_    0.654878 0.644131 0.814255 0.122120
H7    H     H_    0.671397 0.662133 0.028598 0.141902
H8    H     H_    0.346036 0.355829 0.188131 0.148884
H9    H     H_    0.607256 0.603263 0.209707 0.126487
H10   H     H_    0.238407 0.687704 0.624247 0.141993
H11   H     H_    0.130128 0.836731 0.724992 0.148401
H12   H     H_    0.900631 0.836781 0.721601 0.144340
H13   H     H_    0.778730 0.688032 0.617482 0.131152
H14   H     H_    0.497691 0.813214 0.347985 0.152345
H15   H     H_    0.506254 0.841689 0.722607 0.160154
H16   H     H_    0.494368 0.968402 0.258463 0.142114
N1    N     N_R   0.523180 0.519350 0.790130 -0.190518
N2    N     N_R   0.476820 0.480650 0.209890 -0.196174
O1    O     O_R   0.506570 0.354460 0.582000 -0.588407
O2    O     O_R   0.490940 0.341410 0.386200 -0.580374
O3    O     O_R   0.327470 0.506530 0.597920 -0.583156
O4    O     O_R   0.311840 0.493480 0.402120 -0.579674
O5    O     O_R   0.509060 0.658590 0.613800 -0.609627
O6    O     O_R   0.493430 0.645540 0.418000 -0.591188
O7    O     O_R   0.688160 0.506520 0.597880 -0.582680
O8    O     O_R   0.672530 0.493470 0.402080 -0.550891
I1    I     I_    0.266971 0.275379 0.931881 -0.410518
Br1   Br    Br    0.845283 0.299229 0.354019 -0.496414

loop_
_geom_bond_atom_site_label_1
_geom_bond_atom_site_label_2
_ccdc_geom_bond_type
Cu1   O3    S    
C11   H4    S    
C2    C28   A    
C9    C14   A    
C25   N1    A    
C18   I1    S    
Cu2   O4    S    
C29   C30   A    
C17   H2    S    
Cu1   N1    S    
C1    C8    S    
C9    C10   A    
Cu2   N2    S    
C31   C32   A    
C19   H8    S    
C13   C17   A    
C30   C31   A    
C1    O2    A    
C21   C22   A    
C24   H5    S    
C24   N1    A    
C7    C15   A    
C2    C3    A    
C4    H1    S    
Cu1   O7    S    
C27   O7    A    
C13   C14   A    
C20   C21   A    
Cu2   O8    S    
C11   C13   A    
C12   O4    A    
C15   H14   S    
C8    C11   A    
C7    C23   S    
C2    C32   A    
C8    C10   A    
C28   C29   A    
C31   H13   S    
C21   C26   A    
Cu1   Cu2   S    
C5    Br1   S    
Cu2   O2    S    
C23   O6    A    
C27   O8    A    
C10   H3    S    
C25   H6    S    
Cu1   O1    S    
C5    C6    A    
Cu2   O6    S    
C22   C24   A    
C12   O3    A    
C16   C17   A    
C3    C4    A    
C20   H9    S    
C16   H15   S    
C28   H10   S    
C20   N2    A    
C18   C19   A    
C23   O5    A    
C1    O1    A    
C14   C15   A    
C7    C16   A    
Cu1   O5    S    
C3    C12   S    
C25   C26   A    
C18   C22   A    
C19   N2    A    
C30   H12   S    
C9    H16   S    
C6    C27   S    
C26   H7    S    
C29   H11   S    
C4    C5    A    
C6    C32   A    
