data_mof_unit_32359.cif
_audit_creation_date              2012-10-26T20:25:37-0400
_audit_creation_method            fapswitch 2.2
_symmetry_space_group_name_H-M    P1
_symmetry_Int_Tables_number       1
_space_group_crystal_system       triclinic
_cell_length_a                    23.451744
_cell_length_b                    10.721021
_cell_length_c                    9.560745
_cell_angle_alpha                 88.136153
_cell_angle_beta                  88.211699
_cell_angle_gamma                 93.970558
_cell_volume                      2395.43765585

loop_
_atom_site_label
_atom_site_type_symbol
_atom_type_description
_atom_site_fract_x
_atom_site_fract_y
_atom_site_fract_z
_atom_type_partial_charge
C1    C     C_R   0.498280 0.259869 0.502123 0.546081
C2    C     C_R   0.703742 0.606635 0.526698 -0.133349
C3    C     C_R   0.237923 0.422361 0.417466 0.186119
C4    C     C_R   0.758954 0.633627 0.469572 0.165412
C5    C     C_R   0.208352 0.480002 0.525801 0.146194
C6    C     C_R   0.791220 0.531457 0.437369 0.151539
C7    C     C_3   0.516048 0.036559 0.623358 0.162843
C8    C     C_3   0.474938 0.962519 0.380599 0.217681
C9    C     C_3   0.548288 0.965565 0.513768 0.174675
C10   C     C_3   0.442390 0.034152 0.490362 0.178064
C11   C     C_3   0.495108 0.876315 0.497362 -0.060123
C12   C     C_R   0.497482 0.739582 0.498637 0.580733
C13   C     C_3   0.496068 0.122891 0.505943 -0.065228
C14   C     C_3   0.461994 0.946862 0.609213 -0.181719
C15   C     C_3   0.528887 0.051689 0.394637 -0.164247
C16   C     C_R   0.391326 0.501951 0.502001 0.548473
C17   C     C_R   0.608833 0.497762 0.497840 0.538466
C18   C     C_3   0.544420 0.563781 0.042453 0.244704
C19   C     C_3   0.455480 0.435855 0.956914 0.244538
C20   C     C_3   0.499418 0.611064 0.946359 0.282431
C21   C     C_3   0.500357 0.388562 0.053671 0.277748
C22   C     C_3   0.544292 0.451675 0.948402 0.241775
C23   C     C_R   0.239239 0.549913 0.625412 0.315631
C24   C     C_3   0.455534 0.547788 0.051460 0.238079
C25   C     C_R   0.889816 0.633185 0.454167 0.485005
C26   C     C_R   0.111849 0.385674 0.571638 0.514884
C27   C     C_R   0.871835 0.422879 0.529061 0.457899
C28   C     C_R   0.126690 0.590054 0.465638 0.475911
C29   C     C_R   0.931399 0.406751 0.534270 0.003309
C30   C     C_R   0.067734 0.603813 0.466813 0.001097
C31   C     C_R   0.970235 0.508509 0.493443 -0.107317
C32   C     C_R   0.029792 0.498791 0.505246 -0.103811
C33   C     C_R   0.949201 0.622092 0.445250 -0.012545
C34   C     C_R   0.760073 0.424269 0.386989 0.328778
C35   C     C_R   0.051388 0.386304 0.558663 -0.004611
C36   C     C_R   0.952658 0.291902 0.578998 0.251438
C37   C     C_R   0.046128 0.718257 0.423523 0.246614
C38   C     C_R   0.011872 0.281159 0.595580 0.275817
C39   C     C_R   0.988019 0.723759 0.398750 0.274761
C40   C     C_R   0.299182 0.567604 0.611005 0.261590
C41   C     C_R   0.700199 0.407532 0.412697 0.264758
C42   C     C_R   0.328563 0.502718 0.507530 -0.040012
C43   C     C_R   0.671994 0.498202 0.489065 -0.033798
C44   C     C_R   0.297524 0.432428 0.411443 -0.110650
Cu1   Cu    Cu3+1 0.500010 0.499990 0.643150 1.157440
Cu2   Cu    Cu3+1 0.499990 0.500010 0.356850 1.174957
H1    H     H_    0.320055 0.385193 0.330896 0.198133
H2    H     H_    0.365507 0.315834 0.125322 0.366143
H3    H     H_    0.614693 0.373518 0.971265 0.358126
H4    H     H_    0.385918 0.628992 0.028466 0.360754
H5    H     H_    0.999551 0.941124 0.690071 0.371901
H6    H     H_    0.925632 0.023091 0.332549 0.379288
H7    H     H_    0.166280 0.802631 0.781114 0.391028
H8    H     H_    0.879110 0.300787 0.191816 0.379138
H9    H     H_    0.363651 0.684965 0.648380 0.304568
H10   H     H_    0.632271 0.291474 0.406093 0.306980
H11   H     H_    0.209010 0.158449 0.393690 0.387651
H12   H     H_    0.682112 0.680711 0.574294 0.204261
H13   H     H_    0.757679 0.889296 0.524133 0.381231
H14   H     H_    0.662299 0.027051 0.353452 0.397800
H15   H     H_    0.333408 0.887072 0.504475 0.348884
H16   H     H_    0.603130 0.216280 0.667314 0.335975
H17   H     H_    0.413556 0.008916 0.037836 0.398865
H18   H     H_    0.434026 0.904208 0.696211 0.159258
H19   H     H_    0.556944 0.093744 0.307500 0.174303
H20   H     H_    0.893189 0.176739 0.518115 0.376958
H21   H     H_    0.104682 0.832734 0.492103 0.376814
H22   H     H_    0.458482 0.743749 0.868583 0.323469
H23   H     H_    0.541119 0.255041 0.130325 0.337310
H24   H     H_    0.644309 0.652886 0.874227 0.353714
N1    N     N_R   0.852134 0.529468 0.469782 -0.376993
N2    N     N_R   0.147267 0.484668 0.521463 -0.375585
N3    N     N_3   0.500040 0.499970 0.858290 -0.288751
N4    N     N_3   0.499960 0.500030 0.141710 -0.295574
O1    O     O_R   0.500030 0.316850 0.620870 -0.444074
O2    O     O_2   0.135898 0.289486 0.634585 -0.337072
O3    O     O_2   0.833839 0.335857 0.589789 -0.391669
O4    O     O_2   0.163753 0.679481 0.405325 -0.375164
O5    O     O_3   0.915999 0.187118 0.603090 -0.525099
O6    O     O_3   0.080694 0.827576 0.408588 -0.534533
O7    O     O_3   0.499035 0.731881 0.888011 -0.559580
O8    O     O_3   0.500504 0.267734 0.112462 -0.557963
O9    O     O_2   0.593607 0.751466 0.184331 -0.123645
O10   O     O_2   0.649663 0.568927 0.149274 -0.259034
O11   O     O_3   0.638149 0.721997 0.937958 -0.382799
O12   O     O_R   0.499970 0.683150 0.379130 -0.415509
O13   O     O_2   0.347464 0.436188 0.867416 -0.225272
O14   O     O_2   0.404669 0.267348 0.789659 -0.163911
O15   O     O_3   0.365955 0.258611 0.046234 -0.376123
O16   O     O_3   0.592220 0.399416 0.890572 -0.611410
O17   O     O_3   0.407275 0.598729 0.109159 -0.592313
O18   O     O_2   0.076637 0.088093 0.548755 -0.183663
O19   O     O_2   0.062658 0.146679 0.792953 -0.162927
O20   O     O_3   0.980677 0.020401 0.677420 -0.383320
O21   O     O_2   0.017120 0.914751 0.210749 -0.144047
O22   O     O_2   0.922789 0.807219 0.194105 -0.183985
O23   O     O_R   0.500000 0.316860 0.379090 -0.484651
O24   O     O_3   0.939587 0.959254 0.397842 -0.410270
O25   O     O_2   0.147367 0.553141 0.803821 -0.245723
O26   O     O_2   0.239630 0.632911 0.888844 -0.126845
O27   O     O_3   0.190360 0.769579 0.705855 -0.471498
O28   O     O_2   0.796009 0.194708 0.356570 -0.183362
O29   O     O_2   0.759289 0.298238 0.149897 -0.152466
O30   O     O_3   0.860346 0.373778 0.227943 -0.515636
O31   O     O_3   0.327335 0.652018 0.695883 -0.608633
O32   O     O_3   0.671274 0.302069 0.362984 -0.607456
O33   O     O_2   0.152715 0.407408 0.235094 -0.176618
O34   O     O_R   0.500000 0.683140 0.620910 -0.486756
O35   O     O_2   0.241359 0.315648 0.165676 -0.177765
O36   O     O_3   0.175355 0.197945 0.356668 -0.390147
O37   O     O_2   0.809294 0.749552 0.238354 -0.132459
O38   O     O_2   0.709333 0.780249 0.279537 -0.141001
O39   O     O_3   0.781626 0.897124 0.436712 -0.367188
O40   O     O_2   0.633144 0.888591 0.673111 -0.161801
O41   O     O_2   0.621511 0.802554 0.442236 -0.272059
O42   O     O_3   0.665969 0.031095 0.456155 -0.437491
O43   O     O_2   0.348027 0.123806 0.609442 -0.202977
O44   O     O_2   0.369142 0.177047 0.361632 -0.224390
O45   O     O_R   0.417890 0.499960 0.620920 -0.471925
O46   O     O_3   0.328280 0.951569 0.430260 -0.396854
O47   O     O_2   0.503678 0.157515 0.862043 -0.195710
O48   O     O_2   0.555777 0.968691 0.873659 -0.094825
O49   O     O_3   0.607668 0.168056 0.755918 -0.394490
O50   O     O_2   0.493095 0.861482 0.132596 -0.186161
O51   O     O_2   0.397890 0.819499 0.245085 -0.216943
O52   O     O_3   0.424004 0.040122 0.130673 -0.364499
O53   O     O_R   0.582110 0.500040 0.379080 -0.462487
O54   O     O_R   0.417870 0.499970 0.379140 -0.452746
O55   O     O_R   0.582130 0.500030 0.620860 -0.458374
O56   O     O_2   0.871263 0.747645 0.465675 -0.345108
S1    S     S_3+6 0.608043 0.652445 0.084918 0.170450
S2    S     S_3+6 0.370464 0.076425 0.473971 0.108932
S3    S     S_3+6 0.545318 0.082567 0.785350 0.148044
S4    S     S_3+6 0.446896 0.915810 0.218066 0.129962
S5    S     S_3+6 0.391834 0.349020 0.909028 0.155407
S6    S     S_3+6 0.034486 0.132179 0.654733 0.162438
S7    S     S_3+6 0.966955 0.852934 0.294355 0.170828
S8    S     S_3+6 0.203124 0.624369 0.762532 0.145427
S9    S     S_3+6 0.793775 0.318024 0.278225 0.141122
S10   S     S_3+6 0.201496 0.337094 0.287384 0.143026
S11   S     S_3+6 0.764579 0.765965 0.350796 0.168945
S12   S     S_3+6 0.618927 0.918271 0.524282 0.072162

loop_
_geom_bond_atom_site_label_1
_geom_bond_atom_site_label_2
_ccdc_geom_bond_type
O51   S4    D    
C39   S7    S    
Cu1   O55   S    
O15   S5    S    
C27   C29   A    
C26   N2    A    
C23   S8    S    
H3    O16   S    
O19   S6    D    
C28   N2    A    
Cu1   Cu2   S    
H20   O5    S    
C29   C36   A    
C33   C39   A    
H9    O31   S    
O35   S10   D    
H22   O7    S    
O40   S12   D    
H8    O30   S    
C19   C21   S    
C7    S3    S    
C5    N2    S    
C11   C14   S    
C19   S5    S    
C23   C40   A    
C15   H19   S    
C34   S9    S    
C9    S12   S    
Cu1   N3    S    
H6    O24   S    
O33   S10   D    
O43   S2    D    
H23   O8    S    
C7    C14   S    
C20   C24   S    
H7    O27   S    
O20   S6    S    
C31   C33   A    
O25   S8    D    
C25   N1    A    
C38   S6    S    
C28   O4    S    
C44   H1    S    
Cu1   O45   S    
C40   C42   A    
O41   S12   D    
C18   N4    S    
O46   S2    S    
C21   C22   S    
H15   O46   S    
C41   C43   A    
C18   S1    S    
O18   S6    D    
C34   C41   A    
C42   C44   A    
C25   O56   S    
H16   O49   S    
C6    N1    S    
C37   O6    S    
C3    C44   A    
O21   S7    D    
C41   O32   S    
O24   S7    S    
C8    S4    S    
C1    O1    A    
C32   C35   A    
O13   S5    D    
Cu2   O53   S    
C19   N3    S    
C35   C38   A    
C4    C6    A    
C10   C14   S    
C16   O45   A    
C1    O23   A    
C4    S11   S    
C12   O34   A    
C17   O53   A    
C3    C5    A    
C17   O55   A    
C21   N4    S    
C36   O5    S    
C6    C34   A    
C30   C37   A    
O38   S11   D    
C2    C4    A    
C17   C43   S    
O48   S3    D    
O9    S1    D    
O29   S9    D    
C16   O54   A    
C26   C35   A    
C26   O2    S    
C31   C32   A    
C5    C23   A    
C2    C43   A    
H13   O39   S    
C14   H18   S    
C2    H12   S    
C22   O16   S    
C9    C11   S    
H10   O32   S    
O26   S8    D    
O42   S12   S    
C8    C10   S    
Cu2   O23   S    
O49   S3    S    
C8    C15   S    
H2    O15   S    
C13   C15   S    
H14   O42   S    
C1    C13   S    
C24   O17   S    
C16   C42   S    
Cu2   N4    S    
C27   N1    A    
Cu2   O54   S    
C7    C9    S    
C18   C22   S    
O22   S7    D    
H21   O6    S    
O14   S5    D    
C27   O3    S    
C10   C13   S    
O27   S8    S    
Cu1   O34   S    
H11   O36   S    
C12   O12   A    
O10   S1    D    
O30   S9    S    
O50   S4    D    
Cu1   O1    S    
O36   S10   S    
C19   C24   S    
C9    C15   S    
C28   C30   A    
C29   C31   A    
O11   S1    S    
C30   C32   A    
C24   N4    S    
C8    C11   S    
C36   C38   A    
O39   S11   S    
C20   N3    S    
C18   C20   S    
O28   S9    D    
C10   S2    S    
H17   O52   S    
O44   S2    D    
O37   S11   D    
H5    O20   S    
H4    O17   S    
C7    C13   S    
C21   O8    S    
O52   S4    S    
C37   C39   A    
C3    S10   S    
C22   N3    S    
O47   S3    D    
C20   O7    S    
H24   O11   S    
C11   C12   S    
C25   C33   A    
C40   O31   S    
Cu2   O12   S    
