data_mof_unit_15145.cif
_audit_creation_date              2012-10-26T20:32:00-0400
_audit_creation_method            fapswitch 2.2
_symmetry_space_group_name_H-M    P1
_symmetry_Int_Tables_number       1
_space_group_crystal_system       triclinic
_cell_length_a                    10.638221
_cell_length_b                    10.800781
_cell_length_c                    9.58463
_cell_angle_alpha                 90.136379
_cell_angle_beta                  89.701494
_cell_angle_gamma                 90.31127
_cell_volume                      1101.2502409

loop_
_atom_site_label
_atom_site_type_symbol
_atom_type_description
_atom_site_fract_x
_atom_site_fract_y
_atom_site_fract_z
_atom_type_partial_charge
C1    C     C_R   0.495097 0.262771 0.499694 0.578445
C2    C     C_R   0.583807 0.939347 0.578670 0.023963
C3    C     C_3   0.615552 0.933453 0.730504 -0.036267
C4    C     C_R   0.259509 0.498217 0.500333 0.572733
C5    C     C_3   0.606516 0.074573 0.731838 -0.241845
C6    C     C_R   0.609573 0.492248 0.072712 0.138832
C7    C     C_R   0.390539 0.500565 0.074601 0.024743
C8    C     C_R   0.390551 0.501209 0.926526 0.006724
C9    C     C_R   0.609488 0.488880 0.925586 0.136070
C10   C     C_3   0.720186 0.573234 0.915887 -0.259528
C11   C     C_3   0.717414 0.581839 0.074073 -0.087942
C12   C     C_3   0.961910 0.558375 0.384400 -0.115706
C13   C     C_R   0.501321 0.737298 0.499790 0.561390
C14   C     C_R   0.740748 0.502876 0.499783 0.574064
C15   C     C_3   0.039468 0.443713 0.616749 -0.126726
C16   C     C_3   0.955669 0.384606 0.502915 -0.121841
C17   C     C_3   0.878038 0.503734 0.499643 0.049734
C18   C     C_3   0.959767 0.562914 0.613439 -0.102075
C19   C     C_3   0.045560 0.617225 0.498077 -0.107498
C20   C     C_2   0.747002 0.888445 0.757998 0.563952
C21   C     C_2   0.683786 0.709053 0.128589 0.636281
C22   C     C_2   0.325915 0.119816 0.305123 0.582719
C23   C     C_3   0.041394 0.439173 0.387358 -0.114280
C24   C     C_3   0.122795 0.498268 0.501088 0.042366
C25   C     C_R   0.577936 0.066157 0.579658 -0.049672
C26   C     C_R   0.492225 0.129255 0.497067 -0.013840
C27   C     C_R   0.419217 0.061421 0.398894 0.030998
C28   C     C_R   0.427423 0.931799 0.398060 -0.138464
C29   C     C_R   0.502271 0.870424 0.495961 -0.024995
Cu1   Cu    Cu3+1 0.499990 0.499980 0.640670 0.961158
Cu2   Cu    Cu3+1 0.500010 0.500020 0.359330 1.022016
H1    H     H_    0.916011 0.289311 0.504828 0.128519
H2    H     H_    0.926034 0.616117 0.705063 0.148111
H3    H     H_    0.085238 0.712514 0.496162 0.135634
H4    H     H_    0.932459 0.608273 0.289709 0.163486
H5    H     H_    0.077076 0.388595 0.294419 0.152245
H6    H     H_    0.368351 0.878241 0.328174 0.175648
H7    H     H_    0.542184 0.886638 0.794817 0.145730
H8    H     H_    0.886155 0.869276 0.898164 0.334779
H9    H     H_    0.725769 0.848394 0.261033 0.353530
H10   H     H_    0.232880 0.112241 0.122204 0.334924
H11   H     H_    0.525404 0.109189 0.794069 0.152275
H12   H     H_    0.696821 0.124016 0.751207 0.157149
H13   H     H_    0.301433 0.502492 0.128831 0.121764
H14   H     H_    0.301544 0.504012 0.873139 0.116184
H15   H     H_    0.804153 0.523374 0.876380 0.099474
H16   H     H_    0.698151 0.660000 0.859713 0.191444
H17   H     H_    0.802118 0.541141 0.122245 0.086841
H18   H     H_    0.073981 0.396675 0.711922 0.119190
N1    N     N_R   0.500800 0.500930 0.147930 -0.225858
N2    N     N_R   0.500800 0.500890 0.852020 -0.230635
O1    O     O_R   0.500000 0.319640 0.618810 -0.507061
O2    O     O_R   0.798304 0.904514 0.890747 -0.679262
O3    O     O_2   0.592274 0.763773 0.083146 -0.491273
O4    O     O_R   0.757833 0.763947 0.231781 -0.692779
O5    O     O_2   0.269835 0.213061 0.341657 -0.533702
O6    O     O_R   0.298644 0.064922 0.176298 -0.693809
O7    O     O_R   0.500010 0.319680 0.381230 -0.473349
O8    O     O_R   0.316850 0.499950 0.618770 -0.523784
O9    O     O_R   0.316860 0.499990 0.381190 -0.503333
O10   O     O_R   0.499990 0.680320 0.618770 -0.503622
O11   O     O_R   0.500000 0.680360 0.381190 -0.474199
O12   O     O_R   0.683140 0.500010 0.618810 -0.511312
O13   O     O_R   0.683150 0.500050 0.381230 -0.505054
O14   O     O_2   0.807959 0.837416 0.665997 -0.533404

loop_
_geom_bond_atom_site_label_1
_geom_bond_atom_site_label_2
_ccdc_geom_bond_type
Cu2   O9    S    
C12   C17   S    
C15   C18   S    
C22   O5    D    
Cu1   N2    S    
C10   H15   S    
C16   H1    S    
C9    C10   S    
C20   O14   D    
C6    C11   S    
C14   C17   S    
Cu1   Cu2   S    
C23   C24   S    
H9    O4    S    
C14   O13   A    
Cu1   O8    S    
C4    O9    A    
C22   O6    S    
C2    C3    S    
C5    H12   S    
H10   O6    S    
C3    C20   S    
C7    H13   S    
C6    N1    A    
C12   H4    S    
C7    N1    A    
Cu2   O11   S    
C11   H17   S    
H8    O2    S    
C28   H6    S    
C6    C9    A    
C2    C29   A    
C5    C25   S    
C14   O12   A    
Cu2   O7    S    
C13   C29   S    
C28   C29   A    
C1    O1    A    
C12   C19   S    
C17   C18   S    
C16   C23   S    
C22   C27   S    
C15   H18   S    
C26   C27   A    
C21   O3    D    
C4    C24   S    
C18   H2    S    
C1    C26   S    
C16   C17   S    
C10   C11   S    
Cu2   N1    S    
C15   C16   S    
C2    C25   A    
C7    C8    A    
C13   O10   A    
C4    O8    A    
C5    H11   S    
C23   H5    S    
Cu1   O10   S    
C8    N2    A    
C27   C28   A    
C21   O4    S    
C18   C19   S    
Cu1   O1    S    
C8    H14   S    
C15   C24   S    
C12   C23   S    
C25   C26   A    
C1    O7    A    
C10   H16   S    
C19   C24   S    
Cu2   O13   S    
C11   C21   S    
C13   O11   A    
Cu1   O12   S    
C3    H7    S    
C20   O2    S    
C3    C5    S    
C19   H3    S    
C9    N2    A    
