data_mof_unit_16013.cif
_audit_creation_date              2012-12-11T15:54:36-0500
_audit_creation_method            fapswitch 2.2
_symmetry_space_group_name_H-M    P1
_symmetry_Int_Tables_number       1
_space_group_crystal_system       triclinic
_cell_length_a                    6.927465
_cell_length_b                    14.51859
_cell_length_c                    16.125652
_cell_angle_alpha                 90.057963
_cell_angle_beta                  89.748917
_cell_angle_gamma                 90.164495
_cell_volume                      1621.84702282

loop_
_atom_site_label
_atom_site_type_symbol
_atom_type_description
_atom_site_fract_x
_atom_site_fract_y
_atom_site_fract_z
_atom_type_partial_charge
O1    O     O_R   0.638180 0.333920 0.163320 -0.540601
O2    O     O_R   0.361820 0.666080 0.836680 -0.540601
O3    O     O_R   0.308470 0.344960 0.336080 -0.551672
O4    O     O_R   0.691530 0.655040 0.663920 -0.551672
O5    O     O_R   0.138140 0.166110 0.336680 -0.521694
O6    O     O_R   0.861860 0.833890 0.663320 -0.521694
C1    C     C_R   0.477422 0.367124 0.365116 0.669363
C2    C     C_R   0.522578 0.632876 0.634884 0.669363
O7    O     O_R   0.308460 0.344950 0.163930 -0.536665
O8    O     O_R   0.691540 0.655050 0.836070 -0.536665
O9    O     O_R   0.138140 0.166100 0.163310 -0.524525
O10   O     O_R   0.861860 0.833900 0.836690 -0.524525
C3    C     C_R   0.478309 0.365750 0.133985 0.690890
C4    C     C_R   0.521690 0.634250 0.866015 0.690889
O11   O     O_R   0.638180 0.333930 0.336700 -0.550419
O12   O     O_R   0.361820 0.666070 0.663300 -0.550419
O13   O     O_3   0.471670 0.191340 0.250000 -0.359646
O14   O     O_3   0.528330 0.808660 0.750000 -0.359646
V1    V     V_3+5 0.196830 0.260900 0.250000 1.481712
V2    V     V_3+5 0.803170 0.739100 0.750000 1.481712
O15   O     O_R   0.808420 0.155070 0.163920 -0.546830
O16   O     O_R   0.191580 0.844930 0.836080 -0.546830
C5    C     C_R   0.977518 0.132954 0.134837 0.821579
C6    C     C_R   0.022482 0.867046 0.865163 0.821580
O17   O     O_R   0.808420 0.155080 0.336070 -0.543615
O18   O     O_R   0.191580 0.844920 0.663930 -0.543615
C7    C     C_R   0.977053 0.132026 0.363867 0.815941
C8    C     C_R   0.022947 0.867974 0.636133 0.815941
V3    V     V_3+5 0.696830 0.239130 0.250000 1.466949
V4    V     V_3+5 0.303170 0.760870 0.750000 1.466948
O19   O     O_3   0.971850 0.308690 0.250010 -0.381905
O20   O     O_3   0.028150 0.691310 0.749990 -0.381905
H1    H     H_    0.214949 0.828989 0.263521 0.148161
H2    H     H_    0.785051 0.171011 0.736479 0.148161
C9    C     C_R   0.862756 0.180943 0.529402 -0.158200
C10   C     C_R   0.137244 0.819057 0.470598 -0.158200
C11   C     C_R   0.809647 0.208867 0.608709 -0.220027
C12   C     C_R   0.190353 0.791133 0.391291 -0.220027
C13   C     C_R   0.824642 0.148297 0.674744 -0.156315
C14   C     C_R   0.175358 0.851703 0.325256 -0.156315
C15   C     C_R   0.892125 0.058965 0.662349 0.589270
C16   C     C_R   0.107875 0.941035 0.337651 0.589270
C17   C     C_R   0.944710 0.027510 0.581672 -0.035008
C18   C     C_R   0.055290 0.972490 0.418328 -0.035008
C19   C     C_R   0.930454 0.090487 0.513934 -0.005408
C20   C     C_R   0.069546 0.909513 0.486065 -0.005408
C21   C     C_R   0.013713 0.936511 0.567396 -0.153247
C22   C     C_R   0.986287 0.063489 0.432604 -0.153247
H3    H     H_    0.850656 0.231623 0.480611 0.110480
H4    H     H_    0.149344 0.768377 0.519389 0.110480
H5    H     H_    0.758064 0.278289 0.619074 0.147013
H6    H     H_    0.241936 0.721711 0.380926 0.147013
C23   C     C_R   0.179771 0.973379 0.968493 -0.153707
C24   C     C_R   0.820229 0.026621 0.031507 -0.153707
H7    H     H_    0.320782 0.953838 0.945348 0.117228
H8    H     H_    0.679218 0.046162 0.054652 0.117228
C25   C     C_R   0.168660 0.037039 0.033637 -0.109894
C26   C     C_R   0.831340 0.962961 0.966363 -0.109894
H9    H     H_    0.301646 0.064736 0.058524 0.119741
H10   H     H_    0.698354 0.935264 0.941476 0.119741
C27   C     C_R   0.988733 0.064546 0.066079 -0.027523
C28   C     C_R   0.011267 0.935454 0.933921 -0.027523
C29   C     C_R   0.321322 0.478389 0.464779 -0.158997
C30   C     C_R   0.678678 0.521611 0.535221 -0.158997
H11   H     H_    0.181229 0.462962 0.438584 0.115080
H12   H     H_    0.818771 0.537038 0.561415 0.115080
C31   C     C_R   0.332577 0.542163 0.529811 -0.156063
C32   C     C_R   0.667423 0.457837 0.470188 -0.156063
H13   H     H_    0.200589 0.574083 0.551523 0.113380
H14   H     H_    0.799411 0.425917 0.448477 0.113380
C33   C     C_R   0.511395 0.564605 0.566015 -0.039155
C34   C     C_R   0.488605 0.435395 0.433985 -0.039155
C35   C     C_R   0.337772 0.494217 0.051501 -0.174076
C36   C     C_R   0.662228 0.505783 0.948499 -0.174076
H15   H     H_    0.211955 0.491291 0.091714 0.135259
H16   H     H_    0.788045 0.508709 0.908286 0.135259
C37   C     C_R   0.344294 0.560306 0.988313 -0.032897
C38   C     C_R   0.655706 0.439694 0.011687 -0.032897
C39   C     C_R   0.508159 0.566523 0.935322 -0.096445
C40   C     C_R   0.491840 0.433476 0.064678 -0.096444
C41   C     C_1   0.182140 0.622263 0.981965 0.291050
N1    N     N_1   0.051877 0.671689 0.977238 -0.374313
C42   C     C_1   0.817860 0.377737 0.018035 0.291051
N2    N     N_1   0.948123 0.328311 0.022762 -0.374313
F1    F     F_    0.908344 0.005408 0.730712 -0.724250
F2    F     F_    0.091656 0.994592 0.269288 -0.724250

loop_
_geom_bond_atom_site_label_1
_geom_bond_atom_site_label_2
_ccdc_geom_bond_type
C7    C22   S    
C26   C28   A    
V4    O20   S    
C29   H11   S    
C8    C21   S    
O13   V3    S    
O4    C2    A    
V1    O19   S    
C41   N1    T    
C13   C15   A    
O9    V1    S    
C36   H16   S    
C30   C32   A    
C9    C11   A    
O3    C1    A    
C24   C26   A    
C11   H5    S    
C38   C40   A    
C25   H9    S    
C12   H6    S    
O12   V4    S    
C30   C33   A    
O7    C3    A    
O5    C7    A    
C38   C42   S    
O7    V1    S    
O6    C8    A    
O8    V2    S    
C9    H3    S    
O3    V1    S    
C16   F2    S    
C31   C33   A    
C14   C16   A    
C3    C40   S    
C2    O12   A    
V3    O19   S    
C15   C17   A    
C16   C18   A    
C18   C20   A    
O11   V3    S    
C24   H8    S    
C23   H7    S    
O17   V3    S    
C29   C31   A    
H1    C14   S    
H2    C13   S    
O8    C4    A    
C1    C34   S    
C23   C25   A    
C1    O11   A    
O15   V3    S    
C31   H13   S    
C30   H12   S    
C23   C28   A    
C42   N2    T    
C37   C41   S    
C32   C34   A    
O10   V2    S    
O1    V3    S    
C37   C39   A    
C4    C39   S    
C10   C20   A    
C17   C19   A    
O14   V4    S    
O18   V4    S    
C36   C39   A    
O15   C5    A    
O16   C6    A    
O1    C3    A    
C35   H15   S    
C9    C19   A    
C10   H4    S    
V2    O20   S    
C19   C22   A    
C20   C21   A    
C2    C33   S    
C6    C28   S    
O16   V4    S    
C25   C27   A    
O5    V1    S    
C24   C27   A    
O17   C7    A    
O6    V2    S    
O10   C6    A    
O18   C8    A    
O2    V4    S    
C10   C12   A    
C11   C13   A    
C12   C14   A    
C17   C21   A    
O9    C5    A    
O13   V1    S    
C35   C40   A    
O14   V2    S    
O2    C4    A    
O4    V2    S    
C5    C27   S    
C29   C34   A    
C32   H14   S    
C36   C38   A    
C35   C37   A    
C26   H10   S    
C15   F1    S    
C18   C22   A    
