data_mof_unit_64357.cif
_audit_creation_date              2013-03-05T16:27:52-0500
_audit_creation_method            fapswitch 2.2
_symmetry_space_group_name_H-M    P1
_symmetry_Int_Tables_number       1
_space_group_crystal_system       triclinic
_cell_length_a                    39.106405
_cell_length_b                    32.231716
_cell_length_c                    21.6448
_cell_angle_alpha                 89.999395
_cell_angle_beta                  55.456399
_cell_angle_gamma                 89.99975
_cell_volume                      22472.4948291

loop_
_atom_site_label
_atom_site_type_symbol
_atom_site_description
_atom_site_fract_x
_atom_site_fract_y
_atom_site_fract_z
_atom_type_partial_charge
O1    O     O_R   0.940150 0.534620 0.559830 -0.570014
O2    O     O_R   0.059850 0.534620 0.440170 -0.569326
O3    O     O_R   0.440150 0.034620 0.559830 -0.569865
O4    O     O_R   0.559850 0.034620 0.440170 -0.569450
O5    O     O_R   0.940110 0.465340 0.559870 -0.573559
O6    O     O_R   0.059890 0.465340 0.440130 -0.574171
O7    O     O_R   0.440110 0.965340 0.559870 -0.573718
O8    O     O_R   0.559890 0.965340 0.440130 -0.574104
C1    C     C_R   0.920387 0.499991 0.579467 0.836657
C2    C     C_R   0.079613 0.499991 0.420533 0.836675
C3    C     C_R   0.420387 0.999991 0.579467 0.836677
C4    C     C_R   0.579613 0.999991 0.420533 0.836660
O9    O     O_R   0.999990 0.534620 0.408860 -0.560996
O10   O     O_R   0.000010 0.534620 0.591140 -0.561021
O11   O     O_R   0.499990 0.034620 0.408860 -0.560968
O12   O     O_R   0.500010 0.034620 0.591140 -0.560921
O13   O     O_R   0.999950 0.465340 0.408890 -0.589869
O14   O     O_R   0.000050 0.465340 0.591110 -0.589851
O15   O     O_R   0.499950 0.965340 0.408890 -0.589936
O16   O     O_R   0.500050 0.965340 0.591110 -0.589996
C5    C     C_R   0.001001 0.499927 0.378795 0.893154
C6    C     C_R   0.998993 0.499927 0.621210 0.893162
C7    C     C_R   0.500998 0.999927 0.378799 0.893173
C8    C     C_R   0.499004 0.999927 0.621199 0.893152
Cu1   Cu    Cu3+1 1.000000 0.540990 0.500000 1.061387
Cu2   Cu    Cu3+1 0.500000 0.040990 0.500000 1.061322
Cu3   Cu    Cu3+1 1.000000 0.458960 0.500000 1.037450
Cu4   Cu    Cu3+1 0.500000 0.958960 0.500000 1.037263
C9    C     C_1   0.000000 0.375734 0.999993 -0.017868
C10   C     C_1   0.500000 0.875734 0.000000 -0.017684
C11   C     C_1   0.500000 0.624015 0.999999 -0.142359
C12   C     C_1   1.000000 0.124014 0.999999 -0.142341
C13   C     C_R   0.000000 0.293487 0.999994 0.120737
C14   C     C_R   0.500000 0.793488 1.000000 0.120144
C15   C     C_R   0.994341 0.271622 0.950428 -0.131625
C16   C     C_R   0.005659 0.271622 0.049561 -0.131619
C17   C     C_R   0.500360 0.771623 0.943641 -0.132026
C18   C     C_R   0.499639 0.771622 0.056359 -0.132045
C19   C     C_3   0.956067 0.515419 0.333893 0.679919
C20   C     C_3   0.043946 0.515365 0.666085 0.680225
C21   C     C_3   0.456078 0.015456 0.333878 0.680025
C22   C     C_3   0.543916 0.015474 0.666130 0.680239
C23   C     C_3   0.952893 0.510731 0.264402 0.478902
C24   C     C_3   0.047117 0.510671 0.735579 0.478936
C25   C     C_3   0.452901 0.010766 0.264390 0.478791
C26   C     C_3   0.547095 0.010784 0.735616 0.478721
H1    H     H_    0.033766 0.559380 0.271468 0.213106
H2    H     H_    0.966310 0.559426 0.728453 0.213085
H3    H     H_    0.533814 0.059350 0.271422 0.212940
H4    H     H_    0.466162 0.059335 0.728600 0.212890
H5    H     H_    0.021437 0.563252 0.180529 0.229400
H6    H     H_    0.978649 0.563285 0.819380 0.229430
H7    H     H_    0.521489 0.063231 0.180475 0.229052
H8    H     H_    0.478485 0.063221 0.819549 0.229035
C27   C     C_3   0.034464 0.527844 0.249993 -0.506535
C28   C     C_3   0.965570 0.527892 0.749974 -0.506637
C29   C     C_3   0.534485 0.027814 0.249973 -0.506681
C30   C     C_3   0.465504 0.027798 0.750036 -0.506830
C31   C     C_3   0.007257 0.454975 0.278668 -0.440157
C32   C     C_3   0.992684 0.454984 0.721399 -0.440165
C33   C     C_3   0.507216 0.954968 0.278711 -0.440089
C34   C     C_3   0.492804 0.954964 0.721270 -0.440072
C35   C     C_3   0.999660 0.499757 0.311498 -0.100029
C36   C     C_3   0.000335 0.499757 0.688507 -0.100028
C37   C     C_3   0.499656 0.999757 0.311501 -0.099982
C38   C     C_3   0.500345 0.999756 0.688497 -0.099980
H9    H     H_    0.035125 0.441078 0.272291 0.211885
H10   H     H_    0.964812 0.441112 0.727762 0.211984
H11   H     H_    0.535069 0.941045 0.272353 0.211997
H12   H     H_    0.464956 0.941030 0.727622 0.212067
H13   H     H_    0.980871 0.435239 0.321127 0.245062
H14   H     H_    0.019054 0.435214 0.678996 0.244859
H15   H     H_    0.480810 0.935256 0.321186 0.244982
H16   H     H_    0.519217 0.935265 0.678785 0.244924
C39   C     C_3   0.997958 0.498813 0.191564 -0.224895
C40   C     C_3   0.002036 0.498814 0.808442 -0.224769
C41   C     C_3   0.497957 0.998812 0.191565 -0.224754
C42   C     C_3   0.502043 0.998812 0.808435 -0.224728
C43   C     C_3   0.030267 0.531076 0.183739 -0.471452
C44   C     C_3   0.969774 0.531123 0.816222 -0.471676
C45   C     C_3   0.530292 0.031049 0.183715 -0.471798
C46   C     C_3   0.469695 0.031035 0.816296 -0.471832
C47   C     C_3   0.011185 0.453913 0.202584 0.534900
C48   C     C_3   0.988731 0.453937 0.797504 0.534959
C49   C     C_3   0.511148 0.953901 0.202623 0.535155
C50   C     C_3   0.488872 0.953895 0.797357 0.535155
H17   H     H_    0.065294 0.514789 0.230877 0.238172
H18   H     H_    0.934722 0.514882 0.769108 0.238168
H19   H     H_    0.565303 0.014732 0.230871 0.238155
H20   H     H_    0.434691 0.014703 0.769133 0.238117
H21   H     H_    0.061401 0.526447 0.130830 0.257744
H22   H     H_    0.938635 0.526538 0.869140 0.257666
H23   H     H_    0.561424 0.026392 0.130813 0.257714
H24   H     H_    0.438565 0.026364 0.869196 0.257690
H25   H     H_    0.786985 0.493460 0.809577 0.170650
H26   H     H_    0.212999 0.488122 0.191549 0.170987
H27   H     H_    0.286988 0.992028 0.809340 0.170719
H28   H     H_    0.713002 0.988815 0.191351 0.170936
C51   C     C_R   0.727557 0.496298 0.825717 -0.150605
C52   C     C_R   0.272434 0.493285 0.174922 -0.150616
C53   C     C_R   0.227559 0.995490 0.825582 -0.150688
C54   C     C_R   0.772435 0.993676 0.174810 -0.150678
H29   H     H_    0.710621 0.493402 0.886103 0.161443
H30   H     H_    0.289363 0.488038 0.115029 0.161502
H31   H     H_    0.210624 0.991963 0.885865 0.161445
H32   H     H_    0.789366 0.988734 0.114830 0.161478
C55   C     C_R   0.706244 0.499984 0.791466 0.103007
C56   C     C_R   0.293756 0.499976 0.208541 0.103088
C57   C     C_R   0.206244 0.999981 0.791465 0.103007
C58   C     C_R   0.793756 0.999977 0.208539 0.103063
C59   C     C_R   0.728572 0.503709 0.713303 -0.262513
C60   C     C_R   0.271438 0.506722 0.286070 -0.262631
C61   C     C_R   0.228570 0.004517 0.713435 -0.262495
C62   C     C_R   0.771436 0.006331 0.286179 -0.262562
H33   H     H_    0.711917 0.506557 0.687060 0.148048
H34   H     H_    0.288099 0.511891 0.311824 0.147974
H35   H     H_    0.211914 0.007987 0.687295 0.148083
H36   H     H_    0.788096 0.011199 0.312019 0.148041
C63   C     C_R   0.772407 0.503774 0.668892 0.443690
C64   C     C_R   0.227603 0.506825 0.330473 0.443414
C65   C     C_R   0.272405 0.004592 0.669026 0.443608
C66   C     C_R   0.727601 0.006429 0.330584 0.443447
C67   C     C_R   0.793485 0.500056 0.703991 0.100275
C68   C     C_R   0.206515 0.500080 0.296009 0.100095
C69   C     C_R   0.293485 0.000063 0.703992 0.100232
C70   C     C_R   0.706515 0.000077 0.296008 0.100058
C71   C     C_R   0.770953 0.496335 0.782198 -0.250655
C72   C     C_R   0.229038 0.493339 0.218437 -0.250638
C73   C     C_R   0.270955 0.995531 0.782064 -0.250701
C74   C     C_R   0.729039 0.993727 0.218325 -0.250611
C75   C     C_1   0.661448 0.499970 0.836593 -0.016772
C76   C     C_1   0.338552 0.499965 0.163409 -0.016793
C77   C     C_1   0.161448 0.999968 0.836593 -0.016793
C78   C     C_1   0.838552 0.999966 0.163408 -0.016794
C79   C     C_1   0.838311 0.500034 0.660125 0.049795
C80   C     C_1   0.161689 0.500041 0.339876 0.049699
C81   C     C_1   0.338311 0.000036 0.660125 0.049728
C82   C     C_1   0.661689 0.000040 0.339875 0.049675
C83   C     C_1   0.875779 0.500015 0.623391 -0.111409
C84   C     C_1   0.124221 0.500016 0.376610 -0.111411
C85   C     C_1   0.375779 0.000016 0.623391 -0.111468
C86   C     C_1   0.624221 0.000016 0.376609 -0.111435
C87   C     C_1   0.623956 0.499963 0.874627 -0.146030
C88   C     C_1   0.376044 0.499961 0.125373 -0.146037
C89   C     C_1   0.123956 0.999962 0.874627 -0.146030
C90   C     C_1   0.876044 0.999961 0.125373 -0.146032
C91   C     C_1   0.500000 0.661502 0.999999 -0.041889
C92   C     C_1   1.000000 0.161502 0.999998 -0.041802
O17   O     O_R   0.965330 0.559800 0.034660 -0.569446
O18   O     O_R   0.034670 0.559800 0.965340 -0.569405
O19   O     O_R   0.465330 0.059800 0.034660 -0.569331
O20   O     O_R   0.534670 0.059800 0.965340 -0.569311
C93   C     C_R   0.000000 0.579515 1.000000 0.846208
C94   C     C_R   0.500000 0.079515 0.000000 0.846225
O21   O     O_R   0.965350 0.499950 0.125800 -0.558758
O22   O     O_R   0.034650 0.499950 0.874200 -0.558727
O23   O     O_R   0.465350 0.999950 0.125800 -0.558714
O24   O     O_R   0.534650 0.999950 0.874200 -0.558710
O25   O     O_R   0.034620 0.500000 0.056540 -0.572960
O26   O     O_R   0.965380 0.500000 0.943460 -0.572937
O27   O     O_R   0.534620 0.000000 0.056540 -0.573087
O28   O     O_R   0.465380 0.000000 0.943460 -0.573118
C95   C     C_R   0.999487 0.500047 0.120906 0.910052
C96   C     C_R   0.000512 0.500047 0.879095 0.909856
C97   C     C_R   0.499487 0.000045 0.120906 0.910021
C98   C     C_R   0.500513 0.000045 0.879094 0.910064
Cu5   Cu    Cu3+1 0.958960 0.499950 0.041020 1.118819
Cu6   Cu    Cu3+1 0.041040 0.499950 0.958980 1.118798
Cu7   Cu    Cu3+1 0.458960 0.999950 0.041020 1.118793
Cu8   Cu    Cu3+1 0.541040 0.999950 0.958980 1.118849
O29   O     O_R   0.965350 0.440100 0.034640 -0.552523
O30   O     O_R   0.034650 0.440100 0.965360 -0.552608
O31   O     O_R   0.465350 0.940100 0.034640 -0.552511
O32   O     O_R   0.534650 0.940100 0.965360 -0.552499
C99   C     C_1   0.000000 0.338263 0.999993 0.002683
C100  C     C_1   0.500000 0.838263 0.000000 0.002554
C101  C     C_R   0.000000 0.420352 0.999994 0.934715
C102  C     C_R   0.500000 0.920352 0.000000 0.934960
O33   O     O_R   0.499940 0.440170 0.947210 -0.571711
O34   O     O_R   0.500060 0.440170 0.052790 -0.571601
O35   O     O_R   0.999940 0.940170 0.947210 -0.571688
O36   O     O_R   0.000060 0.940170 0.052790 -0.571622
C103  C     C_R   0.500000 0.420721 0.000000 0.808866
C104  C     C_R   1.000000 0.920721 0.000000 0.808866
O37   O     O_R   0.559820 0.500010 0.887440 -0.573342
O38   O     O_R   0.440180 0.500010 0.112560 -0.573318
O39   O     O_R   0.059820 0.000010 0.887440 -0.573227
O40   O     O_R   0.940180 0.000010 0.112560 -0.573210
O41   O     O_R   0.559830 0.499950 0.992950 -0.573436
O42   O     O_R   0.440170 0.499950 0.007050 -0.573415
O43   O     O_R   0.059830 0.999950 0.992950 -0.573533
O44   O     O_R   0.940170 0.999950 0.007050 -0.573518
C105  C     C_R   0.579312 0.499965 0.920261 0.811155
C106  C     C_R   0.420688 0.499965 0.079739 0.811116
C107  C     C_R   0.079312 0.999965 0.920261 0.811121
C108  C     C_R   0.920688 0.999965 0.079739 0.811100
Cu9   Cu    Cu3+1 0.499970 0.500020 0.937550 1.005216
Cu10  Cu    Cu3+1 0.500030 0.500020 0.062450 1.005222
Cu11  Cu    Cu3+1 0.999970 0.000020 0.937550 1.005293
Cu12  Cu    Cu3+1 0.000030 0.000020 0.062450 1.005296
O45   O     O_R   0.500010 0.559860 0.947320 -0.574238
O46   O     O_R   0.499990 0.559860 0.052680 -0.574347
O47   O     O_R   0.000010 0.059860 0.947320 -0.574224
O48   O     O_R   0.999990 0.059860 0.052680 -0.574291
C109  C     C_R   0.500000 0.579368 1.000000 0.811810
C110  C     C_R   1.000000 0.079368 1.000000 0.811759
C111  C     C_R   0.507881 0.272189 0.937355 -0.206501
C112  C     C_R   0.492119 0.272188 0.062647 -0.206433
C113  C     C_R   0.006974 0.772189 0.938012 -0.206415
C114  C     C_R   0.993027 0.772189 0.061988 -0.206370
H37   H     H_    0.514286 0.289354 0.888796 0.193792
H38   H     H_    0.485714 0.289352 0.111205 0.193818
H39   H     H_    0.012681 0.789354 0.889948 0.193838
H40   H     H_    0.987320 0.789352 0.110052 0.193851
C115  C     C_R   0.500000 0.293889 0.000001 0.016366
C116  C     C_R   0.000000 0.793889 0.000000 0.016227
C117  C     C_R   0.992435 0.728587 0.063374 0.299616
C118  C     C_R   0.007565 0.728588 0.936626 0.299633
C119  C     C_R   0.491515 0.228587 0.064023 0.299231
C120  C     C_R   0.508485 0.228588 0.935977 0.299233
C121  C     C_R   0.000000 0.706484 1.000000 -0.118865
C122  C     C_R   0.500000 0.206484 0.000000 -0.118916
C123  C     C_1   0.500000 0.338658 0.000001 0.016878
C124  C     C_1   0.000000 0.838658 0.000000 0.016954
C125  C     C_1   0.000000 0.661543 0.000000 0.135884
C126  C     C_1   0.500000 0.161543 0.000000 0.135491
C127  C     C_1   0.000000 0.624077 1.000000 -0.023522
C128  C     C_1   0.500000 0.124077 0.000000 -0.023505
C129  C     C_1   0.500000 0.376119 0.000001 -0.142060
C130  C     C_1   0.000000 0.876120 0.000000 -0.142031
H41   H     H_    0.010064 0.288147 0.088153 0.176991
H42   H     H_    0.989937 0.288146 0.911835 0.177041
H43   H     H_    0.499358 0.788147 0.100238 0.178059
H44   H     H_    0.500642 0.788149 0.899761 0.178068
C131  C     C_R   0.499640 0.728171 0.056357 -0.156170
C132  C     C_R   0.500360 0.728172 0.943642 -0.156084
C133  C     C_R   0.005663 0.228171 0.049557 -0.156048
C134  C     C_R   0.994337 0.228170 0.950434 -0.155990
H45   H     H_    0.499360 0.711655 0.100238 0.154395
H46   H     H_    0.500640 0.711657 0.899761 0.154438
H47   H     H_    0.010073 0.211656 0.088146 0.154150
H48   H     H_    0.989927 0.211655 0.911847 0.154186
C135  C     C_R   0.500000 0.706296 0.999999 0.137035
C136  C     C_R   0.000000 0.206296 0.999996 0.137147
O49   O     O_3   0.949708 0.556901 0.360034 -0.676451
H49   H     H_    0.968078 0.575667 0.317454 0.340046
O50   O     O_3   0.050356 0.556838 0.639891 -0.675948
H50   H     H_    0.032016 0.575628 0.682448 0.340011
O51   O     O_3   0.449754 0.056945 0.359976 -0.676270
H51   H     H_    0.468140 0.075693 0.317377 0.339929
O52   O     O_3   0.550223 0.056966 0.640051 -0.675935
H52   H     H_    0.531828 0.075706 0.682658 0.339897
N1    N     N_R   0.054392 0.444269 0.139632 0.128587
O53   O     O_R   0.086062 0.454724 0.141172 -0.378342
O54   O     O_R   0.061366 0.423520 0.081917 -0.304036
N2    N     N_R   0.945500 0.444381 0.860455 0.128677
O55   O     O_R   0.913863 0.454843 0.858818 -0.378209
O56   O     O_R   0.938470 0.423669 0.918243 -0.303877
N3    N     N_R   0.554348 0.944226 0.139681 0.128714
O57   O     O_R   0.586023 0.954634 0.141236 -0.378187
O58   O     O_R   0.561310 0.923503 0.081952 -0.303233
N4    N     N_R   0.445677 0.944202 0.860296 0.128719
O59   O     O_R   0.413997 0.954592 0.858743 -0.378098
O60   O     O_R   0.438724 0.923482 0.918022 -0.303243
O61   O     O_3   0.795093 0.507407 0.591766 -0.697202
H53   H     H_    0.775654 0.509711 0.576315 0.336820
O62   O     O_3   0.204926 0.513403 0.406980 -0.696844
H54   H     H_    0.224370 0.517584 0.422037 0.337010
O63   O     O_3   0.295089 0.009015 0.592031 -0.697126
H55   H     H_    0.275649 0.011822 0.576663 0.336887
O64   O     O_3   0.704923 0.012625 0.407199 -0.696876
H56   H     H_    0.724366 0.016564 0.422325 0.336995
N5    N     N_R   0.015805 0.707567 0.870667 0.138490
O65   O     O_R   0.006188 0.725158 0.828312 -0.322755
O66   O     O_R   0.036936 0.673168 0.847873 -0.295858
N6    N     N_R   0.984195 0.707565 0.129333 0.138511
O67   O     O_R   0.993814 0.725153 0.171686 -0.322686
O68   O     O_R   0.963060 0.673168 0.152130 -0.295768
N7    N     N_R   0.517677 0.207566 0.869362 0.138720
O69   O     O_R   0.508926 0.225155 0.825781 -0.322269
O70   O     O_R   0.538826 0.173171 0.847328 -0.295049
N8    N     N_R   0.482323 0.207564 0.130638 0.138724
O71   O     O_R   0.491074 0.225153 0.174219 -0.322209
O72   O     O_R   0.461175 0.173168 0.152672 -0.295112
O73   O     O_3   0.925397 0.490813 0.394104 -0.678900
H57   H     H_    0.898115 0.504182 0.414208 0.395042
O74   O     O_3   0.074585 0.490722 0.605904 -0.679586
H58   H     H_    0.101882 0.504059 0.585778 0.394843
O75   O     O_3   0.425385 0.990878 0.394113 -0.679160
H59   H     H_    0.398115 0.004271 0.414201 0.395006
O76   O     O_3   0.574620 0.990911 0.605883 -0.679576
H60   H     H_    0.601884 0.004316 0.585801 0.394889
O77   O     O_3   0.925056 0.477818 0.280434 -0.670135
H61   H     H_    0.911098 0.482665 0.254543 0.377496
O78   O     O_3   0.074910 0.477721 0.719585 -0.670245
H62   H     H_    0.088874 0.482548 0.745470 0.377544
O79   O     O_3   0.425039 0.977874 0.280450 -0.670303
H63   H     H_    0.411079 0.982733 0.254565 0.377478
O80   O     O_3   0.574969 0.977902 0.719542 -0.670418
H64   H     H_    0.588929 0.982767 0.745426 0.377480
N9    N     N_R   0.935233 0.549407 0.255812 0.104750
O81   O     O_R   0.956318 0.573715 0.197877 -0.364273
O82   O     O_R   0.897120 0.559541 0.308034 -0.276778
N10   N     N_R   0.064833 0.549322 0.744107 0.104760
O83   O     O_R   0.043781 0.573666 0.801995 -0.364204
O84   O     O_R   0.102961 0.559400 0.691869 -0.276648
N11   N     N_R   0.435273 0.049455 0.255761 0.104865
O85   O     O_R   0.456379 0.073744 0.197804 -0.364403
O86   O     O_R   0.397167 0.059620 0.307972 -0.276289
N12   N     N_R   0.564707 0.049480 0.744262 0.104873
O87   O     O_R   0.543591 0.073758 0.802231 -0.364434
O88   O     O_R   0.602809 0.059661 0.692055 -0.276147
N13   N     N_R   0.984463 0.419754 0.206902 0.150652
O89   O     O_R   0.968119 0.421016 0.168767 -0.359996
O90   O     O_R   0.986611 0.383655 0.231572 -0.318866
N14   N     N_R   0.015369 0.419720 0.793287 0.150422
O91   O     O_R   0.031891 0.421021 0.831111 -0.360061
O92   O     O_R   0.013022 0.383592 0.768971 -0.318925
N15   N     N_R   0.484401 0.919762 0.206964 0.150511
O93   O     O_R   0.468063 0.921033 0.168819 -0.360631
O94   O     O_R   0.486517 0.883663 0.231674 -0.319728
N16   N     N_R   0.515635 0.919769 0.793001 0.150505
O95   O     O_R   0.531953 0.921038 0.831179 -0.360612
O96   O     O_R   0.513551 0.883674 0.768241 -0.319753

loop_
_geom_bond_atom_site_label_1
_geom_bond_atom_site_label_2
_geom_bond_distance
_ccdc_geom_bond_type
O30   C101  1.285008 A    
C76   C88   1.207717 T    
C117  N6    1.442025 S    
C51   H29   1.083522 S    
C46   H24   1.111269 S    
N16   O96   1.302646 A    
O76   H60   0.993384 S    
C80   C84   1.207446 T    
N9    O81   1.301382 A    
C79   C83   1.207446 T    
N8    O71   1.301694 A    
C30   C46   1.536622 S    
C13   C15   1.402117 A    
C32   H14   1.112899 S    
O64   H56   0.991861 S    
C63   O61   1.381299 S    
C121  C125  1.448551 S    
C52   H30   1.083596 S    
C13   C16   1.402114 A    
C34   H12   1.112106 S    
O17   C93   1.285045 A    
O23   Cu7   1.987432 S    
O21   Cu5   1.987432 S    
C48   N2    1.482299 S    
O4    C4    1.285006 A    
C11   C91   1.208290 T    
Cu11  Cu12  2.704767 S    
C64   O62   1.381388 S    
C9    C101  1.438111 S    
O49   H49   0.990193 S    
C2    C84   1.437400 S    
C9    C99   1.207764 T    
C10   C100  1.207761 T    
C23   C39   1.608737 S    
C78   C90   1.207717 T    
N12   O88   1.302029 A    
C57   C77   1.443049 S    
C18   C131  1.400510 A    
C60   C64   1.412038 A    
Cu5   O29   1.940022 S    
O16   Cu4   1.983854 S    
O13   C5    1.280000 A    
O7    Cu4   1.940358 S    
N14   O91   1.299782 A    
C44   H22   1.111253 S    
O15   C7    1.279995 A    
C116  C124  1.442978 S    
O20   Cu8   1.939957 S    
C42   C46   1.569642 S    
C91   C135  1.443787 S    
C112  H38   1.083936 S    
O18   Cu6   1.939957 S    
O9    C5    1.283060 A    
C131  C135  1.402097 A    
C33   C49   1.565224 S    
C66   O64   1.381509 S    
C22   O52   1.417778 S    
C23   O77   1.415067 S    
O8    Cu4   1.940354 S    
C77   C89   1.207717 T    
C25   N11   1.487003 S    
C12   C110  1.439030 S    
O44   C108  1.302487 A    
C75   C87   1.207720 T    
Cu8   O32   1.940021 S    
C16   C133  1.400507 A    
C133  C136  1.402267 A    
C93   C127  1.436326 S    
O3    Cu2   1.939045 S    
C54   C74   1.398001 A    
N3    O58   1.302232 A    
C19   C23   1.585061 S    
C63   C67   1.407553 A    
C31   C35   1.561165 S    
C32   C36   1.561189 S    
O28   Cu7   1.980132 S    
N7    O70   1.301247 A    
C48   N14   1.483900 S    
O34   Cu10  1.940297 S    
C33   C37   1.561179 S    
C67   C79   1.444613 S    
C21   C25   1.585060 S    
O37   Cu9   1.943069 S    
C39   C43   1.569624 S    
C50   N4    1.482289 S    
O27   C97   1.287592 A    
O42   Cu9   1.934495 S    
N15   O94   1.302643 A    
C39   C47   1.599621 S    
C26   N12   1.486999 S    
C18   H43   1.083527 S    
C19   O73   1.411866 S    
O5    C1    1.284986 A    
C34   C50   1.565234 S    
O51   H51   0.990194 S    
H7    C45   1.107606 S    
C11   C109  1.439037 S    
C22   C26   1.585056 S    
N1    O53   1.302066 A    
C28   H18   1.111779 S    
C88   C106  1.438057 S    
O40   Cu12  1.943069 S    
C41   C97   1.496825 S    
H3    C29   1.111598 S    
C59   C63   1.412041 A    
C15   H42   1.083655 S    
C24   C40   1.608786 S    
C31   H9    1.112111 S    
O5    Cu3   1.940358 S    
N2    O56   1.302233 A    
Cu10  O46   1.940396 S    
C28   C36   1.545809 S    
C58   C62   1.401579 A    
C43   H21   1.111264 S    
Cu12  O48   1.940396 S    
C112  C119  1.405581 A    
N10   O84   1.302012 A    
C41   C49   1.599620 S    
C111  H37   1.083935 S    
C52   C56   1.399797 A    
C89   C107  1.438057 S    
C34   C38   1.561172 S    
O13   Cu3   1.983854 S    
O3    C3    1.285004 A    
O43   Cu12  1.934499 S    
O23   C97   1.277889 A    
O24   Cu8   1.987434 S    
O43   C107  1.302487 A    
O21   C95   1.277891 A    
O46   C109  1.301927 A    
C94   C128  1.436326 S    
C65   C69   1.407572 A    
O77   H61   0.991625 S    
C69   C73   1.401700 A    
C49   N15   1.483989 S    
C67   C71   1.401680 A    
O8    C4    1.284984 A    
O75   H59   0.993385 S    
C10   C102  1.438108 S    
C49   N3    1.482298 S    
O15   Cu4   1.983854 S    
C3    C85   1.437400 S    
C61   H35   1.083901 S    
C112  C115  1.396030 A    
C58   C78   1.443048 S    
O35   Cu11  1.940293 S    
C65   O63   1.381316 S    
C60   H34   1.083957 S    
C20   O50   1.417758 S    
C118  C121  1.420020 A    
C56   C60   1.401453 A    
C103  C129  1.437599 S    
C22   O76   1.411863 S    
C47   N13   1.483982 S    
C52   C72   1.398001 A    
C55   C59   1.401361 A    
O38   C106  1.303765 A    
O38   Cu10  1.943069 S    
C40   C44   1.569590 S    
N6    O68   1.301238 A    
O62   H54   0.991793 S    
N4    O59   1.302069 A    
C118  N5    1.442027 S    
N8    O72   1.301246 A    
C28   C44   1.536670 S    
C133  H47   1.083563 S    
O10   C6    1.283055 A    
O78   H62   0.991629 S    
C119  C122  1.420041 A    
O31   C102  1.285007 A    
C125  C127  1.207571 T    
O25   C95   1.287594 A    
C27   H17   1.111812 S    
Cu9   Cu10  2.704767 S    
H5    C43   1.107603 S    
C56   C76   1.443048 S    
O41   C105  1.302487 A    
C20   C24   1.585045 S    
C61   C65   1.412042 A    
N6    O67   1.301671 A    
C119  N8    1.442050 S    
C92   C136  1.443781 S    
Cu7   O31   1.940022 S    
O29   C101  1.285012 A    
C25   C41   1.608726 S    
C53   C73   1.398000 A    
Cu11  O47   1.940400 S    
C14   C17   1.401948 A    
O17   Cu5   1.939956 S    
C40   C48   1.599611 S    
O52   H52   0.990192 S    
C111  C120  1.405585 A    
C114  C117  1.405581 A    
C29   H19   1.111819 S    
O26   C96   1.287573 A    
C132  C135  1.402097 A    
C31   C47   1.565218 S    
C70   C74   1.401903 A    
C53   C57   1.399723 A    
H26   C72   1.083688 S    
N14   O92   1.302388 A    
O79   H63   0.991626 S    
O28   C98   1.287592 A    
O18   C93   1.285044 A    
N7    O69   1.301697 A    
O32   C102  1.285010 A    
C8    C38   1.487023 S    
C68   C72   1.401777 A    
N16   O95   1.299931 A    
O14   C6    1.280007 A    
O63   H55   0.991753 S    
C117  C121  1.420022 A    
N9    O82   1.302030 A    
O12   Cu2   1.983579 S    
O47   C110  1.301931 A    
C42   C98   1.496824 S    
C68   C80   1.444616 S    
N11   O85   1.301385 A    
H4    C30   1.111598 S    
O1    C1    1.285004 A    
C26   O80   1.415075 S    
C82   C86   1.207446 T    
Cu5   Cu6   2.644316 S    
C26   C42   1.608713 S    
C51   C71   1.398000 A    
C33   H15   1.112907 S    
C24   N10   1.486987 S    
O39   Cu11  1.943069 S    
C25   O79   1.415075 S    
O80   H64   0.991624 S    
O73   H57   0.993383 S    
C124  C130  1.207452 T    
C27   C43   1.536632 S    
O74   H58   0.993369 S    
C41   C45   1.569638 S    
H28   C74   1.083784 S    
C120  N7    1.442047 S    
C111  C115  1.396025 A    
O36   Cu12  1.940297 S    
C50   N16   1.483989 S    
C30   H20   1.111820 S    
C54   C58   1.399922 A    
H8    C46   1.107608 S    
O24   C98   1.277885 A    
O20   C94   1.285043 A    
O35   C104  1.304453 A    
C81   C85   1.207442 T    
N12   O87   1.301384 A    
C131  H45   1.083428 S    
C29   C37   1.545763 S    
O19   Cu7   1.939956 S    
O6    C2    1.284984 A    
O4    Cu2   1.939042 S    
C12   C92   1.208290 T    
C51   C55   1.399703 A    
C20   O74   1.411846 S    
C69   C81   1.444613 S    
C104  C130  1.437599 S    
C1    C83   1.437396 S    
C7    C37   1.487024 S    
N13   O89   1.299925 A    
C16   H41   1.083656 S    
C114  C116  1.396005 A    
C4    C86   1.437400 S    
O2    Cu1   1.939042 S    
O10   Cu1   1.983579 S    
C21   C37   1.568075 S    
C113  H39   1.083918 S    
C5    C35   1.487020 S    
N13   O90   1.302629 A    
C6    C36   1.487019 S    
N15   O93   1.299926 A    
H25   C71   1.083609 S    
Cu6   O30   1.940021 S    
C32   H10   1.112089 S    
O22   Cu6   1.987434 S    
C34   H16   1.112901 S    
H6    C44   1.107577 S    
C123  C129  1.207452 T    
O41   Cu10  1.934499 S    
Cu7   Cu8   2.644316 S    
C120  C122  1.420039 A    
C17   H44   1.083527 S    
O7    C3    1.284986 A    
C23   N9    1.486999 S    
C47   N1    1.482301 S    
C113  C118  1.405585 A    
C39   C95   1.496825 S    
O44   Cu11  1.934495 S    
C122  C126  1.448551 S    
C87   C105  1.438057 S    
C134  C136  1.402266 A    
O25   Cu6   1.980132 S    
O26   Cu5   1.980132 S    
N5    O66   1.301238 A    
C19   O49   1.417775 S    
C30   C38   1.545751 S    
O16   C8    1.279997 A    
C24   O78   1.415017 S    
Cu9   O45   1.940400 S    
O61   H53   0.991741 S    
O34   C103  1.304457 A    
C57   C61   1.401379 A    
C42   C50   1.599612 S    
O11   C7    1.283061 A    
O12   C8    1.283057 A    
O1    Cu1   1.939045 S    
O9    Cu1   1.983588 S    
C15   C134  1.400507 A    
O33   C103  1.304453 A    
C53   H31   1.083537 S    
C113  C116  1.396005 A    
C55   C75   1.443049 S    
N1    O54   1.302234 A    
O11   Cu2   1.983588 S    
N4    O60   1.302228 A    
O33   Cu9   1.940293 S    
C114  H40   1.083919 S    
C132  H46   1.083425 S    
C27   C35   1.545776 S    
N11   O86   1.302032 A    
C66   C70   1.407770 A    
C45   H23   1.111267 S    
O6    Cu3   1.940354 S    
N2    O55   1.302043 A    
N5    O65   1.301673 A    
O40   C108  1.303767 A    
C62   H36   1.084054 S    
O19   C94   1.285044 A    
O27   Cu8   1.980132 S    
N10   O83   1.301367 A    
O48   C110  1.301927 A    
C126  C128  1.207571 T    
C29   C45   1.536625 S    
C40   C96   1.496811 S    
C90   C108  1.438057 S    
N3    O57   1.302069 A    
O2    C2    1.285006 A    
C17   C132  1.400510 A    
H1    C27   1.111598 S    
C33   H11   1.112107 S    
H2    C28   1.111580 S    
C70   C82   1.444616 S    
O45   C109  1.301935 A    
O36   C104  1.304453 A    
O39   C107  1.303769 A    
C14   C18   1.401946 A    
O14   Cu3   1.983854 S    
O37   C105  1.303769 A    
C115  C123  1.442982 S    
O50   H50   0.990176 S    
C21   O75   1.411868 S    
Cu1   Cu3   2.643968 S    
C19   C35   1.568065 S    
C134  H48   1.083562 S    
Cu2   Cu4   2.643968 S    
C20   C36   1.567994 S    
H27   C73   1.083626 S    
C32   C48   1.565167 S    
C54   H32   1.083695 S    
C13   C99   1.443198 S    
C14   C100  1.443191 S    
O42   C106  1.302489 A    
C62   C66   1.412038 A    
O22   C96   1.277905 A    
C21   O51   1.417781 S    
C22   C38   1.568085 S    
C59   H33   1.083886 S    
C64   C68   1.407649 A    
C31   H13   1.112903 S    
