data_mof_unit_60384.cif
_audit_creation_date              2012-12-10T18:06:36-0500
_audit_creation_method            fapswitch 2.2
_symmetry_space_group_name_H-M    P1
_symmetry_Int_Tables_number       1
_space_group_crystal_system       triclinic
_cell_length_a                    13.134732
_cell_length_b                    14.426866
_cell_length_c                    17.420536
_cell_angle_alpha                 89.999901
_cell_angle_beta                  85.272572
_cell_angle_gamma                 90.000037
_cell_volume                      3289.83986894

loop_
_atom_site_label
_atom_site_type_symbol
_atom_type_description
_atom_site_fract_x
_atom_site_fract_y
_atom_site_fract_z
_atom_type_partial_charge
C1    C     C_R   0.500000 0.671290 0.500000 0.908273
C2    C     C_R   0.500000 0.328707 0.500000 0.914421
C3    C     C_1   0.500000 0.772863 0.500000 -0.158835
C4    C     C_1   0.500000 0.227136 0.500000 -0.155946
C5    C     C_1   0.500000 0.857677 0.500000 0.024727
C6    C     C_1   0.500000 0.142320 0.500000 0.016991
C7    C     C_1   0.500000 0.957585 0.500000 0.039885
C8    C     C_1   0.500000 0.042410 0.500000 0.036427
C9    C     C_1   0.826393 0.500007 0.499981 0.211724
C10   C     C_1   0.173607 0.500007 0.500019 0.211723
C11   C     C_1   0.949316 0.500013 0.499992 -0.022205
C12   C     C_1   0.050684 0.500013 0.500008 -0.022205
C13   C     C_R   0.486551 0.500324 0.651932 0.955483
C14   C     C_R   0.513449 0.500324 0.348068 0.955468
C15   C     C_R   0.476559 0.494312 0.736109 -0.250611
C16   C     C_R   0.523441 0.494311 0.263891 -0.250608
C17   C     C_R   0.542810 0.435386 0.774145 -0.087674
C18   C     C_R   0.457187 0.435387 0.225855 -0.087671
C19   C     C_R   0.536593 0.434379 0.854382 -0.166629
C20   C     C_R   0.463405 0.434380 0.145619 -0.166630
C21   C     C_R   0.463525 0.487730 0.897112 0.068147
C22   C     C_R   0.536476 0.487727 0.102888 0.068148
C23   C     C_R   0.395000 0.542049 0.860050 -0.187012
C24   C     C_R   0.605004 0.542045 0.139950 -0.187012
C25   C     C_R   0.401781 0.547875 0.779856 0.408515
C26   C     C_R   0.598223 0.547870 0.220144 0.408515
C27   C     C_2   0.457615 0.486938 0.981208 -0.168484
C28   C     C_2   0.542386 0.486935 0.018792 -0.168485
Cu1   Cu    Cu3+1 0.407320 0.500000 0.500010 1.058906
Cu2   Cu    Cu3+1 0.592680 0.500000 0.499990 1.058900
H1    H     H_    0.617134 0.492392 0.987306 0.170891
H2    H     H_    0.382868 0.492398 0.012694 0.170892
H3    H     H_    0.338382 0.582384 0.894240 0.188861
H4    H     H_    0.661623 0.582377 0.105759 0.188861
H5    H     H_    0.413482 0.389098 0.116150 0.176389
H6    H     H_    0.586513 0.389095 0.883850 0.176389
N1    N     N_1   0.731930 0.500000 0.499980 -0.118296
N2    N     N_1   0.268070 0.500000 0.500020 -0.118294
O1    O     O_R   0.421720 0.623950 0.500010 -0.557821
O2    O     O_R   0.578280 0.376050 0.499990 -0.561261
O3    O     O_R   0.578280 0.623950 0.499990 -0.557834
O4    O     O_R   0.421720 0.376050 0.500010 -0.561261
O5    O     O_R   0.412660 0.500000 0.613600 -0.523578
O6    O     O_R   0.587340 0.500000 0.386400 -0.523582
O7    O     O_R   0.569190 0.500000 0.613590 -0.578739
O8    O     O_R   0.430810 0.500000 0.386410 -0.578738
C29   C     C_2   0.615714 0.370397 0.732532 0.881286
O9    O     O_2   0.699799 0.357220 0.755938 -0.571559
O10   O     O_R   0.586927 0.321288 0.668631 -0.774431
H7    H     H_    0.642866 0.278629 0.645859 0.335379
C30   C     C_2   0.384278 0.370403 0.267468 0.881285
O11   O     O_2   0.300191 0.357232 0.244063 -0.571558
O12   O     O_R   0.413061 0.321292 0.331370 -0.774426
H8    H     H_    0.357118 0.278637 0.354143 0.335379
S1    S     S_3+6 0.681091 0.626344 0.262779 0.021875
O13   O     O_2   0.760129 0.572404 0.301720 -0.274640
O14   O     O_2   0.733956 0.688446 0.202695 -0.261839
O15   O     O_3   0.613268 0.692097 0.328238 -0.560153
H9    H     H_    0.664882 0.728354 0.353796 0.374524
S2    S     S_3+6 0.318917 0.626352 0.737220 0.021871
O16   O     O_2   0.239874 0.572416 0.698282 -0.274628
O17   O     O_2   0.266059 0.688459 0.797303 -0.261853
O18   O     O_3   0.386743 0.692098 0.671758 -0.560162
H10   H     H_    0.335132 0.728377 0.646215 0.374526

loop_
_geom_bond_atom_site_label_1
_geom_bond_atom_site_label_2
_ccdc_geom_bond_type
Cu1   N2    S    
C1    C3    S    
C2    C4    S    
C11   C12   T    
Cu2   O3    S    
C15   C17   A    
Cu1   Cu2   S    
C25   S2    S    
Cu1   O4    S    
Cu2   O7    S    
C29   O9    D    
C14   O8    A    
Cu1   O8    S    
C10   N2    T    
C26   S1    S    
Cu1   O1    S    
S1    O13   D    
C13   C15   S    
C21   C27   S    
C3    C5    T    
Cu2   O2    S    
C7    C8    T    
C29   O10   S    
C16   C18   A    
C22   C28   S    
O12   H8    S    
Cu1   O5    S    
C13   O7    A    
C9    C11   S    
Cu2   O6    S    
C10   C12   S    
C2    O4    A    
S2    O18   S    
C14   O6    A    
C19   C21   A    
C24   C26   A    
C18   C30   S    
C18   C20   A    
C19   H6    S    
S1    O14   D    
C21   C23   A    
C16   C26   A    
C22   C24   A    
C15   C25   A    
C4    C6    T    
C1    O1    A    
C30   O12   S    
C30   O11   D    
C2    O2    A    
C13   O5    A    
C23   C25   A    
C27   H2    S    
S2    O17   D    
O10   H7    S    
S1    O15   S    
C1    O3    A    
C27   C28   D    
C5    C7    S    
C6    C8    S    
C17   C19   A    
C14   C16   S    
O18   H10   S    
O15   H9    S    
C20   H5    S    
C28   H1    S    
C24   H4    S    
C17   C29   S    
Cu2   N1    S    
C20   C22   A    
S2    O16   D    
C23   H3    S    
C9    N1    T    
