data_mof_unit_38453.cif
_audit_creation_date              2012-12-11T14:33:07-0500
_audit_creation_method            fapswitch 2.2
_symmetry_space_group_name_H-M    P1
_symmetry_Int_Tables_number       1
_space_group_crystal_system       triclinic
_cell_length_a                    6.963595
_cell_length_b                    14.221549
_cell_length_c                    17.954802
_cell_angle_alpha                 112.960468
_cell_angle_beta                  95.657396
_cell_angle_gamma                 91.289329
_cell_volume                      1625.66282517

loop_
_atom_site_label
_atom_site_type_symbol
_atom_type_description
_atom_site_fract_x
_atom_site_fract_y
_atom_site_fract_z
_atom_type_partial_charge
O1    O     O_R   0.484560 0.544530 0.414330 -0.540906
O2    O     O_R   0.197040 0.638810 0.585080 -0.512675
O3    O     O_R   0.026800 0.455470 0.585670 -0.528515
C1    C     C_R   0.376515 0.683077 0.598992 0.659972
O4    O     O_R   0.155000 0.556150 0.414940 -0.550460
O5    O     O_R   0.984450 0.372220 0.414320 -0.538778
C2    C     C_R   0.318273 0.564766 0.386643 0.733797
O6    O     O_R   0.526900 0.627780 0.585680 -0.549509
O7    O     O_3   0.339170 0.439750 0.499990 -0.376249
V1    V     V_3+5 0.064350 0.511180 0.500000 1.420405
O8    O     O_R   0.654880 0.361190 0.414920 -0.540754
C3    C     C_R   0.816273 0.324593 0.386657 0.732560
O9    O     O_R   0.696930 0.443850 0.585060 -0.553935
C4    C     C_R   0.871166 0.423087 0.606274 0.720236
V2    V     V_3+5 0.564340 0.488820 0.500000 1.390264
O10   O     O_3   0.839390 0.560250 0.500010 -0.372991
C5    C     C_R   0.050771 0.871932 0.827647 -0.158675
C6    C     C_R   0.895335 0.385266 0.674237 -0.166067
C7    C     C_R   0.964218 0.831134 0.683344 -0.190467
C8    C     C_R   0.024580 0.800391 0.746034 0.447698
C9    C     C_R   0.041616 0.977248 0.842180 -0.291038
C10   C     C_R   0.998092 0.010366 0.776395 0.105160
C11   C     C_R   0.951667 0.933960 0.697142 0.068533
C12   C     C_R   0.995788 0.115528 0.785684 0.046781
C13   C     C_R   0.942557 0.141143 0.716237 0.082081
C14   C     C_R   0.889979 0.060768 0.640130 -0.174834
C15   C     C_R   0.895894 0.959560 0.630914 -0.196974
C16   C     C_R   0.049300 0.195807 0.861687 -0.172416
C17   C     C_R   0.044554 0.296982 0.870947 -0.159594
C18   C     C_R   0.989695 0.322673 0.804734 0.041624
C19   C     C_R   0.942110 0.246376 0.725486 0.104794
C20   C     C_R   0.979070 0.425551 0.818586 -0.193905
C21   C     C_R   0.919491 0.456415 0.755949 0.448790
C22   C     C_R   0.901270 0.279735 0.659643 -0.290375
H1    H     H_    0.930722 0.773139 0.622171 0.146649
C23   C     C_2   0.134185 0.038826 0.183685 0.167690
C24   C     C_2   0.974030 0.073543 0.223433 0.383827
C25   C     C_2   0.811949 0.220669 0.320437 -0.355255
C26   C     C_2   0.974664 0.179516 0.288214 -0.203545
C27   C     C_R   0.428507 0.792291 0.662633 -0.060247
C28   C     C_R   0.519772 0.465691 0.842607 -0.082640
C29   C     C_R   0.581152 0.890284 0.800391 -0.141725
C30   C     C_R   0.552157 0.801685 0.731010 -0.162255
C31   C     C_R   0.387550 0.886556 0.655766 -0.202327
C32   C     C_R   0.451034 0.983932 0.722726 0.108402
C33   C     C_R   0.529120 0.981719 0.797406 0.077653
C34   C     C_R   0.442854 0.082653 0.719463 0.003254
C35   C     C_R   0.495332 0.175717 0.792107 -0.037107
C36   C     C_R   0.537380 0.167328 0.868011 0.458156
C37   C     C_R   0.560274 0.070016 0.868672 -0.295777
C38   C     C_R   0.387964 0.090743 0.645175 -0.155105
C39   C     C_R   0.368093 0.185051 0.641557 -0.202110
C40   C     C_R   0.410947 0.274730 0.711006 0.135593
C41   C     C_R   0.491235 0.274016 0.786347 0.123774
C42   C     C_R   0.362353 0.365736 0.706274 -0.171844
C43   C     C_R   0.394320 0.455430 0.774525 -0.159009
C44   C     C_R   0.562284 0.372266 0.850576 -0.170465
H2    H     H_    0.341964 0.520586 0.769278 0.096689
H3    H     H_    0.605914 0.736610 0.735399 0.095384
C45   C     C_2   0.315799 0.601820 0.319333 -0.345950
C46   C     C_2   0.476918 0.611020 0.285209 -0.130907
H4    H     H_    0.771040 0.637041 0.205788 0.125320
C47   C     C_2   0.633408 0.656452 0.183272 -0.356572
C48   C     C_2   0.472371 0.647292 0.217448 -0.129707
O11   O     O_R   0.421600 0.630430 0.917010 -0.551191
O12   O     O_R   0.793840 0.702190 0.087630 -0.550856
O13   O     O_R   0.964010 0.886170 0.088190 -0.523341
C49   C     C_R   0.630657 0.693412 0.115920 0.731200
O14   O     O_R   0.751460 0.619510 0.917500 -0.514325
O15   O     O_R   0.921330 0.802900 0.916840 -0.529685
C50   C     C_R   0.572342 0.575230 0.905133 0.664394
O16   O     O_R   0.464290 0.713700 0.088350 -0.541779
O17   O     O_3   0.609200 0.818520 0.002630 -0.363000
V3    V     V_3+5 0.884140 0.747190 0.002530 1.444705
O18   O     O_R   0.251150 0.814630 0.917340 -0.556894
C51   C     C_R   0.076567 0.834786 0.895850 0.707379
O19   O     O_R   0.293530 0.897310 0.087470 -0.523714
C52   C     C_R   0.131828 0.934009 0.116320 0.669732
V4    V     V_3+5 0.384070 0.769710 0.002370 1.425688
O20   O     O_3   0.109180 0.698190 0.002460 -0.377995
H5    H     H_    0.857248 0.900176 0.570658 0.113578
H6    H     H_    0.012096 0.483420 0.879836 0.146018
H7    H     H_    0.111787 0.224593 0.310038 0.175059
O21   O     O_3   0.801880 0.013224 0.200829 -0.537443
C53   C     C_3   0.790340 0.962519 0.254058 -0.170195
H8    H     H_    0.651365 0.915455 0.236706 0.156336
H9    H     H_    0.791906 0.017517 0.318377 0.114386
H10   H     H_    0.909168 0.910030 0.248863 0.092868
H11   H     H_    0.673412 0.177134 0.298406 0.210996
O22   O     O_3   0.305483 0.099801 0.208790 -0.561455
C54   C     C_3   0.333060 0.142326 0.151294 -0.246933
H12   H     H_    0.463266 0.196410 0.174107 0.164952
H13   H     H_    0.208432 0.186553 0.143224 0.113469
H14   H     H_    0.358987 0.082512 0.091671 0.144008
H15   H     H_    0.599053 0.061727 0.925580 0.125346
H16   H     H_    0.651245 0.377929 0.904949 0.155436
H17   H     H_    0.313706 0.187847 0.583785 0.116252
H18   H     H_    0.651612 0.887426 0.855901 0.136386
H19   H     H_    0.878489 0.226266 0.596970 0.113163
H20   H     H_    0.308646 0.882409 0.599663 0.093921
O23   O     O_3   0.524276 0.252301 0.939793 -0.559099
C55   C     C_3   0.659055 0.255678 0.005101 -0.309306
H21   H     H_    0.683614 0.336292 0.049520 0.164250
H22   H     H_    0.801852 0.229236 0.985499 0.133803
H23   H     H_    0.599285 0.210869 0.037208 0.145418
H24   H     H_    0.355036 0.024710 0.588786 0.119247
H25   H     H_    0.290698 0.367412 0.650517 0.136011
H26   H     H_    0.334390 0.666964 0.195459 0.151232
H27   H     H_    0.614879 0.591343 0.307211 0.152564
H28   H     H_    0.178234 0.621281 0.296795 0.123916
O24   O     O_3   0.902163 0.559530 0.778209 -0.555910
C56   C     C_3   0.726595 0.580977 0.744961 -0.132109
H29   H     H_    0.622433 0.516076 0.715019 0.101077
H30   H     H_    0.752881 0.605936 0.696206 0.201432
H31   H     H_    0.659778 0.640088 0.793637 0.127781
H32   H     H_    0.084173 0.356258 0.931181 0.128755
O25   O     O_3   0.037556 0.696974 0.724119 -0.556007
C57   C     C_3   0.212176 0.673514 0.756635 -0.129662
H33   H     H_    0.186396 0.649897 0.806201 0.198216
H34   H     H_    0.319131 0.737073 0.785613 0.096720
H35   H     H_    0.274938 0.612673 0.707612 0.132193
H36   H     H_    0.064196 0.030712 0.904861 0.109376
H37   H     H_    0.843258 0.073814 0.586152 0.117390
H38   H     H_    0.097474 0.182756 0.915513 0.132827

loop_
_geom_bond_atom_site_label_1
_geom_bond_atom_site_label_2
_ccdc_geom_bond_type
C13   C19   A    
O12   C49   A    
C42   C43   A    
O23   C55   S    
O11   V4    S    
O17   V3    S    
C4    C6    S    
O2    C1    A    
C7    C8    A    
C1    O6    A    
C46   H27   S    
C56   H30   S    
C32   C33   A    
C31   C32   A    
C35   C41   A    
C25   H11   S    
C14   C15   A    
H4    C47   S    
C23   C24   D    
O16   V4    S    
C29   H18   S    
C36   O23   S    
C18   C19   A    
C37   H15   S    
V2    O10   S    
O12   V3    S    
C39   H17   S    
C5    C8    A    
C55   H23   S    
C29   C33   A    
C32   C34   A    
C9    H36   S    
O14   C50   A    
C57   H33   S    
C8    O25   S    
O8    V2    S    
C27   C30   A    
C1    C27   S    
O11   C50   A    
C44   H16   S    
O15   V3    S    
C5    C51   S    
C24   O21   S    
C21   O24   S    
C11   C15   A    
C18   C20   A    
O7    V1    S    
C30   H3    S    
C28   C50   S    
O19   V4    S    
V3    O20   S    
O9    C4    A    
O13   C52   A    
C56   H29   S    
C48   H26   S    
C40   C42   A    
C53   H9    S    
C38   C39   A    
C15   H5    S    
C12   C13   A    
C54   H12   S    
O4    C2    A    
C34   C38   A    
C13   C14   A    
O19   C52   A    
C5    C9    A    
V4    O20   S    
C42   H25   S    
C45   C46   D    
C57   H35   S    
C46   C48   S    
C7    C11   A    
O18   C51   A    
C28   C43   A    
C17   C18   A    
C54   H13   S    
C34   C35   A    
C49   O16   A    
C22   H19   S    
O17   V4    S    
C19   C22   A    
O14   V3    S    
O13   V3    S    
O21   C53   S    
C55   H22   S    
C6    C22   A    
C53   H8    S    
O3    C4    A    
O1    V2    S    
C35   C36   A    
C17   H32   S    
C7    H1    S    
O6    V2    S    
O9    V2    S    
O15   C51   A    
C10   C12   A    
C14   H37   S    
O2    V1    S    
C2    C45   S    
C39   C40   A    
C53   H10   S    
C23   O22   S    
C47   C49   S    
C16   C17   A    
O24   C56   S    
O1    C2    A    
C12   C16   A    
O5    V1    S    
O8    C3    A    
C16   H38   S    
C40   C41   A    
C20   H6    S    
C33   C37   A    
C20   C21   A    
O7    V2    S    
C28   C44   A    
O4    V1    S    
C24   C26   S    
O3    V1    S    
V1    O10   S    
O25   C57   S    
C54   H14   S    
O5    C3    A    
C31   H20   S    
O22   C54   S    
C25   C26   D    
C38   H24   S    
C43   H2    S    
C3    C25   S    
C55   H21   S    
C6    C21   A    
C57   H34   S    
C45   H28   S    
C26   H7    S    
C47   C48   D    
C27   C31   A    
C36   C37   A    
C29   C30   A    
C10   C11   A    
C23   C52   S    
C9    C10   A    
O18   V4    S    
C56   H31   S    
C41   C44   A    
