data_mof_unit_23397.cif
_audit_creation_date              2012-12-10T19:00:10-0500
_audit_creation_method            fapswitch 2.2
_symmetry_space_group_name_H-M    P1
_symmetry_Int_Tables_number       1
_space_group_crystal_system       triclinic
_cell_length_a                    9.64075
_cell_length_b                    10.872888
_cell_length_c                    13.449131
_cell_angle_alpha                 94.071508
_cell_angle_beta                  72.697934
_cell_angle_gamma                 91.146868
_cell_volume                      1342.58539568

loop_
_atom_site_label
_atom_site_type_symbol
_atom_type_description
_atom_site_fract_x
_atom_site_fract_y
_atom_site_fract_z
_atom_type_partial_charge
C1    C     C_R   0.502396 0.737034 0.496809 0.799257
C2    C     C_R   0.456179 0.512394 0.971612 0.071263
C3    C     C_R   0.488287 0.470670 0.865056 0.034231
C4    C     C_R   0.562719 0.497486 0.024114 0.016312
C5    C     C_R   0.692955 0.430829 0.971439 0.128857
C6    C     C_R   0.717776 0.383525 0.867749 0.201248
C7    C     C_R   0.617046 0.404870 0.816035 -0.281066
C8    C     C_R   0.535922 0.532561 0.131160 -0.225299
C9    C     C_R   0.757500 0.433580 0.132302 -0.239160
C10   C     C_R   0.381284 0.479341 0.813409 -0.155077
C11   C     C_R   0.378821 0.932215 0.495609 0.083302
C12   C     C_R   0.422661 0.489705 0.699016 0.774654
C13   C     C_R   0.504478 0.870379 0.494700 -0.129798
C14   C     C_R   0.629284 0.938620 0.494505 -0.233745
C15   C     C_R   0.625823 0.066748 0.500667 -0.221237
C16   C     C_R   0.498943 0.128975 0.501630 -0.074695
C17   C     C_R   0.375374 0.060332 0.500482 0.060912
C18   C     C_3   0.295960 0.061509 0.421071 -0.528936
C19   C     C_3   0.307694 0.922468 0.410376 0.095844
C20   C     C_R   0.943053 0.403939 0.454998 0.120077
C21   C     C_R   0.899455 0.581695 0.565081 0.263641
C22   C     C_R   0.050006 0.581704 0.565087 0.293891
C23   C     C_R   0.499464 0.262493 0.499445 0.782438
C24   C     C_R   0.087145 0.402506 0.455844 0.101393
C25   C     C_3   0.127965 0.328895 0.352116 0.059326
C26   C     C_3   0.970236 0.338355 0.351111 -0.503394
C27   C     C_R   0.578550 0.501223 0.300358 0.786369
C28   C     C_R   0.790927 0.404149 0.025977 -0.180745
C29   C     C_R   0.627037 0.493020 0.186081 -0.025105
C30   C     C_R   0.235690 0.477196 0.874809 0.243024
C31   C     C_R   0.201435 0.524251 0.978548 -0.171519
C32   C     C_R   0.311996 0.552358 0.023916 -0.241247
Cu1   Cu    Cu3+1 0.359330 0.500020 0.500010 0.980699
Cu2   Cu    Cu3+1 0.640670 0.499980 0.499990 0.952228
H1    H     H_    0.830000 0.402906 0.173163 0.144797
H2    H     H_    0.724571 0.116388 0.500080 0.160697
H3    H     H_    0.183522 0.095777 0.458516 0.184634
H4    H     H_    0.358646 0.105832 0.349270 0.182757
H5    H     H_    0.382149 0.884230 0.334621 0.137664
H6    H     H_    0.157948 0.233532 0.358700 0.137376
H7    H     H_    0.954386 0.399520 0.292817 0.202383
H8    H     H_    0.913925 0.247878 0.354637 0.173306
H9    H     H_    0.889202 0.352745 0.988520 0.205905
H10   H     H_    0.440869 0.584406 0.175297 0.136160
H11   H     H_    0.277577 0.588478 0.104001 0.134543
H12   H     H_    0.089158 0.530099 0.026455 0.153192
H13   H     H_    0.633917 0.355825 0.740559 0.181160
H14   H     H_    0.730900 0.893443 0.485597 0.167745
N1    N     N_R   0.852320 0.499070 0.499340 -0.207535
N2    N     N_R   0.148230 0.499110 0.499340 -0.207421
O1    O     O_R   0.381190 0.680360 0.500000 -0.545420
O2    O     O_R   0.618780 0.680320 0.499990 -0.553855
O3    O     O_R   0.323230 0.500000 0.650990 -0.563494
O4    O     O_R   0.560820 0.499960 0.650980 -0.565826
O5    O     O_R   0.381220 0.319680 0.500010 -0.573364
O6    O     O_R   0.618810 0.319640 0.500000 -0.592303
O7    O     O_R   0.439180 0.500040 0.349020 -0.554134
O8    O     O_R   0.676770 0.500000 0.349010 -0.588181
N3    N     N_2   0.167967 0.861217 0.441044 -0.401654
H15   H     H_    0.093961 0.902599 0.506092 0.239172
C33   C     C_3   0.107546 0.828099 0.356447 -0.711642
H16   H     H_    0.006923 0.773439 0.385591 0.223206
H17   H     H_    0.185735 0.770331 0.293990 0.224772
H18   H     H_    0.080897 0.912538 0.323805 0.223570
N4    N     N_2   0.793846 0.653794 0.642765 -0.359865
H19   H     H_    0.766401 0.621468 0.716292 0.252197
C34   C     C_3   0.802747 0.786495 0.641596 -0.692551
H20   H     H_    0.845832 0.826773 0.704340 0.199017
H21   H     H_    0.691912 0.824240 0.656674 0.243026
H22   H     H_    0.873079 0.814757 0.565835 0.210972
N5    N     N_2   0.097862 0.664508 0.634865 -0.363293
H23   H     H_    0.100368 0.755726 0.619081 0.252960
C35   C     C_3   0.042903 0.644763 0.745186 -0.679057
H24   H     H_    0.965370 0.718350 0.787172 0.200105
H25   H     H_    0.134328 0.649803 0.779203 0.243893
H26   H     H_    0.987051 0.554546 0.759069 0.215442
N6    N     N_2   0.229592 0.385735 0.266008 -0.365661
H27   H     H_    0.207744 0.476633 0.258980 0.255417
C36   C     C_3   0.260548 0.309151 0.169154 -0.683692
H28   H     H_    0.362787 0.338111 0.113869 0.248554
H29   H     H_    0.170695 0.315988 0.133818 0.216575
H30   H     H_    0.275786 0.211040 0.181982 0.216606
N7    N     N_2   0.836178 0.302925 0.817538 -0.432117
H31   H     H_    0.886194 0.321664 0.740946 0.245082
C37   C     C_3   0.798853 0.173638 0.826891 -0.727048
H32   H     H_    0.894575 0.115704 0.784613 0.215688
H33   H     H_    0.709945 0.149451 0.792011 0.227454
H34   H     H_    0.764357 0.152381 0.910319 0.241204
N8    N     N_2   0.136885 0.394090 0.845377 -0.433945
H35   H     H_    0.134011 0.397868 0.769942 0.279709
C38   C     C_3   0.157988 0.268280 0.867288 -0.709783
H36   H     H_    0.268334 0.234902 0.821396 0.220039
H37   H     H_    0.077676 0.206758 0.845459 0.246802
H38   H     H_    0.143776 0.262099 0.951865 0.230118

loop_
_geom_bond_atom_site_label_1
_geom_bond_atom_site_label_2
_ccdc_geom_bond_type
Cu1   O5    S    
Cu2   O6    S    
C27   C29   S    
C32   H11   S    
C15   H2    S    
C4    C8    A    
C21   N1    A    
C23   O6    A    
N6    H27   S    
C11   C19   S    
C25   N6    S    
C8    C29   A    
C19   H5    S    
C18   H3    S    
C3    C7    A    
C25   H6    S    
C30   C31   A    
C15   C16   A    
C2    C32   A    
C18   C19   S    
C35   H24   S    
C33   H17   S    
N7    H31   S    
C16   C17   A    
N4    C34   S    
C31   H12   S    
N8    C38   S    
C12   O3    A    
C9    C29   A    
C22   N2    A    
C37   H33   S    
N3    H15   S    
C13   C14   A    
C24   N2    A    
C35   H25   S    
C30   N8    S    
C17   C18   S    
N6    C36   S    
Cu1   O3    S    
N3    C33   S    
C34   H20   S    
C20   C24   A    
C24   C25   S    
C27   O7    A    
C38   H36   S    
C36   H29   S    
C14   H14   S    
C19   N3    S    
Cu1   N2    S    
C37   H32   S    
C34   H21   S    
C7    H13   S    
C33   H18   S    
C2    C4    A    
C20   N1    A    
C38   H37   S    
C5    C28   A    
C10   C30   A    
C31   C32   A    
Cu1   Cu2   S    
Cu2   O8    S    
C1    O1    A    
C10   C12   S    
N7    C37   S    
Cu2   O4    S    
C16   C23   S    
C35   H26   S    
C1    C13   S    
C22   N5    S    
C26   H8    S    
N5    C35   S    
C37   H34   S    
C11   C17   A    
Cu2   N1    S    
Cu1   O7    S    
C6    N7    S    
C21   N4    S    
C8    H10   S    
C4    C5    A    
C27   O8    A    
C36   H30   S    
C23   O5    A    
C6    C7    A    
Cu1   O1    S    
C28   H9    S    
Cu2   O2    S    
C34   H22   S    
C2    C3    A    
C25   C26   S    
N5    H23   S    
C3    C10   A    
C38   H38   S    
C11   C13   A    
C5    C6    A    
C20   C26   S    
C18   H4    S    
C33   H16   S    
C1    O2    A    
C36   H28   S    
C9    C28   A    
N4    H19   S    
C9    H1    S    
C14   C15   A    
N8    H35   S    
C21   C22   A    
C12   O4    A    
C26   H7    S    
