data_mof_unit_57765.cif
_audit_creation_date              2012-12-10T20:03:11-0500
_audit_creation_method            fapswitch 2.2
_symmetry_space_group_name_H-M    P1
_symmetry_Int_Tables_number       1
_space_group_crystal_system       triclinic
_cell_length_a                    8.46027
_cell_length_b                    19.316064
_cell_length_c                    18.462647
_cell_angle_alpha                 89.59429
_cell_angle_beta                  98.535745
_cell_angle_gamma                 90.108333
_cell_volume                      2983.65400343

loop_
_atom_site_label
_atom_site_type_symbol
_atom_type_description
_atom_site_fract_x
_atom_site_fract_y
_atom_site_fract_z
_atom_type_partial_charge
C1    C     C_R   0.499660 0.365604 0.500305 0.872037
C2    C     C_R   0.465008 0.440666 0.271934 0.052937
C3    C     C_R   0.549091 0.558593 0.804962 -0.253543
C4    C     C_R   0.463446 0.439584 0.195858 -0.265237
C5    C     C_R   0.499070 0.500054 0.841426 0.110838
C6    C     C_R   0.498683 0.500047 0.158484 0.108313
C7    C     C_R   0.449395 0.441493 0.798987 -0.254223
C8    C     C_R   0.533348 0.560617 0.199617 -0.246531
C9    C     C_R   0.450494 0.442614 0.723086 0.090418
C10   C     C_R   0.532066 0.559601 0.275490 0.167755
C11   C     C_R   0.381105 0.463819 0.954383 -0.163657
C12   C     C_R   0.500330 0.634386 0.499703 0.858375
C13   C     C_R   0.616094 0.536478 0.045928 -0.164808
C14   C     C_R   0.381399 0.463607 0.030436 -0.177828
C15   C     C_R   0.616550 0.536299 0.969935 -0.177565
C16   C     C_R   0.202578 0.510808 0.481246 0.864780
C17   C     C_R   0.797452 0.511002 0.518693 0.868480
C18   C     C_R   0.498715 0.500031 0.077325 0.120341
C19   C     C_R   0.498875 0.500065 0.922819 0.123674
C20   C     C_2   0.040458 0.534513 0.471187 0.061420
C21   C     C_2   0.960144 0.534355 0.528966 0.052810
C22   C     C_R   0.501152 0.745226 0.432343 -0.196600
C23   C     C_R   0.629275 0.963871 0.538986 -0.175890
C24   C     C_R   0.497488 0.254722 0.567674 -0.227330
C25   C     C_R   0.502543 0.817107 0.430970 0.019465
C26   C     C_R   0.496149 0.182827 0.569113 0.026744
C27   C     C_R   0.503954 0.853368 0.496901 0.048705
C28   C     C_R   0.495961 0.146516 0.503303 0.054066
C29   C     C_R   0.505831 0.817701 0.563210 -0.179328
C30   C     C_R   0.495392 0.182116 0.437047 -0.185880
C31   C     C_R   0.504469 0.746059 0.564234 -0.162134
C32   C     C_R   0.496837 0.253767 0.435958 -0.187265
C33   C     C_R   0.501668 0.709547 0.498812 -0.050556
C34   C     C_R   0.370527 0.036027 0.461314 -0.179437
C35   C     C_R   0.498301 0.290373 0.501253 -0.046830
C36   C     C_1   0.506653 0.852367 0.361982 0.158294
C37   C     C_1   0.490900 0.147589 0.638023 0.140113
C38   C     C_R   0.627119 0.035542 0.540821 -0.156256
C39   C     C_R   0.372649 0.964356 0.459504 -0.154831
C40   C     C_R   0.497434 0.071475 0.502216 0.102531
C41   C     C_R   0.502389 0.928416 0.498064 0.103175
C42   C     C_R   0.549017 0.557389 0.729010 0.139713
H1    H     H_    0.411930 0.394690 0.824190 0.134916
H2    H     H_    0.497350 0.282705 0.618377 0.155014
H3    H     H_    0.506778 0.845514 0.614052 0.153046
H4    H     H_    0.495409 0.154245 0.386303 0.148824
H5    H     H_    0.505301 0.719402 0.616103 0.170912
H6    H     H_    0.497133 0.280349 0.384133 0.153127
H7    H     H_    0.729740 0.936022 0.568839 0.146090
H8    H     H_    0.270093 0.063883 0.431446 0.143167
H9    H     H_    0.726268 0.063053 0.571837 0.142534
H10   H     H_    0.273458 0.936853 0.428509 0.144601
H11   H     H_    0.587838 0.602659 0.701726 0.139259
H12   H     H_    0.558674 0.608760 0.173214 0.143911
H13   H     H_    0.437711 0.393815 0.299908 0.121902
H14   H     H_    0.586050 0.605450 0.834575 0.141006
H15   H     H_    0.436982 0.391523 0.166710 0.138246
H16   H     H_    0.149023 0.646358 0.383549 0.341044
H17   H     H_    0.858052 0.645118 0.616676 0.337975
H18   H     H_    0.411426 0.397431 0.691069 0.119930
H19   H     H_    0.556643 0.606751 0.306165 0.151613
H20   H     H_    0.286607 0.436376 0.920227 0.143379
H21   H     H_    0.709696 0.564246 0.080346 0.152727
H22   H     H_    0.287719 0.435836 0.052467 0.140527
H23   H     H_    0.711129 0.563748 0.948297 0.143147
H24   H     H_    0.500192 0.717284 0.381550 0.168023
N1    N     N_R   0.500020 0.499980 0.689440 -0.086370
N2    N     N_R   0.499980 0.500020 0.310560 -0.087261
N3    N     N_1   0.509967 0.880613 0.306741 -0.187599
N4    N     N_1   0.486677 0.119353 0.693197 -0.193331
O1    O     O_R   0.500010 0.398180 0.560840 -0.638630
O2    O     O_2   0.831696 0.621671 0.391908 -0.335665
O3    O     O_3   0.107005 0.610796 0.347274 -0.515437
O4    O     O_2   0.099203 0.507653 0.666813 -0.262269
O5    O     O_2   0.176792 0.616156 0.611617 -0.302517
O6    O     O_3   0.897932 0.609185 0.653401 -0.532362
O7    O     O_R   0.499990 0.601820 0.439160 -0.625802
O8    O     O_R   0.499930 0.398180 0.439210 -0.637119
O9    O     O_R   0.500070 0.601820 0.560790 -0.619919
O10   O     O_R   0.271780 0.500000 0.546590 -0.565903
O11   O     O_R   0.728220 0.500000 0.453410 -0.563705
O12   O     O_R   0.271710 0.499990 0.424960 -0.570146
O13   O     O_R   0.728290 0.500010 0.575040 -0.572414
O14   O     O_2   0.894898 0.513248 0.333645 -0.261871
S1    S     S_3+6 0.961326 0.570345 0.384140 0.035946
S2    S     S_3+6 0.040871 0.567038 0.617006 0.047174
Zn1   Zn    Zn3+2 0.500050 0.500000 0.581210 1.030800
Zn2   Zn    Zn3+2 0.499950 0.500000 0.418790 1.030228

loop_
_geom_bond_atom_site_label_1
_geom_bond_atom_site_label_2
_ccdc_geom_bond_type
O13   Zn1   S    
C3    C42   A    
C27   C29   A    
C14   C18   A    
C11   H20   S    
O9    Zn1   S    
O2    S1    D    
C39   C41   A    
C15   C19   A    
C11   C19   A    
C1    O1    A    
C13   C18   A    
C34   C40   A    
C24   C26   A    
O10   Zn1   S    
C2    N2    A    
C2    H13   S    
C42   H11   S    
C11   C14   A    
O12   Zn2   S    
C23   H7    S    
C28   C40   S    
C15   H23   S    
C12   O9    A    
C22   H24   S    
O7    Zn2   S    
C22   C25   A    
C4    H15   S    
C31   C33   A    
C7    H1    S    
C30   C32   A    
C39   H10   S    
C31   H5    S    
C37   N4    T    
C20   S1    S    
C1    O8    A    
C32   H6    S    
C6    C18   S    
C34   H8    S    
C24   C35   A    
C34   C39   A    
C32   C35   A    
O14   S1    D    
C4    C6    A    
C8    H12   S    
C5    C7    A    
C6    C8    A    
C38   H9    S    
C17   C21   S    
C29   H3    S    
C17   O13   A    
C2    C4    A    
C9    N1    A    
C3    H14   S    
C27   C41   S    
O5    S2    D    
C13   H21   S    
C16   C20   S    
C14   H22   S    
C12   O7    A    
C16   O12   A    
O4    S2    D    
O3    S1    S    
O1    Zn1   S    
C13   C15   A    
C42   N1    A    
C24   H2    S    
C10   H19   S    
O6    S2    S    
C36   N3    T    
C1    C35   S    
O8    Zn2   S    
C7    C9    A    
C22   C33   A    
C21   S2    S    
N1    Zn1   S    
C30   H4    S    
C3    C5    A    
C26   C37   S    
C5    C19   S    
C10   N2    A    
C25   C27   A    
C23   C38   A    
C26   C28   A    
C23   C41   A    
C9    H18   S    
C28   C30   A    
C29   C31   A    
C38   C40   A    
N2    Zn2   S    
C17   O11   A    
O11   Zn2   S    
C25   C36   S    
C20   C21   D    
C8    C10   A    
C16   O10   A    
C12   C33   S    
H17   O6    S    
H16   O3    S    
