data_mof_unit_31500.cif
_audit_creation_date              2012-10-26T18:27:09-0400
_audit_creation_method            fapswitch 2.2
_symmetry_space_group_name_H-M    P1
_symmetry_Int_Tables_number       1
_space_group_crystal_system       triclinic
_cell_length_a                    15.044623
_cell_length_b                    10.931537
_cell_length_c                    9.693048
_cell_angle_alpha                 89.956553
_cell_angle_beta                  90.007262
_cell_angle_gamma                 90.185338
_cell_volume                      1594.11813119

loop_
_atom_site_label
_atom_site_type_symbol
_atom_type_description
_atom_site_fract_x
_atom_site_fract_y
_atom_site_fract_z
_atom_type_partial_charge
C1    C     C_R   0.500831 0.265335 0.500089 0.556595
C2    C     C_R   0.185664 0.442008 0.409915 -0.149217
C3    C     C_R   0.232550 0.517970 0.500028 0.001299
C4    C     C_R   0.329081 0.506868 0.500068 0.539614
C5    C     C_R   0.187262 0.602247 0.586375 0.005551
C6    C     C_2   0.499920 0.933108 0.386718 -0.161709
C7    C     C_2   0.492927 0.866539 0.502322 -0.122693
C8    C     C_2   0.495854 0.067036 0.386928 -0.164529
C9    C     C_2   0.504838 0.133308 0.502358 -0.120847
C10   C     C_2   0.447014 0.431765 0.922156 -0.018814
C11   C     C_2   0.448492 0.429614 0.077879 -0.019355
C12   C     C_R   0.904798 0.583913 0.599251 0.023880
C13   C     C_R   0.498485 0.734638 0.500073 0.549480
C14   C     C_R   0.671138 0.500414 0.500027 0.551325
C15   C     C_R   0.811702 0.575946 0.598351 -0.137802
C16   C     C_R   0.767623 0.504179 0.500577 -0.013555
C17   C     C_R   0.815252 0.436946 0.403598 -0.137419
C18   C     C_R   0.907750 0.439294 0.405177 0.014560
C19   C     C_R   0.953086 0.513671 0.502199 0.042994
C20   C     C_3   0.237933 0.704354 0.660968 -0.274486
C21   C     C_3   0.220105 0.829016 0.594939 -0.449464
C22   C     C_3   0.904164 0.737273 0.801290 -0.278901
C23   C     C_R   0.955439 0.367900 0.311292 -0.132283
C24   C     C_3   0.867796 0.854583 0.737213 -0.436760
C25   C     C_R   0.047779 0.368780 0.313368 -0.131324
C26   C     C_R   0.093528 0.442986 0.407450 0.009713
C27   C     C_R   0.046626 0.517269 0.501402 0.036796
C28   C     C_R   0.092995 0.595410 0.593096 0.014805
C29   C     C_R   0.043909 0.664333 0.689127 -0.124564
C30   C     C_R   0.950974 0.659346 0.694193 0.013274
Cu1   Cu    Cu3+1 0.500020 0.500020 0.638630 0.922919
Cu2   Cu    Cu3+1 0.499980 0.499980 0.361370 0.931086
H1    H     H_    0.481063 0.907384 0.602240 0.098266
H2    H     H_    0.771939 0.627124 0.670860 0.123949
H3    H     H_    0.540155 0.560866 0.105994 0.203575
H4    H     H_    0.780153 0.380825 0.328949 0.119967
H5    H     H_    0.083518 0.311717 0.240876 0.105924
H6    H     H_    0.241688 0.828215 0.485322 0.159290
H7    H     H_    0.148690 0.853395 0.599462 0.155009
H8    H     H_    0.258541 0.900689 0.650270 0.135416
H9    H     H_    0.221268 0.705398 0.772432 0.131702
H10   H     H_    0.310708 0.693014 0.657664 0.183135
H11   H     H_    0.923104 0.909923 0.693491 0.154008
H12   H     H_    0.486931 0.111845 0.287824 0.145822
H13   H     H_    0.819337 0.834016 0.654041 0.153834
H14   H     H_    0.833851 0.909420 0.817778 0.138130
H15   H     H_    0.850414 0.684777 0.853076 0.139119
H16   H     H_    0.950907 0.763743 0.885079 0.137442
H17   H     H_    0.507910 0.888615 0.287331 0.149161
H18   H     H_    0.517272 0.092136 0.602003 0.100692
H19   H     H_    0.399470 0.372506 0.870799 0.137889
H20   H     H_    0.545666 0.553056 0.893889 0.203783
H21   H     H_    0.403713 0.366386 0.129316 0.131340
H22   H     H_    0.921264 0.310459 0.237068 0.108062
H23   H     H_    0.221497 0.380789 0.341704 0.113539
H24   H     H_    0.077136 0.722840 0.762615 0.111621
N1    N     N_2   0.499020 0.498660 0.846910 -0.348529
N2    N     N_2   0.499000 0.498630 0.153040 -0.347394
O1    O     O_R   0.500020 0.321960 0.617040 -0.492260
O2    O     O_R   0.499980 0.321920 0.382900 -0.494677
O3    O     O_R   0.370270 0.499990 0.617090 -0.506954
O4    O     O_R   0.370240 0.499950 0.382940 -0.496460
O5    O     O_R   0.500020 0.678080 0.617100 -0.507767
O6    O     O_R   0.499980 0.678040 0.382960 -0.493763
O7    O     O_R   0.629760 0.500050 0.617060 -0.497617
O8    O     O_R   0.629730 0.500010 0.382910 -0.495422

loop_
_geom_bond_atom_site_label_1
_geom_bond_atom_site_label_2
_ccdc_geom_bond_type
C22   H16   S    
C6    C7    D    
C17   H4    S    
Cu1   O5    S    
C5    C28   A    
C19   C27   A    
Cu1   O3    S    
C15   H2    S    
C20   H10   S    
Cu1   Cu2   S    
C21   H7    S    
C12   C15   A    
Cu2   N2    S    
C2    H23   S    
C24   H14   S    
Cu1   N1    S    
C23   C25   A    
C2    C3    A    
C14   O8    A    
C3    C5    A    
Cu2   O4    S    
C2    C26   A    
C5    C20   S    
C3    C4    S    
C7    H1    S    
C8    H12   S    
C26   C27   A    
C29   C30   A    
C13   O6    A    
H3    N2    S    
C24   H13   S    
C12   C19   A    
Cu2   O8    S    
C28   C29   A    
C29   H24   S    
C14   O7    A    
C20   H9    S    
C11   H21   S    
C22   C24   S    
C13   O5    A    
C1    O1    A    
C6    H17   S    
C14   C16   S    
C10   C11   S    
C10   H19   S    
C15   C16   A    
C11   N2    D    
C4    O4    A    
C7    C13   S    
C10   N1    D    
C1    C9    S    
C20   C21   S    
Cu2   O6    S    
C23   H22   S    
C17   C18   A    
C18   C19   A    
H20   N1    S    
C1    O2    A    
Cu1   O1    S    
C27   C28   A    
Cu1   O7    S    
C24   H11   S    
Cu2   O2    S    
C8    C9    D    
C6    C8    S    
C22   C30   S    
C25   H5    S    
C25   C26   A    
C12   C30   A    
C4    O3    A    
C22   H15   S    
C21   H6    S    
C18   C23   A    
C16   C17   A    
C9    H18   S    
C21   H8    S    
