data_mof_unit_10784.cif
_audit_creation_date              2012-12-10T17:02:11-0500
_audit_creation_method            fapswitch 2.2
_symmetry_space_group_name_H-M    P1
_symmetry_Int_Tables_number       1
_space_group_crystal_system       triclinic
_cell_length_a                    10.618156
_cell_length_b                    10.647866
_cell_length_c                    10.066169
_cell_angle_alpha                 88.694371
_cell_angle_beta                  89.4645
_cell_angle_gamma                 90.449778
_cell_volume                      1137.70596039

loop_
_atom_site_label
_atom_site_type_symbol
_atom_type_description
_atom_site_fract_x
_atom_site_fract_y
_atom_site_fract_z
_atom_type_partial_charge
C1    C     C_R   0.491990 0.262619 0.501700 0.957501
C2    C     C_2   0.463106 0.131807 0.508167 -0.434565
C3    C     C_2   0.578268 0.566405 0.923655 0.361283
C4    C     C_R   0.260693 0.502521 0.500439 0.852907
C5    C     C_2   0.591255 0.545881 0.072467 -0.133406
C6    C     C_R   0.498659 0.737542 0.498396 0.938026
C7    C     C_R   0.739334 0.503105 0.499375 0.854031
C8    C     C_R   0.132186 0.720308 0.601459 -0.169481
C9    C     C_R   0.066806 0.823367 0.649036 -0.157689
C10   C     C_R   0.935738 0.824040 0.647480 -0.145044
C11   C     C_R   0.869609 0.721682 0.598262 -0.187099
C12   C     C_R   0.066463 0.615303 0.552254 0.093698
C13   C     C_R   0.934496 0.615982 0.550695 0.087091
C14   C     C_3   0.609323 0.786478 0.876657 -0.801235
C15   C     C_3   0.336805 0.371489 0.876188 -0.159633
C16   C     C_3   0.231362 0.927814 0.298345 -0.318630
C17   C     C_R   0.128441 0.510145 0.500771 -0.084666
C18   C     C_R   0.064153 0.410506 0.444721 -0.226112
C19   C     C_R   0.935453 0.411162 0.443256 -0.209676
C20   C     C_R   0.871721 0.511418 0.497918 -0.090484
C21   C     C_2   0.422206 0.932494 0.407104 0.575357
C22   C     C_2   0.496621 0.870584 0.493137 -0.444799
C23   C     C_2   0.435692 0.069018 0.399001 -0.282102
H1    H     H_    0.113950 0.331284 0.404085 0.143803
H2    H     H_    0.560075 0.917206 0.560455 0.112280
H3    H     H_    0.428154 0.116164 0.302574 0.192157
H4    H     H_    0.748426 0.652495 0.884641 0.209446
H5    H     H_    0.667258 0.852972 0.814871 0.234556
H6    H     H_    0.616292 0.813314 0.982442 0.235929
H7    H     H_    0.509762 0.794072 0.844569 0.258196
H8    H     H_    0.329811 0.321300 0.781475 0.194928
H9    H     H_    0.281488 0.460043 0.872737 0.139754
H10   H     H_    0.292846 0.309747 0.954134 0.125171
H11   H     H_    0.243876 0.009635 0.228892 0.160757
H12   H     H_    0.459790 0.087011 0.606276 0.160712
H13   H     H_    0.186951 0.957074 0.393359 0.160023
H14   H     H_    0.165430 0.861151 0.251433 0.197150
H15   H     H_    0.677323 0.577402 0.118906 0.141630
H16   H     H_    0.414178 0.491832 0.105581 0.209377
H17   H     H_    0.233914 0.724579 0.602044 0.150575
H18   H     H_    0.118045 0.903382 0.686078 0.133784
H19   H     H_    0.885171 0.904554 0.683396 0.134799
H20   H     H_    0.768015 0.726999 0.596114 0.151579
H21   H     H_    0.885168 0.332233 0.402010 0.150744
N1    N     N_2   0.501340 0.501330 0.852150 0.074059
N2    N     N_2   0.501380 0.501360 0.147810 -0.176757
N3    N     N_2   0.654732 0.660091 0.859840 -0.295982
O1    O     O_R   0.499980 0.319060 0.613040 -0.601608
O2    O     O_3   0.346940 0.866347 0.319470 -0.585043
O3    O     O_R   0.500020 0.319100 0.386900 -0.604754
O4    O     O_R   0.316750 0.499980 0.613090 -0.654133
O5    O     O_R   0.316790 0.500020 0.386950 -0.607440
O6    O     O_R   0.499980 0.680900 0.613100 -0.627311
O7    O     O_R   0.500020 0.680940 0.386960 -0.556767
O8    O     O_R   0.683210 0.499980 0.613050 -0.601707
O9    O     O_R   0.683250 0.500020 0.386910 -0.620849
O10   O     O_3   0.463546 0.391533 0.909769 -0.562952
Zn1   Zn    Zn3+2 0.499970 0.499970 0.650990 0.977268
Zn2   Zn    Zn3+2 0.500030 0.500030 0.349010 0.971350

loop_
_geom_bond_atom_site_label_1
_geom_bond_atom_site_label_2
_ccdc_geom_bond_type
C2    H12   S    
C12   C17   A    
O6    Zn1   S    
C1    O1    A    
O1    Zn1   S    
C14   N3    S    
O5    Zn2   S    
N2    Zn2   S    
C10   H19   S    
C11   C13   A    
C9    C10   A    
C9    H18   S    
C19   C20   A    
O9    Zn2   S    
C7    O8    A    
C16   H14   S    
C8    C12   A    
C14   H5    S    
C4    O4    A    
C21   O2    S    
C17   C18   A    
C15   H9    S    
O4    Zn1   S    
C21   C22   D    
C16   H13   S    
C15   H8    S    
C15   O10   S    
N1    O10   S    
C5    N2    D    
C7    O9    A    
C4    O5    A    
H16   N2    S    
C18   H1    S    
C4    C17   S    
C3    N3    S    
C7    C20   S    
C14   H7    S    
C18   C19   A    
O7    Zn2   S    
C21   C23   S    
N1    Zn1   S    
C23   H3    S    
C10   C11   A    
O3    Zn2   S    
C14   H6    S    
C16   O2    S    
C6    C22   S    
C19   H21   S    
C8    H17   S    
C12   C13   A    
C1    C2    S    
C1    O3    A    
O8    Zn1   S    
H4    N3    S    
C2    C23   D    
C6    O6    A    
C13   C20   A    
C16   H11   S    
C5    H15   S    
C11   H20   S    
C3    N1    D    
C6    O7    A    
C15   H10   S    
C8    C9    A    
C3    C5    S    
C22   H2    S    
