data_mof_unit_53425.cif
_audit_creation_date              2013-03-05T16:01:06-0500
_audit_creation_method            fapswitch 2.2
_symmetry_space_group_name_H-M    P1
_symmetry_Int_Tables_number       1
_space_group_crystal_system       triclinic
_cell_length_a                    8.269103
_cell_length_b                    12.881134
_cell_length_c                    18.736909
_cell_angle_alpha                 99.865917
_cell_angle_beta                  90.96255
_cell_angle_gamma                 98.940544
_cell_volume                      1940.43085003

loop_
_atom_site_label
_atom_site_type_symbol
_atom_site_description
_atom_site_fract_x
_atom_site_fract_y
_atom_site_fract_z
_atom_type_partial_charge
P1    P     P_3+3 0.041040 0.394770 0.336330 0.459366
O1    O     O_2   0.873090 0.425890 0.325140 -0.366117
O2    O     O_3   0.122420 0.434370 0.414380 -0.441411
O3    O     O_3   0.659500 0.627100 0.368810 -0.347032
O4    O     O_2   0.779080 0.544585 0.245317 -0.405159
O5    O     O_3   0.995248 0.255246 0.319513 -0.562770
O6    O     O_3   0.697350 0.729898 0.247345 -0.529594
H1    H     H_    0.722357 0.844827 0.339807 0.127894
C1    C     C_3   0.597912 0.894767 0.252391 -1.036155
H2    H     H_    0.547914 0.958407 0.288901 0.247222
H3    H     H_    0.712538 0.930077 0.229636 0.282783
P2    P     P_3+3 0.672880 0.754030 0.556100 0.478345
P3    P     P_3+3 0.128756 0.823863 0.403294 0.469811
O7    O     O_2   0.848200 0.768190 0.534530 -0.394109
O8    O     O_3   0.081160 0.685950 0.404810 -0.387659
O9    O     O_2   0.004496 0.878937 0.450617 -0.384473
O10   O     O_3   0.694384 0.791470 0.650553 -0.536668
O11   O     O_3   0.085509 0.845788 0.315820 -0.528802
C2    C     C_3   0.125900 0.760605 0.265439 0.476579
H4    H     H_    0.042170 0.685592 0.268793 0.155218
H5    H     H_    0.254155 0.749026 0.274643 0.029561
C3    C     C_3   0.107929 0.784615 0.189295 -0.971434
H6    H     H_    0.979410 0.793743 0.177391 0.288504
H7    H     H_    0.190418 0.859514 0.184309 0.257897
C4    C     C_3   0.224792 0.798704 0.640170 0.209747
H8    H     H_    0.350943 0.787155 0.625210 0.151297
H9    H     H_    0.136257 0.775728 0.592792 0.155944
C5    C     C_3   0.223817 0.914475 0.671770 0.041795
H10   H     H_    0.286960 0.935379 0.726322 0.173820
H11   H     H_    0.096080 0.931173 0.675905 0.143540
Ba1   Ba    Ba6+2 0.852780 0.548340 0.465070 1.576047
C6    C     C_3   0.962572 0.217567 0.384196 0.398767
H12   H     H_    0.852577 0.246626 0.407106 0.083021
H13   H     H_    0.067004 0.243952 0.424175 0.141147
C7    C     C_3   0.933118 0.096277 0.367609 -0.949323
H14   H     H_    0.819692 0.067780 0.333008 0.260397
H15   H     H_    0.919711 0.063131 0.418211 0.226564
H16   H     H_    0.038251 0.067014 0.338972 0.286696
C8    C     C_3   0.728948 0.705198 0.681299 0.459302
H17   H     H_    0.836758 0.674480 0.656634 0.086746
H18   H     H_    0.621804 0.640233 0.673792 0.123852
C9    C     C_3   0.766419 0.743151 0.762177 -1.031792
H19   H     H_    0.884989 0.798357 0.771071 0.271192
H20   H     H_    0.774985 0.674581 0.789705 0.224265
H21   H     H_    0.667445 0.784918 0.786616 0.267279
P4    P     P_3+3 0.148670 0.605320 0.663680 0.477916
O12   O     O_2   0.316610 0.574140 0.674900 -0.361691
O13   O     O_3   0.067290 0.565720 0.585630 -0.407281
O14   O     O_3   0.530210 0.372990 0.631200 -0.314951
O15   O     O_3   0.178122 0.742210 0.694699 -0.614986
P5    P     P_3+3 0.063054 0.177952 0.596635 0.534110
O16   O     O_3   0.611340 0.366290 0.463630 -0.397934
O17   O     O_3   0.108550 0.314140 0.595200 -0.400653
O18   O     O_2   0.184701 0.126687 0.546183 -0.295411
O19   O     O_3   0.115866 0.158092 0.683838 -0.463187
Ba2   Ba    Ba6+2 0.337060 0.451750 0.534940 1.588110
P6    P     P_3+3 0.641149 0.605858 0.273987 0.463719
C10   C     C_3   0.632130 0.808800 0.294275 0.452914
H22   H     H_    0.515231 0.777827 0.316870 0.056910
H23   H     H_    0.506634 0.859539 0.207180 0.267702
O20   O     O_3   0.578370 0.633800 0.536380 -0.395824
C11   C     C_3   0.461340 0.265280 0.313930 0.442912
H24   H     H_    0.339998 0.282712 0.332500 0.088875
H25   H     H_    0.554221 0.339009 0.324671 0.111601
C12   C     C_3   0.446297 0.225090 0.232516 -1.018480
H26   H     H_    0.353690 0.151421 0.219961 0.276575
H27   H     H_    0.407599 0.286627 0.204130 0.215268
H28   H     H_    0.566367 0.207200 0.212460 0.264719
P7    P     P_3+3 0.522929 0.230568 0.442094 0.426600
O21   O     O_2   0.341510 0.231850 0.465510 -0.374699
O22   O     O_3   0.510351 0.186148 0.348203 -0.586869
H29   H     H_    0.140955 0.718262 0.149094 0.224788
C13   C     C_3   0.066767 0.240551 0.734323 0.417607
H30   H     H_    0.140486 0.318708 0.729551 0.128134
H31   H     H_    0.936234 0.246005 0.724459 0.041704
C14   C     C_3   0.091578 0.223548 0.812610 -0.717011
H32   H     H_    0.221948 0.250632 0.830813 0.209986
H33   H     H_    0.018457 0.274626 0.848402 0.129471
P8    P     P_3+3 0.550200 0.386582 0.725559 0.469246
C15   C     C_3   0.591265 0.210769 0.772554 1.004501
H34   H     H_    0.705844 0.263576 0.793161 -0.091314
O23   O     O_2   0.424891 0.458412 0.754986 -0.416392
O24   O     O_3   0.468261 0.262440 0.747901 -0.524008
H35   H     H_    0.626131 0.120724 0.858194 0.249032
C16   C     C_3   0.526935 0.153933 0.833667 -0.896177
H36   H     H_    0.426681 0.087686 0.812473 0.291163
H37   H     H_    0.480238 0.210603 0.876788 0.200234
C17   C     C_R   0.989330 0.457195 0.049055 0.007159
C18   C     C_R   0.886290 0.406769 0.096445 0.118864
C19   C     C_R   0.721114 0.368756 0.075035 -0.176888
C20   C     C_R   0.659106 0.379938 0.007272 -0.197114
C21   C     C_R   0.762154 0.426270 0.958504 0.138665
C22   C     C_R   0.928013 0.464757 0.979174 0.012415
C23   C     C_R   0.702670 0.431782 0.888845 -0.265042
C24   C     C_R   0.809555 0.465844 0.836323 -0.023476
C25   C     C_R   0.974413 0.510152 0.857974 0.000663
C26   C     C_R   0.032270 0.510509 0.930031 -0.016290
C27   C     C_R   0.758848 0.452085 0.762085 0.130724
C28   C     C_R   0.869824 0.486365 0.711918 -0.524947
C29   C     C_R   0.027388 0.541253 0.733334 0.291785
C30   C     C_R   0.081471 0.553730 0.807896 -0.057760
C31   C     C_R   0.153608 0.498836 0.071094 -0.016373
C32   C     C_R   0.214023 0.493467 0.141776 -0.005881
C33   C     C_R   0.108688 0.444509 0.190489 -0.056355
C34   C     C_R   0.948449 0.396295 0.164819 -0.125241
H38   H     H_    0.639096 0.331482 0.111123 0.134697
H39   H     H_    0.530809 0.350633 0.992558 0.136731
H40   H     H_    0.829434 0.475324 0.655517 0.175513
H41   H     H_    0.574069 0.403611 0.874846 0.155618
H42   H     H_    0.868759 0.351974 0.198038 0.164960
C35   C     C_R   0.239228 0.606803 0.834362 -0.121943
C36   C     C_R   0.298723 0.603086 0.904596 0.107439
C37   C     C_R   0.195754 0.553573 0.952396 0.008686
C38   C     C_R   0.256353 0.547993 0.022819 0.011953
C39   C     C_R   0.461606 0.646326 0.927323 -0.172899
C40   C     C_R   0.522018 0.639794 0.996371 -0.179419
C41   C     C_R   0.420326 0.591060 0.044583 0.118517
C42   C     C_R   0.379140 0.538260 0.163665 -0.054625
C43   C     C_R   0.480708 0.584998 0.113984 -0.215359
C44   C     C_R   0.437597 0.534475 0.234528 0.207485
C45   C     C_R   0.333689 0.483819 0.280731 -0.428638
C46   C     C_R   0.168218 0.445345 0.262790 0.238662
H43   H     H_    0.320263 0.648559 0.800381 0.174457
H44   H     H_    0.543284 0.683927 0.891257 0.136086
H45   H     H_    0.648769 0.672882 0.012054 0.140819
H46   H     H_    0.608445 0.615692 0.128069 0.187767
H47   H     H_    0.382330 0.475976 0.333047 0.185658
C47   C     C_R   0.760557 0.183876 0.532263 -0.421013
C48   C     C_R   0.437070 0.812551 0.466686 -0.470800
C49   C     C_R   0.405952 0.986216 0.444349 -0.142760
C50   C     C_R   0.342780 0.878932 0.439267 0.162277
C51   C     C_R   0.582571 0.851127 0.508322 0.200903
C52   C     C_R   0.646684 0.962360 0.515568 0.015407
C53   C     C_R   0.557144 0.029902 0.482299 -0.008797
C54   C     C_R   0.616610 0.140699 0.491106 0.289693
C55   C     C_R   0.854556 0.118609 0.560452 0.195718
C56   C     C_R   0.796686 0.008785 0.553982 -0.067565
H48   H     H_    0.331740 0.034811 0.421025 0.177844
H49   H     H_    0.870803 0.961260 0.578456 0.174549
H50   H     H_    0.806388 0.268415 0.537735 0.146153
Cl1   Cl    Cl    0.331060 0.992140 0.615103 -0.553015
C57   C     C_2   0.040300 0.109718 0.822138 1.185549
O25   O     O_2   0.135449 0.064292 0.851061 -0.673773
O26   O     O_R   0.882878 0.056886 0.799804 -0.773095
H51   H     H_    0.861286 0.982108 0.811311 0.323852
Cl2   Cl    Cl    0.643386 0.115660 0.700879 -0.599849
C58   C     C_2   0.373451 0.701213 0.454572 1.126780
O27   O     O_2   0.372467 0.649090 0.394287 -0.689993
O28   O     O_R   0.285338 0.660706 0.508029 -0.781586
H52   H     H_    0.209966 0.594143 0.486293 0.397424

loop_
_geom_bond_atom_site_label_1
_geom_bond_atom_site_label_2
_geom_bond_distance
_ccdc_geom_bond_type
O5    C6    1.396167 S    
C34   H42   1.079895 S    
C52   C56   1.416393 A    
C13   H30   1.111336 S    
Ba1   O20   2.918937 S    
P8    C27   1.861989 S    
C24   C25   1.417375 A    
Ba1   O16   2.829683 S    
O2    Ba2   2.805627 S    
C24   C27   1.419480 A    
C8    H18   1.109071 S    
C16   H36   1.107286 S    
C4    C5    1.508580 S    
C28   H40   1.081876 S    
C56   H49   1.078909 S    
C11   H24   1.110517 S    
P3    O11   1.750498 S    
C21   C22   1.407773 A    
C5    H10   1.110843 S    
C2    H5    1.108419 S    
C14   H33   1.110983 S    
C45   H47   1.079892 S    
P7    O21   1.571821 D    
C47   C55   1.389764 A    
C15   H34   1.098571 S    
C33   C46   1.431283 A    
C39   C40   1.399652 A    
P1    Ba1   3.406365 S    
C40   C41   1.404630 A    
P1    O1    1.524946 D    
O10   C8    1.400391 S    
P7    O22   1.750280 S    
P1    C46   1.890077 S    
C33   C34   1.411801 A    
C11   H25   1.111281 S    
O16   P7    1.762034 S    
H1    C10   1.111384 S    
C42   C43   1.412630 A    
C58   O27   1.210310 D    
C51   C52   1.430824 A    
C12   H27   1.109582 S    
P2    O10   1.751146 S    
Ba1   Ba2   4.607501 S    
C1    H2    1.110667 S    
O7    Ba1   2.913241 S    
O6    C10   1.406075 S    
P5    O19   1.754951 S    
C11   C12   1.521017 S    
C48   C51   1.397468 A    
C15   Cl2   1.763512 S    
P7    C54   1.844627 S    
C25   C30   1.425891 A    
C13   H31   1.107020 S    
C49   C53   1.414101 A    
C9    H20   1.107037 S    
C15   O24   1.410987 S    
C3    H29   1.109640 S    
C36   C37   1.409423 A    
C8    C9    1.521421 S    
C16   H37   1.109373 S    
P4    O13   1.567261 S    
C58   O28   1.375440 S    
C35   H43   1.078605 S    
P1    O5    1.750167 S    
O3    Ba1   2.805505 S    
C6    C7    1.519742 S    
C20   H39   1.083530 S    
C7    H16   1.110851 S    
C14   H32   1.109133 S    
C19   H38   1.083133 S    
C47   C54   1.391853 A    
C20   C21   1.404364 A    
O11   C2    1.405766 S    
C4    H8    1.110246 S    
O14   P8    1.748977 S    
O1    Ba1   2.840802 S    
P1    O2    1.567261 S    
C9    H21   1.110854 S    
C6    H13   1.105514 S    
O3    P6    1.750986 S    
C15   C16   1.522121 S    
C31   C38   1.412728 A    
P5    C55   1.841179 S    
C28   C29   1.399059 A    
C12   H28   1.110898 S    
C25   C26   1.423814 A    
C2    C3    1.520403 S    
C21   C23   1.404116 A    
P3    C50   1.869627 S    
C23   C24   1.413794 A    
P4    O12   1.525292 D    
H35   C16   1.109411 S    
O2    Ba1   2.939303 S    
C1    H3    1.110455 S    
C45   C46   1.395541 A    
P6    C44   1.862640 S    
P2    O7    1.503698 D    
C12   H26   1.110773 S    
Ba2   O21   2.913478 S    
C40   H45   1.083718 S    
P3    O8    1.764072 S    
P2    Ba1   3.450187 S    
C52   C53   1.436767 A    
C13   C14   1.534838 S    
C3    H7    1.110535 S    
C32   C42   1.421476 A    
C4    H9    1.110139 S    
C9    H19   1.109940 S    
P4    Ba2   3.406967 S    
C49   H48   1.078664 S    
C22   C26   1.411779 A    
C8    H17   1.107124 S    
C44   C45   1.399208 A    
C37   C38   1.420871 A    
O17   Ba2   2.775574 S    
O13   Ba2   2.940207 S    
P4    C29   1.883063 S    
C17   C22   1.420452 A    
C1    C10   1.519833 S    
C39   H44   1.083161 S    
P2    C51   1.890746 S    
C35   C36   1.408277 A    
C7    H15   1.105030 S    
C57   O25   1.221710 D    
C4    O15   1.379528 S    
C3    H6    1.110332 S    
O26   H51   1.012515 S    
P8    O23   1.541475 D    
C17   C31   1.407962 A    
O8    Ba1   2.774940 S    
C53   C54   1.415746 A    
C5    Cl1   1.741964 S    
C30   C35   1.414188 A    
O14   Ba2   2.804845 S    
P4    O15   1.736923 S    
C23   H41   1.081386 S    
O4    P6    1.538662 D    
Ba1   O13   2.804975 S    
C1    H23   1.110647 S    
C6    H12   1.102516 S    
P5    O18   1.538181 D    
C2    H4    1.109634 S    
C41   C43   1.404083 A    
C49   C50   1.385835 A    
C10   H22   1.106605 S    
O28   H52   0.997576 S    
P8    O24   1.758866 S    
P2    O20   1.601177 S    
C19   C20   1.399801 A    
C5    H11   1.111591 S    
C29   C30   1.434355 A    
C11   O22   1.399845 S    
C57   O26   1.393384 S    
C47   H50   1.082653 S    
C31   C32   1.424153 A    
C42   C44   1.416654 A    
C48   C58   1.426535 S    
C38   C41   1.408056 A    
O19   C13   1.410827 S    
C43   H46   1.080161 S    
C17   C18   1.409755 A    
C27   C28   1.402104 A    
P3    O9    1.544961 D    
C18   C34   1.407953 A    
C32   C33   1.429224 A    
Ba2   O20   2.829062 S    
C55   C56   1.404919 A    
C7    H14   1.107139 S    
P5    O17   1.740982 S    
C18   C19   1.404512 A    
C26   C37   1.406791 A    
O6    P6    1.751669 S    
C36   C39   1.404268 A    
O16   Ba2   2.918030 S    
O12   Ba2   2.841140 S    
C48   C50   1.395454 A    
C14   C57   1.503523 S    
