data_mof_unit_57004.cif
_audit_creation_date              2012-12-10T18:31:56-0500
_audit_creation_method            fapswitch 2.2
_symmetry_space_group_name_H-M    P1
_symmetry_Int_Tables_number       1
_space_group_crystal_system       triclinic
_cell_length_a                    10.649922
_cell_length_b                    15.021085
_cell_length_c                    15.44533
_cell_angle_alpha                 82.626533
_cell_angle_beta                  89.984788
_cell_angle_gamma                 104.245831
_cell_volume                      2373.75269583

loop_
_atom_site_label
_atom_site_type_symbol
_atom_type_description
_atom_site_fract_x
_atom_site_fract_y
_atom_site_fract_z
_atom_type_partial_charge
C1    C     C_R   0.477234 0.442034 0.662010 0.872986
C2    C     C_3   0.121111 0.499616 0.500996 0.170307
C3    C     C_3   0.066459 0.483872 0.409758 -0.469983
C4    C     C_3   0.104060 0.595352 0.520979 -0.381709
C5    C     C_R   0.444225 0.406606 0.753812 -0.049408
C6    C     C_R   0.500530 0.590279 0.245906 -0.063351
C7    C     C_R   0.395417 0.281831 0.873733 -0.210102
C8    C     C_R   0.425599 0.312477 0.785473 -0.202604
C9    C     C_R   0.425733 0.468497 0.809583 -0.260249
C10   C     C_R   0.398323 0.440034 0.898648 0.087818
C11   C     C_R   0.385984 0.345384 0.930983 0.178080
C12   C     C_R   0.742055 0.500578 0.500401 0.831649
C13   C     C_R   0.395422 0.504854 0.957235 0.071443
C14   C     C_R   0.402625 0.476579 0.047497 0.069326
C15   C     C_R   0.379194 0.380805 0.078147 -0.235427
C16   C     C_R   0.368955 0.316083 0.020341 -0.240754
C17   C     C_R   0.390750 0.597508 0.928954 -0.237701
C18   C     C_R   0.408059 0.662732 0.987027 -0.237769
C19   C     C_R   0.435256 0.638370 0.073803 0.177853
C20   C     C_R   0.435013 0.545258 0.103958 0.091570
C21   C     C_R   0.464492 0.705864 0.130790 -0.209461
C22   C     C_R   0.495223 0.681602 0.217062 -0.204609
C23   C     C_R   0.515161 0.557706 0.337805 0.860932
C24   C     C_R   0.475034 0.524289 0.188356 -0.267673
C25   C     C_R   0.709298 0.852395 0.622143 -0.310205
C26   C     C_R   0.668310 0.759524 0.611549 0.324456
C27   C     C_R   0.514254 0.793192 0.508331 -0.116025
C28   C     C_R   0.549092 0.888170 0.520539 -0.003941
C29   C     C_R   0.650984 0.916351 0.577519 0.135182
C30   C     C_R   0.487689 0.955993 0.479108 0.093085
C31   C     C_R   0.529368 0.049629 0.497435 0.081824
C32   C     C_R   0.636741 0.074232 0.550520 -0.240842
C33   C     C_R   0.695333 0.008487 0.590309 -0.205049
C34   C     C_R   0.257952 0.499642 0.499939 0.862695
C35   C     C_R   0.385890 0.933741 0.420917 -0.244998
C36   C     C_R   0.325767 0.000597 0.382740 -0.217029
C37   C     C_R   0.362215 0.091013 0.403074 0.181790
C38   C     C_R   0.462977 0.116214 0.461783 -0.002610
C39   C     C_R   0.297779 0.156612 0.366028 -0.323814
C40   C     C_R   0.332068 0.245723 0.388869 0.009385
C41   C     C_R   0.490833 0.207244 0.483940 -0.068967
C42   C     C_3   0.899443 0.422258 0.570887 -0.448867
C43   C     C_3   0.043934 0.420338 0.570322 -0.054186
C44   C     C_3   0.922750 0.485419 0.409687 -0.393411
C45   C     C_3   0.961367 0.594863 0.523811 -0.412635
C46   C     C_3   0.878746 0.501004 0.501168 0.172126
H1    H     H_    0.839978 0.353959 0.556645 0.163456
H2    H     H_    0.155227 0.651338 0.469351 0.169870
H3    H     H_    0.908233 0.541715 0.359325 0.163536
H4    H     H_    0.121690 0.538821 0.358825 0.170990
H5    H     H_    0.354649 0.243523 0.045947 0.144457
H6    H     H_    0.488667 0.456305 0.210241 0.161972
H7    H     H_    0.513105 0.733601 0.261131 0.156259
H8    H     H_    0.404961 0.733212 0.963149 0.144864
H9    H     H_    0.384334 0.209205 0.897782 0.134662
H10   H     H_    0.436400 0.263055 0.742513 0.156870
H11   H     H_    0.438845 0.539876 0.782721 0.161601
H12   H     H_    0.865961 0.432466 0.636363 0.153472
H13   H     H_    0.367123 0.354094 0.146764 0.146388
H14   H     H_    0.371276 0.621057 0.862540 0.143246
H15   H     H_    0.462788 0.777010 0.108784 0.134569
H16   H     H_    0.776015 0.030079 0.632105 0.139914
H17   H     H_    0.560871 0.231723 0.531079 0.123607
H18   H     H_    0.283047 0.297129 0.360679 0.128614
H19   H     H_    0.248400 0.980901 0.338059 0.141908
H20   H     H_    0.787003 0.874754 0.666011 0.149502
H21   H     H_    0.441667 0.766369 0.463494 0.135740
H22   H     H_    0.679370 0.144167 0.562411 0.131589
H23   H     H_    0.350441 0.865110 0.403282 0.133830
H24   H     H_    0.221239 0.139025 0.320335 0.141724
H25   H     H_    0.050912 0.352807 0.550600 0.156430
H26   H     H_    0.863990 0.418603 0.391633 0.184447
H27   H     H_    0.076309 0.416075 0.392628 0.177061
H28   H     H_    0.945325 0.653315 0.476613 0.183697
H29   H     H_    0.933615 0.605912 0.590339 0.165136
H30   H     H_    0.147061 0.612758 0.584188 0.182345
N1    N     N_R   0.573860 0.731700 0.552730 -0.118397
N2    N     N_R   0.426060 0.268290 0.447230 -0.098768
O1    O     O_R   0.462770 0.383110 0.605620 -0.613405
O2    O     O_R   0.510160 0.531900 0.639510 -0.626408
O3    O     O_R   0.661510 0.425600 0.483070 -0.624560
O4    O     O_R   0.708900 0.574390 0.516960 -0.648330
O5    O     O_R   0.489840 0.468100 0.360490 -0.619760
O6    O     O_R   0.537230 0.616890 0.394380 -0.616072
O7    O     O_R   0.291100 0.425610 0.483040 -0.629242
O8    O     O_R   0.338490 0.574400 0.516930 -0.629323
Zn1   Zn    Zn3+2 0.468350 0.400660 0.477370 0.932374
Zn2   Zn    Zn3+2 0.531650 0.599340 0.522630 0.922338
C47   C     C_3   0.734976 0.694996 0.666386 -0.400543
C48   C     C_3   0.702815 0.689555 0.763764 -0.892147
H31   H     H_    0.596861 0.677555 0.775306 0.263865
H32   H     H_    0.736003 0.631722 0.801027 0.254096
H33   H     H_    0.752314 0.754852 0.788797 0.253754
H34   H     H_    0.710759 0.624743 0.649911 0.265028
H35   H     H_    0.841595 0.720784 0.655098 0.173444
N3    N     N_3   0.098374 0.426566 0.657373 -0.470510
H36   H     H_    0.053656 0.366057 0.698441 0.188018
H37   H     H_    0.076518 0.481757 0.683980 0.193665

loop_
_geom_bond_atom_site_label_1
_geom_bond_atom_site_label_2
_ccdc_geom_bond_type
N2    Zn1   S    
C24   H6    S    
O5    Zn1   S    
C19   C20   A    
C16   H5    S    
C7    H9    S    
C42   H12   S    
O1    Zn1   S    
C7    C8    A    
C45   C46   S    
C26   C47   S    
C7    C11   A    
C23   O5    A    
C30   C35   A    
C1    C5    S    
C36   C37   A    
C19   C21   A    
C34   O8    A    
C30   C31   A    
O8    Zn2   S    
C15   C16   A    
C6    C22   A    
C29   C33   A    
C18   C19   A    
C42   C46   S    
C47   H34   S    
C20   C24   A    
N1    Zn2   S    
C33   H16   S    
N3    H37   S    
C9    C10   A    
C21   H15   S    
C32   H22   S    
C2    C34   S    
C21   C22   A    
C8    H10   S    
C3    H4    S    
C44   C46   S    
C43   N3    S    
C22   H7    S    
C4    C45   S    
O7    Zn1   S    
C25   C29   A    
C3    C44   S    
C26   N1    A    
C23   O6    A    
C14   C20   A    
C38   C41   A    
C12   C46   S    
C41   N2    A    
C36   H19   S    
C25   C26   A    
C44   H3    S    
C45   H28   S    
C34   O7    A    
C47   H35   S    
C2    C4    S    
C5    C9    A    
C37   C38   A    
C11   C16   A    
C48   H32   S    
C31   C32   A    
C2    C43   S    
C6    C24   A    
N3    H36   S    
C17   C18   A    
C12   O4    A    
O3    Zn1   S    
C1    O1    A    
C40   N2    A    
C42   C43   S    
C41   H17   S    
C39   C40   A    
C48   H33   S    
C4    H2    S    
C28   C29   A    
C43   H25   S    
C15   H13   S    
C25   H20   S    
O6    Zn2   S    
C27   N1    A    
C10   C13   A    
C5    C8    A    
C40   H18   S    
C31   C38   A    
C13   C17   A    
C45   H29   S    
C32   C33   A    
C28   C30   A    
C2    C3    S    
O2    Zn2   S    
C48   H31   S    
O4    Zn2   S    
C6    C23   S    
C39   H24   S    
C12   O3    A    
C44   H26   S    
C9    H11   S    
C42   H1    S    
C3    H27   S    
C4    H30   S    
C27   H21   S    
C10   C11   A    
C18   H8    S    
C17   H14   S    
C35   H23   S    
C37   C39   A    
C27   C28   A    
C1    O2    A    
C14   C15   A    
C35   C36   A    
C47   C48   S    
C13   C14   A    
