data_mof_unit_35423.cif
_audit_creation_date              2012-12-11T16:17:53-0500
_audit_creation_method            fapswitch 2.2
_symmetry_space_group_name_H-M    P1
_symmetry_Int_Tables_number       1
_space_group_crystal_system       triclinic
_cell_length_a                    14.056525
_cell_length_b                    14.055012
_cell_length_c                    30.126359
_cell_angle_alpha                 97.199594
_cell_angle_beta                  97.197237
_cell_angle_gamma                 61.207797
_cell_volume                      5160.50920954

loop_
_atom_site_label
_atom_site_type_symbol
_atom_type_description
_atom_site_fract_x
_atom_site_fract_y
_atom_site_fract_z
_atom_type_partial_charge
C1    C     C_R   0.385703 0.711421 0.442566 0.584877
C2    C     C_R   0.413306 0.265560 0.221892 0.037024
C3    C     C_R   0.417722 0.273584 0.268694 -0.112006
C4    C     C_R   0.333322 0.356893 0.292160 -0.041974
C5    C     C_R   0.318199 0.340924 0.198162 -0.040170
C6    C     C_1   0.305302 0.325326 0.150056 0.051972
C7    C     C_1   0.348073 0.360779 0.340334 0.007263
C8    C     C_1   0.292726 0.305264 0.110532 0.089511
C9    C     C_R   0.769707 0.361769 0.401289 -0.037577
C10   C     C_R   0.745745 0.288712 0.372084 -0.113348
C11   C     C_R   0.776205 0.262664 0.328163 -0.009461
C12   C     C_R   0.398925 0.381369 0.426374 0.562854
C13   C     C_R   0.833496 0.309940 0.313190 -0.041167
C14   C     C_R   0.870984 0.372460 0.343554 0.043128
C15   C     C_R   0.837934 0.399588 0.388032 0.037836
C16   C     C_R   0.885707 0.375046 0.166638 -0.079010
C17   C     C_R   0.903209 0.372483 0.122170 -0.103459
C18   C     C_R   0.861319 0.222078 0.103013 0.012689
C19   C     C_R   0.845312 0.224992 0.148467 -0.044126
C20   C     C_R   0.861218 0.298744 0.180050 0.003301
C21   C     C_1   0.853810 0.296876 0.226653 0.024198
C22   C     C_1   0.847180 0.300008 0.266112 0.013644
C23   C     C_R   0.710935 0.404607 0.442673 0.569429
C24   C     C_R   0.897673 0.292552 0.090279 -0.028303
C25   C     C_R   0.368204 0.768905 0.402262 0.018070
C26   C     C_R   0.459346 0.732603 0.377399 -0.139287
C27   C     C_R   0.450594 0.770006 0.335649 0.055544
C28   C     C_R   0.346966 0.845960 0.318245 0.010627
C29   C     C_R   0.256144 0.886202 0.343375 -0.139540
C30   C     C_R   0.265515 0.849961 0.385804 0.011771
C31   C     C_R   0.228530 0.880232 0.159153 0.018182
C32   C     C_R   0.225827 0.876202 0.112014 0.009687
C33   C     C_R   0.389557 0.899063 0.118876 -0.006389
C34   C     C_R   0.389613 0.711697 0.568205 0.566043
C35   C     C_R   0.395817 0.896534 0.165912 0.005683
C36   C     C_R   0.312677 0.891781 0.185752 -0.057750
C37   C     C_1   0.320507 0.885349 0.233455 0.094144
C38   C     C_1   0.330209 0.872220 0.272618 0.087213
C39   C     C_R   0.298039 0.899906 0.092353 -0.046754
C40   C     C_R   0.369041 0.364499 0.594419 -0.026893
C41   C     C_R   0.450295 0.305119 0.627942 0.031062
C42   C     C_R   0.423695 0.320246 0.672038 -0.143568
C43   C     C_R   0.317467 0.386005 0.683533 -0.035178
C44   C     C_R   0.232304 0.434699 0.650251 0.069453
C45   C     C_R   0.402938 0.382996 0.552809 0.573425
C46   C     C_R   0.258299 0.424787 0.605239 0.034961
C47   C     C_R   0.332605 0.393413 0.849466 -0.137307
C48   C     C_R   0.333543 0.362776 0.892204 -0.007609
C49   C     C_R   0.237520 0.261149 0.857914 0.004923
C50   C     C_R   0.237917 0.293662 0.816108 -0.071456
C51   C     C_R   0.284521 0.359272 0.811943 0.000122
C52   C     C_1   0.290747 0.381395 0.767785 0.004109
C53   C     C_1   0.299165 0.389100 0.729500 0.013548
C54   C     C_R   0.285577 0.295898 0.896421 0.029044
C55   C     C_1   0.762737 0.376362 0.612451 0.064565
C56   C     C_R   0.713050 0.407792 0.568540 0.564757
C57   C     C_R   0.769279 0.422974 0.728620 -0.161384
C58   C     C_R   0.780241 0.410463 0.774547 0.018576
C59   C     C_R   0.897168 0.213754 0.759257 -0.021962
C60   C     C_R   0.881844 0.227848 0.712428 0.049398
C61   C     C_R   0.819107 0.334038 0.697738 0.034926
C62   C     C_R   0.846024 0.305493 0.790193 0.012452
C63   C     C_1   0.873109 0.293335 0.837889 0.031640
C64   C     C_1   0.793171 0.354682 0.650832 0.057958
C65   C     C_1   0.903459 0.282921 0.877062 0.049333
C66   C     C_1   0.375649 0.757718 0.613585 0.055995
C67   C     C_1   0.367273 0.366732 0.380266 0.055779
C68   C     C_R   0.316151 0.748086 0.723819 0.032398
C69   C     C_R   0.308775 0.770053 0.770315 -0.138891
C70   C     C_R   0.375607 0.901279 0.770970 0.052196
C71   C     C_R   0.382142 0.880106 0.724368 -0.147483
C72   C     C_R   0.352749 0.804802 0.700648 0.045914
C73   C     C_R   0.337404 0.845839 0.793976 0.067328
C74   C     C_1   0.316832 0.872249 0.840804 0.056397
C75   C     C_1   0.364847 0.783873 0.653024 0.030202
C76   C     C_1   0.294602 0.901843 0.879161 0.052885
C77   C     C_R   0.949951 0.273529 0.048063 0.524496
C78   C     C_R   0.240861 0.436878 0.269112 0.047480
C79   C     C_R   0.275563 0.270348 0.065245 0.576032
C80   C     C_R   0.261602 0.952801 0.048899 0.574225
C81   C     C_R   0.951984 0.269191 0.922124 0.538339
C82   C     C_R   0.276311 0.266773 0.939998 0.586829
C83   C     C_R   0.261740 0.950503 0.923012 0.545512
C84   C     C_R   0.231721 0.426539 0.221517 0.039432
Cr1   Cr    Cr6+3 0.581000 0.584320 0.508140 1.072533
Cr2   Cr    Cr6+3 0.339110 0.576430 0.496080 1.142490
Cr3   Cr    Cr6+3 0.579910 0.339270 0.495810 1.093997
Cr4   Cr    Cr6+3 0.082090 0.079210 0.982490 1.059701
Cr5   Cr    Cr6+3 0.082460 0.324610 0.994920 1.080862
Cr6   Cr    Cr6+3 0.323630 0.087860 0.996130 1.117159
H1    H     H_    0.821477 0.169466 0.159468 0.188254
H2    H     H_    0.177231 0.945098 0.329452 0.118924
H3    H     H_    0.538215 0.671030 0.390032 0.182511
H4    H     H_    0.370196 0.443063 0.845263 0.110452
H5    H     H_    0.202789 0.266760 0.786285 0.172974
H6    H     H_    0.486724 0.277629 0.697830 0.145968
H7    H     H_    0.718871 0.503318 0.716486 0.101064
H8    H     H_    0.278734 0.728879 0.788291 0.103147
H9    H     H_    0.411205 0.922070 0.706354 0.105645
H10   H     H_    0.488826 0.215436 0.287467 0.217386
H11   H     H_    0.928631 0.428951 0.113579 0.194857
H12   H     H_    0.895776 0.433907 0.190946 0.196511
H13   H     H_    0.696285 0.256887 0.382591 0.193139
O1    O     O_R   0.688580 0.499770 0.460490 -0.478505
O2    O     O_R   0.348600 0.476260 0.536540 -0.476529
O3    O     O_R   0.494840 0.313840 0.539010 -0.465388
O4    O     O_R   0.672120 0.351750 0.545910 -0.476612
O5    O     O_3   0.500010 0.500010 0.500010 -0.293104
O6    O     O_R   0.167510 0.972920 0.030390 -0.477614
O7    O     O_R   0.990840 0.178580 0.027590 -0.510343
O8    O     O_R   0.972840 0.345510 0.038590 -0.495933
O9    O     O_R   0.181550 0.320660 0.045200 -0.487200
O10   O     O_R   0.346150 0.177650 0.050510 -0.461710
O11   O     O_R   0.314200 0.996600 0.036060 -0.478483
O12   O     O_R   0.480400 0.672610 0.462660 -0.515200
O13   O     O_R   0.168690 0.969990 0.933130 -0.501861
O14   O     O_R   0.991920 0.175870 0.937430 -0.508674
O15   O     O_R   0.974010 0.342590 0.941330 -0.488625
O16   O     O_R   0.182630 0.317940 0.955040 -0.506311
O17   O     O_R   0.347320 0.174720 0.953250 -0.473571
O18   O     O_R   0.315290 0.993890 0.945900 -0.485420
O19   O     O_3   0.162730 0.163890 0.991180 -0.292380
O20   O     O_R   0.315310 0.685650 0.451800 -0.449286
O21   O     O_R   0.346220 0.474990 0.446280 -0.474792
O22   O     O_R   0.492270 0.312460 0.441630 -0.503575
O23   O     O_R   0.669740 0.350480 0.455640 -0.507876
O24   O     O_R   0.691150 0.501150 0.557860 -0.500723
O25   O     O_R   0.482790 0.673890 0.552920 -0.507491
O26   O     O_R   0.317880 0.687030 0.549170 -0.454259
C85   C     C_2   0.154187 0.529309 0.294688 0.597519
O27   O     O_2   0.178880 0.575746 0.327538 -0.498810
O28   O     O_R   0.044424 0.563380 0.281255 -0.628755
H14   H     H_    0.993712 0.626666 0.301343 0.369587
C86   C     C_2   0.837328 0.147709 0.069699 0.293299
H15   H     H_    0.831603 0.156142 0.034057 0.121157
O29   O     O_2   0.820733 0.077492 0.081703 -0.442023
C87   C     C_2   0.744991 0.188077 0.298003 0.246499
H16   H     H_    0.761722 0.171812 0.262896 0.132212
O30   O     O_2   0.701276 0.142299 0.312232 -0.479455
C88   C     C_2   0.155319 0.837628 0.082962 0.623540
O31   O     O_2   0.193646 0.770289 0.051495 -0.479591
O32   O     O_R   0.046020 0.878487 0.090703 -0.610869
H17   H     H_    0.007732 0.845667 0.068305 0.358974
C89   C     C_2   0.143866 0.873107 0.181382 0.606503
O33   O     O_2   0.049175 0.944422 0.177554 -0.465375
O34   O     O_R   0.173836 0.788793 0.208988 -0.664327
H18   H     H_    0.110416 0.797779 0.224989 0.367796
C90   C     C_2   0.166947 0.900652 0.411388 0.277599
H19   H     H_    0.087133 0.943503 0.393922 0.119068
O35   O     O_2   0.173279 0.899965 0.452136 -0.453384
C91   C     C_2   0.489128 0.898931 0.194517 0.657396
O36   O     O_2   0.472366 0.964927 0.227045 -0.450533
O37   O     O_R   0.595846 0.825423 0.184308 -0.635873
H20   H     H_    0.651992 0.835169 0.206207 0.368201
C92   C     C_2   0.478299 0.901004 0.097413 0.644447
O38   O     O_2   0.511276 0.966040 0.111777 -0.449273
O39   O     O_R   0.522456 0.829242 0.060081 -0.659164
H21   H     H_    0.581392 0.838678 0.048069 0.348178
C93   C     C_2   0.133495 0.506196 0.195937 0.632160
O40   O     O_2   0.083641 0.474216 0.167231 -0.533647
O41   O     O_R   0.098253 0.617634 0.204715 -0.645645
H22   H     H_    0.030660 0.663476 0.185223 0.359205
C94   C     C_2   0.550690 0.724072 0.310807 0.599564
O42   O     O_2   0.557216 0.774162 0.282008 -0.464949
O43   O     O_R   0.639160 0.623641 0.321171 -0.696048
H23   H     H_    0.702489 0.601127 0.302258 0.371848
C95   C     C_2   0.385078 0.402799 0.930800 0.246493
H24   H     H_    0.418193 0.455604 0.925244 0.120974
O44   O     O_2   0.391989 0.377828 0.968892 -0.468074
C96   C     C_2   0.117217 0.491753 0.662327 0.626726
O45   O     O_2   0.091359 0.554609 0.695924 -0.505184
O46   O     O_R   0.038748 0.472239 0.635534 -0.657379
H25   H     H_    0.963774 0.515182 0.647308 0.345783
C97   C     C_2   0.170531 0.478742 0.569719 0.639223
O47   O     O_2   0.169658 0.429212 0.533394 -0.484799
O48   O     O_R   0.089891 0.586370 0.577624 -0.632711
H26   H     H_    0.035078 0.613817 0.550875 0.345187
C98   C     C_2   0.564747 0.226969 0.619103 0.602892
O49   O     O_2   0.639203 0.234614 0.642126 -0.541789
O50   O     O_R   0.587370 0.141071 0.586111 -0.648055
H27   H     H_    0.668383 0.092446 0.583665 0.349596
C99   C     C_2   0.186553 0.190611 0.860606 0.257988
H28   H     H_    0.181334 0.166279 0.892514 0.117317
O51   O     O_2   0.149774 0.158053 0.826851 -0.503691
C100  C     C_2   0.509979 0.177708 0.199361 0.612135
O52   O     O_2   0.522775 0.181814 0.160378 -0.467824
O53   O     O_R   0.588870 0.091085 0.223433 -0.634359
H29   H     H_    0.650897 0.037265 0.204807 0.363291
C101  C     C_2   0.721467 0.510426 0.804440 0.241486
H30   H     H_    0.682287 0.589618 0.790767 0.110014
O54   O     O_2   0.713425 0.506528 0.843963 -0.488941
C102  C     C_2   0.968572 0.104584 0.776832 0.246071
H31   H     H_    0.951387 0.085139 0.807636 0.117398
O55   O     O_2   0.049740 0.037315 0.758425 -0.478651
C103  C     C_2   0.926171 0.131651 0.679235 0.319681
H32   H     H_    0.934828 0.054287 0.686769 0.152746
O56   O     O_2   0.954484 0.137209 0.643372 -0.465600
C104  C     C_2   0.283933 0.665997 0.701648 0.250210
H33   H     H_    0.258784 0.624453 0.721854 0.131629
O57   O     O_2   0.284266 0.643611 0.661188 -0.487301
C105  C     C_2   0.409148 0.981913 0.793567 0.258796
H34   H     H_    0.423865 0.031875 0.773501 0.101720
O58   O     O_2   0.423179 0.992348 0.834316 -0.492396
C106  C     C_2   0.948332 0.405006 0.329470 0.614232
O59   O     O_2   0.930246 0.446758 0.294033 -0.489800
O60   O     O_R   0.042732 0.386490 0.356855 -0.653933
H35   H     H_    0.090014 0.410326 0.343671 0.356288
C107  C     C_2   0.872639 0.468311 0.420185 0.643173
O61   O     O_2   0.865998 0.551798 0.408612 -0.459935
O62   O     O_R   0.912529 0.437397 0.463830 -0.643653
H36   H     H_    0.933300 0.490615 0.482624 0.361556

loop_
_geom_bond_atom_site_label_1
_geom_bond_atom_site_label_2
_ccdc_geom_bond_type
C58   C62   A    
C55   C56   S    
C63   C65   T    
O43   H23   S    
C92   O39   S    
Cr6   O19   S    
C41   C42   A    
C35   C36   A    
C82   O17   A    
C48   C95   S    
C34   C66   S    
C98   O49   D    
C106  O60   S    
C95   O44   D    
C45   O3    A    
C40   C46   A    
C87   O30   D    
Cr5   O9    S    
C28   C29   A    
C26   C27   A    
O39   H21   S    
C74   C76   T    
C79   O9    A    
C42   H6    S    
C10   H13   S    
C94   O43   S    
C90   O35   D    
C32   C88   S    
C72   C75   S    
C5    C6    S    
C50   H5    S    
C100  O53   S    
Cr5   O19   S    
C49   C54   A    
C81   O14   A    
C7    C67   T    
C68   C104  S    
C18   C19   A    
C105  H34   S    
Cr6   O10   S    
C31   C89   S    
C101  O54   D    
C17   H11   S    
C97   O47   D    
C27   C94   S    
C99   H28   S    
C3    H10   S    
C43   C53   S    
Cr3   O5    S    
Cr5   O16   S    
C34   O26   A    
C44   C46   A    
O28   H14   S    
C77   O8    A    
C80   O6    A    
C8    C79   S    
C91   O36   D    
C46   C97   S    
C69   C73   A    
C70   C71   A    
Cr1   O5    S    
C9    C10   A    
C31   C36   A    
C15   C107  S    
C68   C72   A    
Cr4   O7    S    
C69   H8    S    
C62   C63   S    
C70   C105  S    
Cr6   O11   S    
C59   C60   A    
O37   H20   S    
C21   C22   T    
C1    C25   S    
C106  O59   D    
C105  O58   D    
C59   C102  S    
C101  H30   S    
C35   C91   S    
C82   O16   A    
C70   C73   A    
C4    C7    S    
C76   C83   S    
C84   C93   S    
C45   O2    A    
O41   H22   S    
C44   C96   S    
C97   O48   S    
C73   C74   S    
C40   C45   S    
C12   C67   S    
C92   O38   D    
C17   C24   A    
C51   C52   S    
C47   C48   A    
C41   C98   S    
Cr1   O12   S    
C88   O31   D    
C54   C82   S    
C89   O34   S    
C107  O61   D    
C95   H24   S    
C48   C54   A    
C5    C84   A    
O60   H35   S    
C9    C23   S    
C47   C51   A    
C12   O22   A    
C25   C26   A    
C71   H9    S    
C81   O15   A    
C56   O24   A    
C83   O18   A    
C49   C99   S    
C14   C106  S    
C60   C61   A    
C102  O55   D    
Cr4   O13   S    
C61   C64   S    
C85   O28   S    
C43   C44   A    
C1    O20   A    
C56   O4    A    
C4    C78   A    
C37   C38   T    
C65   C81   S    
C93   O40   D    
C12   O21   A    
C28   C38   S    
C16   C20   A    
C57   H7    S    
C55   C64   T    
C58   C101  S    
C93   O41   S    
C50   C51   A    
C57   C58   A    
C98   O50   S    
C33   C39   A    
C52   C53   T    
C90   H19   S    
C57   C61   A    
C104  H33   S    
Cr1   O1    S    
C23   O23   A    
Cr4   O6    S    
C16   H12   S    
O48   H26   S    
C80   O11   A    
C49   C50   A    
C79   O10   A    
Cr2   O21   S    
Cr6   O18   S    
C18   C24   A    
Cr1   O24   S    
C2    C5    A    
C42   C43   A    
C3    C4    A    
Cr3   O22   S    
O46   H25   S    
O34   H18   S    
C25   C30   A    
C40   C41   A    
C59   C62   A    
Cr4   O19   S    
C14   C15   A    
C83   O13   A    
C68   C69   A    
C31   C32   A    
Cr2   O5    S    
C88   O32   S    
C89   O33   D    
C6    C8    T    
C33   C92   S    
Cr2   O26   S    
C30   C90   S    
C86   H15   S    
C87   H16   S    
Cr5   O8    S    
C39   C80   S    
C19   C20   A    
C2    C3    A    
C78   C85   S    
C2    C100  S    
C71   C72   A    
C107  O62   S    
C102  H31   S    
C11   C13   A    
C100  O52   D    
C16   C17   A    
Cr3   O3    S    
C96   O46   S    
C36   C37   S    
C26   H3    S    
C66   C75   T    
C33   C35   A    
C47   H4    S    
C86   O29   D    
C13   C22   S    
C85   O27   D    
C18   C86   S    
C91   O37   S    
C23   O1    A    
C11   C87   S    
C77   O7    A    
C99   O51   D    
Cr5   O15   S    
C94   O42   D    
C19   H1    S    
C10   C11   A    
C29   C30   A    
C103  H32   S    
Cr2   O2    S    
C78   C84   A    
C24   C77   S    
O53   H29   S    
Cr3   O4    S    
C20   C21   S    
C60   C103  S    
C34   O25   A    
O62   H36   S    
C96   O45   D    
Cr2   O20   S    
C32   C39   A    
O32   H17   S    
Cr1   O25   S    
C104  O57   D    
C1    O12   A    
C103  O56   D    
Cr4   O14   S    
C13   C14   A    
C29   H2    S    
O50   H27   S    
Cr3   O23   S    
C9    C15   A    
Cr6   O17   S    
C27   C28   A    
