data_mof_unit_49192.cif
_audit_creation_date              2012-12-10T16:37:59-0500
_audit_creation_method            fapswitch 2.2
_symmetry_space_group_name_H-M    P1
_symmetry_Int_Tables_number       1
_space_group_crystal_system       triclinic
_cell_length_a                    28.17294
_cell_length_b                    18.769758
_cell_length_c                    16.849523
_cell_angle_alpha                 89.977295
_cell_angle_beta                  60.670903
_cell_angle_gamma                 89.987975
_cell_volume                      7767.93464751

loop_
_atom_site_label
_atom_site_type_symbol
_atom_type_description
_atom_site_fract_x
_atom_site_fract_y
_atom_site_fract_z
_atom_type_partial_charge
C1    C     C_R   0.699939 0.264393 0.677854 0.846220
C2    C     C_R   0.299787 0.735199 0.322621 0.972017
C3    C     C_R   0.300067 0.264379 0.322150 0.846506
C4    C     C_R   0.700202 0.735232 0.677364 0.975939
C5    C     C_R   0.199939 0.764393 0.677854 0.846218
C6    C     C_R   0.799787 0.235199 0.322621 0.971968
C7    C     C_R   0.800067 0.764380 0.322150 0.846466
C8    C     C_R   0.200203 0.235231 0.677364 0.975901
C9    C     C_R   0.907448 0.494378 0.477792 0.019048
C10   C     C_R   0.090740 0.494724 0.526787 0.020471
C11   C     C_R   0.407417 0.994373 0.477873 0.019066
C12   C     C_R   0.590713 0.994730 0.526855 0.020501
C13   C     C_R   0.074215 0.368959 0.568785 -0.055770
C14   C     C_R   0.890762 0.616097 0.533492 -0.073919
C15   C     C_R   0.925658 0.369371 0.432253 -0.055380
C16   C     C_R   0.104832 0.617704 0.475686 -0.079271
C17   C     C_R   0.574215 0.868953 0.568797 -0.055780
C18   C     C_R   0.390689 0.116071 0.533646 -0.073897
C19   C     C_R   0.425656 0.869380 0.432270 -0.055370
C20   C     C_R   0.604761 0.117732 0.475832 -0.079362
C21   C     C_R   0.709478 0.251268 0.966881 -0.075528
C22   C     C_R   0.271327 0.722381 0.055201 -0.060809
C23   C     C_R   0.290607 0.251209 0.033010 -0.076050
C24   C     C_R   0.728819 0.722277 0.944594 -0.061954
C25   C     C_R   0.209473 0.751262 0.966887 -0.075535
C26   C     C_R   0.771332 0.222387 0.055194 -0.060788
C27   C     C_R   0.790606 0.751213 0.033007 -0.076041
C28   C     C_R   0.228822 0.222273 0.944595 -0.061961
C29   C     C_R   0.747047 0.194656 0.935666 0.013560
C30   C     C_R   0.228871 0.773206 0.093206 0.059237
C31   C     C_R   0.253060 0.194581 0.064220 0.013789
C32   C     C_R   0.771273 0.773130 0.906559 0.059464
C33   C     C_R   0.247043 0.694651 0.935672 0.013563
C34   C     C_R   0.728878 0.273213 0.093197 0.059236
C35   C     C_R   0.753061 0.694582 0.064214 0.013783
C36   C     C_R   0.271280 0.273120 0.906558 0.059510
C37   C     C_R   0.780210 0.182170 0.977313 -0.059595
C38   C     C_R   0.198911 0.789369 0.047134 -0.070683
C39   C     C_R   0.219911 0.182092 0.022558 -0.059731
C40   C     C_R   0.801156 0.789338 0.952747 -0.070467
C41   C     C_R   0.280206 0.682165 0.977318 -0.059598
C42   C     C_R   0.698918 0.289376 0.047126 -0.070683
C43   C     C_R   0.719914 0.682091 0.022551 -0.059738
C44   C     C_R   0.301159 0.289332 0.952748 -0.070467
C45   C     C_R   0.636747 0.316697 0.957925 -0.047818
C46   C     C_R   0.341106 0.652558 0.068616 -0.070735
C47   C     C_R   0.363246 0.316760 0.042067 -0.047431
C48   C     C_R   0.658990 0.652462 0.931302 -0.069405
C49   C     C_R   0.136743 0.816693 0.957928 -0.047818
C50   C     C_R   0.841109 0.152560 0.068613 -0.070755
C51   C     C_R   0.863244 0.816763 0.042066 -0.047423
C52   C     C_R   0.158988 0.152465 0.931307 -0.069380
C53   C     C_R   0.612194 0.340612 0.905580 -0.078010
C54   C     C_R   0.375349 0.642227 0.108446 -0.088120
C55   C     C_R   0.387803 0.340626 0.094420 -0.077915
C56   C     C_R   0.624716 0.642162 0.891506 -0.087672
C57   C     C_R   0.112193 0.840610 0.905581 -0.078013
C58   C     C_R   0.875350 0.142228 0.108445 -0.088140
C59   C     C_R   0.887802 0.840628 0.094419 -0.077913
C60   C     C_R   0.124716 0.142164 0.891508 -0.087658
C61   C     C_R   0.631039 0.316810 0.817926 -0.242161
C62   C     C_R   0.366271 0.679667 0.184525 -0.269268
C63   C     C_R   0.368977 0.316764 0.182053 -0.242415
C64   C     C_R   0.633762 0.679664 0.815464 -0.267131
C65   C     C_R   0.131039 0.816810 0.817926 -0.242153
C66   C     C_R   0.866271 0.179666 0.184525 -0.269288
C67   C     C_R   0.868976 0.816765 0.182053 -0.242427
C68   C     C_R   0.133763 0.179666 0.815466 -0.267114
C69   C     C_R   0.673813 0.269428 0.778453 -0.112195
C70   C     C_R   0.323404 0.726348 0.223893 -0.014260
C71   C     C_R   0.326202 0.269394 0.221538 -0.112362
C72   C     C_R   0.676620 0.726352 0.776073 -0.011234
C73   C     C_R   0.173812 0.769427 0.778453 -0.112195
C74   C     C_R   0.823404 0.226348 0.223892 -0.014292
C75   C     C_R   0.826201 0.769396 0.221537 -0.112349
C76   C     C_R   0.176624 0.226349 0.776071 -0.011196
C77   C     C_R   0.694968 0.237755 0.833511 -0.020860
C78   C     C_R   0.296117 0.748904 0.174652 0.079347
C79   C     C_R   0.305062 0.237725 0.166467 -0.020598
C80   C     C_R   0.703970 0.748850 0.825218 0.077793
C81   C     C_R   0.194967 0.737753 0.833513 -0.020857
C82   C     C_R   0.796120 0.248906 0.174649 0.079362
C83   C     C_R   0.805060 0.737728 0.166465 -0.020595
C84   C     C_R   0.203978 0.248844 0.825213 0.077798
C85   C     C_R   0.693998 0.127768 0.525051 0.903594
C86   C     C_R   0.308933 0.870073 0.464354 0.957619
C87   C     C_R   0.305783 0.127706 0.475442 0.904545
C88   C     C_R   0.691073 0.870095 0.535595 0.956887
C89   C     C_R   0.194000 0.627766 0.525046 0.903643
C90   C     C_R   0.808934 0.370073 0.464354 0.957624
C91   C     C_R   0.805787 0.627707 0.475428 0.904658
C92   C     C_R   0.191074 0.370094 0.535596 0.956907
C93   C     C_R   0.681064 0.269443 0.918522 0.022596
C94   C     C_R   0.303590 0.708947 0.098323 -0.003685
C95   C     C_R   0.318975 0.269428 0.081430 0.022576
C96   C     C_R   0.696534 0.708847 0.901517 -0.003081
C97   C     C_R   0.181060 0.769439 0.918526 0.022601
C98   C     C_R   0.803594 0.208950 0.098319 -0.003694
C99   C     C_R   0.818973 0.769432 0.081428 0.022568
C100  C     C_R   0.196537 0.208845 0.901517 -0.003041
C101  C     C_R   0.620107 0.339788 0.047580 0.356886
C102  C     C_R   0.341991 0.607185 0.001929 0.350879
C103  C     C_R   0.379838 0.339967 0.952447 0.356338
C104  C     C_R   0.658066 0.607139 0.998113 0.350318
C105  C     C_R   0.120101 0.839781 0.047585 0.356858
C106  C     C_R   0.841993 0.107187 0.001925 0.350891
C107  C     C_R   0.879836 0.839970 0.952445 0.356339
C108  C     C_R   0.158059 0.107145 0.998126 0.350319
C109  C     C_R   0.657664 0.341538 0.078103 0.425905
C110  C     C_R   0.321859 0.630213 0.945532 0.392966
C111  C     C_R   0.342266 0.341653 0.921950 0.427141
C112  C     C_R   0.678219 0.630192 0.054448 0.392757
C113  C     C_R   0.157656 0.841530 0.078111 0.425919
C114  C     C_R   0.821863 0.130217 0.945527 0.392961
C115  C     C_R   0.842265 0.841657 0.921948 0.427111
C116  C     C_R   0.178211 0.130202 0.054462 0.392755
C117  C     C_R   0.723843 0.172078 0.814344 -0.140889
C118  C     C_R   0.257794 0.804967 0.203290 -0.108155
C119  C     C_R   0.276195 0.172044 0.185648 -0.141409
C120  C     C_R   0.742300 0.804928 0.796502 -0.110827
C121  C     C_R   0.223842 0.672077 0.814346 -0.140900
C122  C     C_R   0.757799 0.304971 0.203285 -0.108103
C123  C     C_R   0.776195 0.672045 0.185643 -0.141399
C124  C     C_R   0.242315 0.304914 0.796489 -0.110945
C125  C     C_R   0.744273 0.147905 0.871924 0.433684
C126  C     C_R   0.217758 0.804431 0.177231 0.322640
C127  C     C_R   0.255808 0.147848 0.128037 0.433540
C128  C     C_R   0.782366 0.804441 0.822521 0.317554
C129  C     C_R   0.244271 0.647902 0.871926 0.433674
C130  C     C_R   0.717765 0.304437 0.177223 0.322739
C131  C     C_R   0.755813 0.647848 0.128026 0.433552
C132  C     C_R   0.282380 0.304423 0.822513 0.317483
C133  C     C_R   0.078307 0.094064 0.929755 0.938891
C134  C     C_R   0.927115 0.898653 0.064518 0.941273
C135  C     C_R   0.921732 0.094113 0.070206 0.939309
C136  C     C_R   0.072880 0.898644 0.935496 0.941225
C137  C     C_R   0.578307 0.594063 0.929754 0.938908
C138  C     C_R   0.427116 0.398653 0.064518 0.941278
C139  C     C_R   0.421731 0.594113 0.070206 0.939306
C140  C     C_R   0.572880 0.398645 0.935496 0.941220
C141  C     C_R   0.550283 0.121829 0.495415 -0.013833
C142  C     C_R   0.461504 0.865477 0.468779 0.002946
C143  C     C_R   0.444494 0.121009 0.517378 -0.013434
C144  C     C_R   0.538101 0.865309 0.532854 0.002322
C145  C     C_R   0.050365 0.621818 0.495212 -0.013850
C146  C     C_R   0.961510 0.365472 0.468755 0.002931
C147  C     C_R   0.944580 0.621022 0.517162 -0.013528
C148  C     C_R   0.038106 0.365311 0.532833 0.002327
C149  C     C_R   0.523786 0.186520 0.499446 -0.133455
C150  C     C_R   0.482411 0.800867 0.481856 -0.160744
C151  C     C_R   0.469610 0.186010 0.517028 -0.130422
C152  C     C_R   0.518097 0.800740 0.517815 -0.160536
C153  C     C_R   0.023890 0.686514 0.499178 -0.133397
C154  C     C_R   0.982401 0.300863 0.481867 -0.160739
C155  C     C_R   0.969716 0.686020 0.516754 -0.130512
C156  C     C_R   0.018086 0.300740 0.517826 -0.160534
C157  C     C_R   0.473372 0.057601 0.504403 0.053367
C158  C     C_R   0.520368 0.929194 0.513083 0.052133
C159  C     C_R   0.522560 0.057868 0.505845 0.054093
C160  C     C_R   0.478062 0.929171 0.491197 0.052495
C161  C     C_R   0.973439 0.557605 0.504233 0.053366
C162  C     C_R   0.020392 0.429193 0.513017 0.052135
C163  C     C_R   0.022624 0.557864 0.505680 0.054082
C164  C     C_R   0.978088 0.429170 0.491129 0.052495
C165  C     C_R   0.952914 0.493534 0.491125 -0.038322
C166  C     C_R   0.044598 0.493770 0.515251 -0.038415
C167  C     C_R   0.452872 0.993531 0.491235 -0.038312
C168  C     C_R   0.544558 0.993774 0.515353 -0.038408
C169  C     C_R   0.892336 0.431753 0.449868 0.046462
C170  C     C_R   0.121172 0.558432 0.509702 0.067119
C171  C     C_R   0.107075 0.431698 0.551984 0.046948
C172  C     C_R   0.876483 0.557623 0.495445 0.065553
C173  C     C_R   0.392326 0.931755 0.449902 0.046449
C174  C     C_R   0.621137 0.058444 0.509776 0.067151
C175  C     C_R   0.607066 0.931698 0.552009 0.046949
C176  C     C_R   0.376442 0.057611 0.495537 0.065531
C177  C     C_R   0.843469 0.433670 0.444154 -0.114584
C178  C     C_R   0.164498 0.561067 0.531124 -0.140156
C179  C     C_R   0.156423 0.433680 0.556226 -0.115522
C180  C     C_R   0.834602 0.560748 0.470780 -0.136249
C181  C     C_R   0.343466 0.933670 0.444164 -0.114574
C182  C     C_R   0.664486 0.061072 0.531148 -0.140228
C183  C     C_R   0.656422 0.933681 0.556229 -0.115533
C184  C     C_R   0.334586 0.060743 0.470819 -0.136217
C185  C     C_R   0.821375 0.498779 0.439105 -0.171174
C186  C     C_R   0.178534 0.498820 0.561162 -0.170917
C187  C     C_R   0.321373 0.998779 0.439114 -0.171154
C188  C     C_R   0.678533 0.998823 0.561162 -0.170902
H1    H     H_    0.032067 0.249931 0.528761 0.146999
H2    H     H_    0.948924 0.736180 0.524316 0.172947
H3    H     H_    0.969199 0.250084 0.469307 0.146842
H4    H     H_    0.043880 0.737033 0.493480 0.169728
H5    H     H_    0.532090 0.749930 0.528721 0.147000
H6    H     H_    0.448807 0.236166 0.524621 0.172973
H7    H     H_    0.469223 0.750089 0.469266 0.146835
H8    H     H_    0.543762 0.237043 0.493779 0.169669
H9    H     H_    0.614135 0.339200 0.777769 0.202967
H10   H     H_    0.389948 0.667734 0.217872 0.192495
H11   H     H_    0.385889 0.339117 0.222198 0.203134
H12   H     H_    0.610060 0.667783 0.782158 0.192077
H13   H     H_    0.114136 0.839202 0.777768 0.202968
H14   H     H_    0.889947 0.167731 0.217874 0.192511
H15   H     H_    0.885888 0.839117 0.222198 0.203134
H16   H     H_    0.110061 0.167786 0.782160 0.192064
O1    O     O_R   0.746490 0.236330 0.638080 -0.623441
O2    O     O_R   0.253510 0.763670 0.361920 -0.628042
O3    O     O_R   0.253510 0.236330 0.361920 -0.623644
O4    O     O_R   0.746490 0.763670 0.638080 -0.631740
O5    O     O_R   0.246490 0.736330 0.638080 -0.623439
O6    O     O_R   0.753510 0.263670 0.361920 -0.628007
O7    O     O_R   0.753510 0.736330 0.361920 -0.623657
O8    O     O_R   0.246490 0.263670 0.638080 -0.631887
O9    O     O_R   0.674170 0.186160 0.516270 -0.641126
O10   O     O_R   0.325830 0.813840 0.483730 -0.642250
O11   O     O_R   0.325830 0.186160 0.483730 -0.641870
O12   O     O_R   0.674170 0.813840 0.516270 -0.642258
O13   O     O_R   0.174170 0.686160 0.516270 -0.641107
O14   O     O_R   0.825830 0.313840 0.483730 -0.642248
O15   O     O_R   0.825830 0.686160 0.483730 -0.641728
O16   O     O_R   0.174170 0.313840 0.516270 -0.642255
O17   O     O_R   0.739960 0.127620 0.525000 -0.580414
O18   O     O_R   0.260040 0.872380 0.475000 -0.580885
O19   O     O_R   0.260040 0.127620 0.475000 -0.580104
O20   O     O_R   0.739960 0.872380 0.525000 -0.580948
O21   O     O_R   0.239960 0.627620 0.525000 -0.580408
O22   O     O_R   0.760040 0.372380 0.475000 -0.580887
O23   O     O_R   0.760040 0.627620 0.475000 -0.580141
O24   O     O_R   0.239960 0.372380 0.525000 -0.580936
O25   O     O_R   0.680700 0.294870 0.629350 -0.607489
O26   O     O_R   0.319300 0.705130 0.370650 -0.622569
O27   O     O_R   0.319300 0.294870 0.370650 -0.606569
O28   O     O_R   0.680700 0.705130 0.629350 -0.621706
O29   O     O_R   0.180700 0.794870 0.629350 -0.607479
O30   O     O_R   0.819300 0.205130 0.370650 -0.622570
O31   O     O_R   0.819300 0.794870 0.370650 -0.606587
O32   O     O_R   0.180700 0.205130 0.629350 -0.621693
O33   O     O_R   0.062020 0.072840 0.007170 -0.584539
O34   O     O_R   0.937980 0.927160 0.992830 -0.549588
O35   O     O_R   0.937980 0.072840 0.992830 -0.584582
O36   O     O_R   0.062020 0.927160 0.007170 -0.549555
O37   O     O_R   0.562020 0.572840 0.007170 -0.584537
O38   O     O_R   0.437980 0.427160 0.992830 -0.549586
O39   O     O_R   0.437980 0.572840 0.992830 -0.584581
O40   O     O_R   0.562020 0.427160 0.007170 -0.549557
O41   O     O_R   0.947860 0.073950 0.109290 -0.628061
O42   O     O_R   0.052140 0.926050 0.890710 -0.612834
O43   O     O_R   0.052140 0.073950 0.890710 -0.627961
O44   O     O_R   0.947860 0.926050 0.109290 -0.612763
O45   O     O_R   0.447860 0.573950 0.109290 -0.628058
O46   O     O_R   0.552140 0.426050 0.890710 -0.612837
O47   O     O_R   0.552140 0.573950 0.890710 -0.627967
O48   O     O_R   0.447860 0.426050 0.109290 -0.612765
Zn1   Zn    Zn3+2 0.792340 0.208750 0.507670 1.072394
Zn2   Zn    Zn3+2 0.207660 0.791250 0.492330 1.063328
Zn3   Zn    Zn3+2 0.207660 0.208750 0.492330 1.072499
Zn4   Zn    Zn3+2 0.792340 0.791250 0.507670 1.062963
Zn5   Zn    Zn3+2 0.292340 0.708750 0.507670 1.072413
Zn6   Zn    Zn3+2 0.707660 0.291250 0.492330 1.063310
Zn7   Zn    Zn3+2 0.707660 0.708750 0.492330 1.072477
Zn8   Zn    Zn3+2 0.292340 0.291250 0.507670 1.062858
Zn9   Zn    Zn3+2 0.505960 0.500000 0.080520 1.140108
Zn10  Zn    Zn3+2 0.494040 0.500000 0.919480 1.139866
Zn11  Zn    Zn3+2 0.005960 1.000000 0.080520 1.140111
Zn12  Zn    Zn3+2 0.994040 1.000000 0.919480 1.139872
C189  C     C_2   0.788549 0.501077 0.392392 0.527957
H17   H     H_    0.809252 0.501031 0.318755 0.099068
O49   O     O_2   0.738833 0.500897 0.435626 -0.479258
C190  C     C_2   0.211872 0.500988 0.606996 0.528896
H18   H     H_    0.191534 0.500987 0.680608 0.099420
O50   O     O_2   0.261572 0.500787 0.563112 -0.479980
C191  C     C_2   0.288557 0.001079 0.392384 0.527958
H19   H     H_    0.309269 0.001031 0.318746 0.099051
O51   O     O_2   0.238842 0.000898 0.435603 -0.479237
C192  C     C_2   0.711881 0.000989 0.606981 0.528909
H20   H     H_    0.691549 0.000988 0.680592 0.099421
O52   O     O_2   0.761580 0.000786 0.563085 -0.480002
C193  C     C_2   0.068193 0.315364 0.638704 0.473230
H21   H     H_    0.048447 0.264646 0.644396 0.055452
O53   O     O_2   0.083127 0.328804 0.693977 -0.566134
C194  C     C_2   0.848456 0.654641 0.613939 0.492368
H22   H     H_    0.858820 0.702850 0.636270 0.115535
O54   O     O_2   0.802328 0.630958 0.658005 -0.569361
C195  C     C_2   0.932104 0.316360 0.361500 0.472559
H23   H     H_    0.952046 0.265706 0.355221 0.055635
O55   O     O_2   0.917282 0.330238 0.306182 -0.565640
C196  C     C_2   0.145163 0.657381 0.394314 0.502339
H24   H     H_    0.133282 0.706021 0.375118 0.115634
O56   O     O_2   0.191177 0.634436 0.346398 -0.564102
C197  C     C_2   0.568198 0.815349 0.638703 0.473254
H25   H     H_    0.548455 0.764630 0.644385 0.055447
O57   O     O_2   0.583133 0.828782 0.693977 -0.566122
C198  C     C_2   0.348350 0.154625 0.614041 0.492372
H26   H     H_    0.358660 0.202915 0.636287 0.115489
O58   O     O_2   0.302243 0.130880 0.658134 -0.569408
C199  C     C_2   0.432109 0.816380 0.361501 0.472533
H27   H     H_    0.452055 0.765727 0.355210 0.055636
O59   O     O_2   0.417288 0.830266 0.306183 -0.565646
C200  C     C_2   0.645057 0.157444 0.394459 0.502543
H28   H     H_    0.633156 0.206112 0.375351 0.115589
O60   O     O_2   0.691062 0.134499 0.346455 -0.563997
Cl1   Cl    Cl    0.551534 0.331670 0.134757 -0.527664
Cl2   Cl    Cl    0.339759 0.515053 0.021308 -0.519523
Cl3   Cl    Cl    0.448384 0.331821 0.865200 -0.529184
Cl4   Cl    Cl    0.660100 0.514964 0.979206 -0.518937
Cl5   Cl    Cl    0.051527 0.831665 0.134758 -0.527691
Cl6   Cl    Cl    0.839760 0.015055 0.021304 -0.519527
Cl7   Cl    Cl    0.948383 0.831823 0.865199 -0.529181
Cl8   Cl    Cl    0.160097 0.014970 0.979222 -0.518876
Cl9   Cl    Cl    0.659236 0.421187 0.132493 -0.353386
Cl10  Cl    Cl    0.360979 0.607002 0.829396 -0.452892
Cl11  Cl    Cl    0.340131 0.421598 0.868554 -0.352025
Cl12  Cl    Cl    0.639112 0.607013 0.170623 -0.452881
Cl13  Cl    Cl    0.159230 0.921183 0.132495 -0.353360
Cl14  Cl    Cl    0.860981 0.107002 0.829391 -0.452891
Cl15  Cl    Cl    0.840135 0.921601 0.868546 -0.352019
Cl16  Cl    Cl    0.139098 0.107039 0.170642 -0.452908
C201  C     C_2   0.724143 0.122066 0.746430 0.585028
H29   H     H_    0.691028 0.122451 0.730954 -0.032572
O61   O     O_2   0.762424 0.081549 0.705152 -0.487260
C202  C     C_2   0.262850 0.870013 0.248547 0.533433
H30   H     H_    0.229449 0.907736 0.279628 0.159954
O62   O     O_2   0.305450 0.883663 0.247702 -0.602410
C203  C     C_2   0.275824 0.122061 0.253673 0.585785
H31   H     H_    0.308896 0.122454 0.269250 -0.032552
O63   O     O_2   0.237526 0.081563 0.294925 -0.486206
C204  C     C_2   0.737136 0.870003 0.751333 0.534897
H32   H     H_    0.770494 0.907786 0.720202 0.160199
O64   O     O_2   0.694486 0.883614 0.752318 -0.602908
C205  C     C_2   0.224142 0.622065 0.746430 0.585055
H33   H     H_    0.191027 0.622449 0.730956 -0.032590
O65   O     O_2   0.262425 0.581553 0.705147 -0.487233
C206  C     C_2   0.762856 0.370015 0.248543 0.533380
H34   H     H_    0.729455 0.407739 0.279624 0.159938
O66   O     O_2   0.805455 0.383663 0.247700 -0.602405
C207  C     C_2   0.775823 0.622061 0.253669 0.585773
H35   H     H_    0.808891 0.622458 0.269256 -0.032554
O67   O     O_2   0.737528 0.581557 0.294911 -0.486236
C208  C     C_2   0.237157 0.369993 0.751320 0.534994
H36   H     H_    0.270518 0.407770 0.720186 0.160193
O68   O     O_2   0.194507 0.383614 0.752310 -0.602893
Cl17  Cl    Cl    0.744500 0.054559 0.889825 -0.460679
Cl18  Cl    Cl    0.150291 0.814580 0.267637 -0.579571
Cl19  Cl    Cl    0.255536 0.054489 0.110283 -0.462319
Cl20  Cl    Cl    0.849837 0.815802 0.732315 -0.584771
Cl21  Cl    Cl    0.244501 0.554554 0.889820 -0.460678
Cl22  Cl    Cl    0.650297 0.314570 0.267630 -0.579456
Cl23  Cl    Cl    0.755558 0.554490 0.110253 -0.462349
Cl24  Cl    Cl    0.349854 0.315788 0.732320 -0.584874

loop_
_geom_bond_atom_site_label_1
_geom_bond_atom_site_label_2
_ccdc_geom_bond_type
C154  H3    S    
O7    Zn7   S    
C85   C182  S    
C205  O65   D    
C9    C169  A    
C34   C42   A    
C181  C187  A    
C121  C205  S    
C27   C99   A    
C170  C178  A    
C4    O28   A    
C12   C174  A    
C17   C197  S    
C42   C109  A    
O31   Zn4   S    
C24   C96   A    
C149  H8    S    
C191  H19   S    
O16   Zn3   S    
C92   O24   A    
C30   C38   A    
C192  H20   S    
C3    O3    A    
C204  H32   S    
O39   Zn10  S    
C147  C155  A    
C91   O23   A    
C143  C151  A    
C90   C177  S    
C104  Cl4   S    
O37   Zn9   S    
C11   C167  A    
C82   C98   A    
C149  C151  A    
O22   Zn6   S    
C139  O45   A    
C73   C81   A    
C161  C163  A    
C4    O4    A    
C162  C164  A    
O18   Zn2   S    
C203  H31   S    
C84   C100  A    
C121  C129  A    
C207  O67   D    
C37   C114  A    
C126  Cl18  S    
C27   C35   A    
C10   C171  A    
C18   C198  S    
C81   C121  A    
C140  O40   A    
C87   O19   A    
C24   C32   A    
C102  Cl2   S    
O5    Zn5   S    
C146  C154  A    
C14   C194  S    
C194  H22   S    
C63   C71   A    
C64   H12   S    
C36   C44   A    
C10   C170  A    
C200  H28   S    
C122  C206  S    
C32   C40   A    
O20   Zn4   S    
C175  C183  A    
C176  C184  A    
C48   C96   A    
C90   O22   A    
C21   C29   A    
C60   C68   A    
C113  Cl13  S    
C198  O58   D    
C148  C162  A    
C183  C188  A    
C196  O56   D    
C116  Cl16  S    
C108  C116  A    
C21   C93   A    
C78   C94   A    
C23   C95   A    
O13   Zn2   S    
O32   Zn3   S    
C67   H15   S    
C49   C97   A    
C21   C42   A    
C40   C115  A    
C108  Cl8   S    
C51   C107  A    
C24   C43   A    
C82   C122  A    
C161  C165  A    
C17   C175  A    
C202  O62   D    
C18   C176  A    
C29   C125  A    
O9    Zn6   S    
C68   H16   S    
C69   C77   A    
C31   C127  A    
C45   C93   A    
C174  C182  A    
C71   C79   A    
C185  C189  S    
C199  O59   D    
C179  C186  A    
C62   C70   A    
C11   C176  A    
C19   C199  S    
C17   C144  A    
C151  H6    S    
C105  C113  A    
C18   C143  A    
C78   C118  A    
C138  O48   A    
C36   C132  A    
C66   C74   A    
C8    C76   S    
C49   C57   A    
C124  C132  A    
O46   Zn10  S    
C52   C60   A    
C59   C67   A    
C53   C61   A    
C106  Cl6   S    
C20   C174  A    
O28   Zn7   S    
C55   C63   A    
C86   C181  S    
C56   C64   A    
C2    O2    A    
C35   C43   A    
O25   Zn6   S    
C6    O30   A    
C123  C207  S    
C193  H21   S    
C22   C94   A    
C171  C179  A    
C133  O33   A    
C169  C177  A    
O17   Zn1   S    
C50   C98   A    
C140  O46   A    
C206  H34   S    
C131  Cl23  S    
C3    O27   A    
C104  C112  A    
C145  C163  A    
C146  C164  A    
C14   C147  A    
C52   C100  A    
C207  H35   S    
C16   C145  A    
C203  O63   D    
C178  C186  A    
C86   O10   A    
C25   C38   A    
C54   C139  S    
C46   C94   A    
O26   Zn5   S    
C27   C40   A    
C10   C166  A    
C57   C65   A    
C91   C180  S    
C197  H25   S    
O38   Zn10  S    
C136  O42   A    
C182  C188  A    
C89   C178  S    
C189  O49   D    
C127  Cl19  S    
O29   Zn2   S    
C25   C97   A    
C119  C203  S    
C67   C75   A    
O41   Zn11  S    
C191  O51   D    
O1    Zn1   S    
C186  C190  S    
C22   C30   A    
C20   C141  A    
C15   C146  A    
C7    O7    A    
O24   Zn8   S    
C58   C135  S    
C68   C76   A    
C5    O5    A    
C59   C134  S    
C208  O68   D    
C184  C187  A    
C32   C128  A    
C137  O37   A    
C72   C80   A    
C56   C137  S    
C192  O52   D    
C5    C73   S    
C150  H7    S    
C90   O14   A    
C2    O26   A    
C187  C191  S    
C66   H14   S    
C13   C171  A    
C195  H23   S    
C204  O64   D    
O12   Zn7   S    
C8    O8    A    
C85   O17   A    
C25   C33   A    
C119  C127  A    
O33   Zn11  S    
C134  O34   A    
C135  O41   A    
O34   Zn12  S    
C114  Cl14  S    
C76   C84   A    
C80   C120  A    
C158  C168  A    
C61   H9    S    
C164  C165  A    
C74   C82   A    
C22   C41   A    
C195  O55   D    
C101  C109  A    
C177  C185  A    
C103  C111  A    
C134  O44   A    
C201  O61   D    
C162  C166  A    
C132  Cl24  S    
C79   C119  A    
O10   Zn5   S    
C153  C155  A    
C154  C156  A    
C172  C180  A    
C111  Cl11  S    
C173  C181  A    
C157  C159  A    
C83   C99   A    
C158  C160  A    
C200  O60   D    
C128  Cl20  S    
C6    C74   S    
C7    O31   A    
C47   C103  A    
C141  C149  A    
C50   C58   A    
C163  C166  A    
C147  C161  A    
C142  C160  A    
C199  H27   S    
C38   C113  A    
C49   C105  A    
C54   C62   A    
C28   C39   A    
C107  Cl7   S    
C125  Cl17  S    
O8    Zn8   S    
O19   Zn3   S    
C1    C69   S    
C23   C44   A    
C3    C71   S    
C19   C173  A    
C79   C95   A    
C155  H2    S    
C46   C54   A    
C45   C101  A    
C133  O43   A    
C8    O32   A    
C19   C142  A    
C157  C167  A    
C102  C110  A    
C16   C196  S    
C35   C131  A    
C4    C72   S    
C58   C66   A    
C33   C129  A    
C123  C131  A    
C89   O21   A    
C120  C128  A    
C26   C37   A    
O6    Zn6   S    
O27   Zn8   S    
C33   C41   A    
C142  C150  A    
C9    C165  A    
C75   C83   A    
C118  C202  S    
C77   C93   A    
O42   Zn12  S    
C44   C111  A    
C16   C170  A    
C190  H18   S    
C28   C36   A    
C144  C152  A    
C39   C116  A    
C29   C37   A    
C50   C106  A    
C87   O11   A    
C9    C172  A    
C148  C156  A    
C83   C123  A    
C2    C70   S    
C60   C133  S    
C23   C31   A    
C120  C204  S    
C30   C126  A    
C70   C78   A    
C53   C140  S    
C205  H33   S    
C15   C195  S    
C13   C193  S    
C46   C102  A    
C110  Cl10  S    
C55   C138  S    
C81   C97   A    
C152  H5    S    
C106  C114  A    
C198  H26   S    
C92   C179  S    
C194  O54   D    
C77   C117  A    
C196  H24   S    
C48   C104  A    
C65   C73   A    
C159  C168  A    
C15   C169  A    
C160  C167  A    
C92   O16   A    
O3    Zn3   S    
C26   C34   A    
C31   C39   A    
C20   C200  S    
C57   C136  S    
C80   C96   A    
C115  Cl15  S    
C189  H17   S    
C101  Cl1   S    
O43   Zn12  S    
C138  O38   A    
O23   Zn7   S    
O44   Zn11  S    
C145  C153  A    
C28   C100  A    
C103  Cl3   S    
C52   C108  A    
C112  Cl12  S    
C5    O29   A    
C188  C192  S    
C137  O47   A    
C141  C159  A    
C143  C157  A    
C51   C99   A    
C11   C173  A    
O15   Zn4   S    
C62   H10   S    
C14   C172  A    
C87   C184  S    
C130  Cl22  S    
C88   C183  S    
C7    C75   S    
C86   O18   A    
C89   O13   A    
O11   Zn8   S    
C85   O9    A    
C88   O20   A    
O30   Zn1   S    
C107  C115  A    
C124  C208  S    
O48   Zn9   S    
C26   C98   A    
C12   C175  A    
C41   C110  A    
C193  O53   D    
C150  C152  A    
O35   Zn12  S    
C51   C59   A    
C43   C112  A    
O36   Zn11  S    
C144  C158  A    
O2    Zn2   S    
C139  O39   A    
C47   C55   A    
C61   C69   A    
C48   C56   A    
C88   O12   A    
C190  O50   D    
C12   C168  A    
C135  O35   A    
C6    O6    A    
C84   C124  A    
C118  C126  A    
C202  H30   S    
C136  O36   A    
O21   Zn5   S    
C156  H1    S    
C117  C201  S    
C1    O1    A    
C197  O57   D    
O14   Zn1   S    
C63   H11   S    
C64   C72   A    
C91   O15   A    
C201  H29   S    
C180  C185  A    
O47   Zn10  S    
C45   C53   A    
C1    O25   A    
C206  O66   D    
C65   H13   S    
C34   C130  A    
C208  H36   S    
C109  Cl9   S    
C47   C95   A    
C129  Cl21  S    
O40   Zn9   S    
O4    Zn4   S    
C13   C148  A    
O45   Zn9   S    
C117  C125  A    
C122  C130  A    
C105  Cl5   S    
C153  H4    S    
