data_mof_unit_15734.cif
_audit_creation_date              2012-10-26T19:15:54-0400
_audit_creation_method            fapswitch 2.2
_symmetry_space_group_name_H-M    P1
_symmetry_Int_Tables_number       1
_space_group_crystal_system       triclinic
_cell_length_a                    7.778331
_cell_length_b                    9.084163
_cell_length_c                    16.998174
_cell_angle_alpha                 89.663635
_cell_angle_beta                  93.806452
_cell_angle_gamma                 90.017744
_cell_volume                      1198.41437926

loop_
_atom_site_label
_atom_site_type_symbol
_atom_type_description
_atom_site_fract_x
_atom_site_fract_y
_atom_site_fract_z
_atom_type_partial_charge
C1    C     C_R   0.499957 0.220003 0.500041 0.557924
C2    C     C_R   0.567149 0.406211 0.138352 0.285087
C3    C     C_R   0.556864 0.530291 0.902788 0.160425
C4    C     C_R   0.437102 0.490391 0.097131 0.172821
C5    C     C_R   0.689483 0.467528 0.862888 -0.160446
C6    C     C_R   0.316097 0.565587 0.138643 -0.181934
C7    C     C_R   0.678600 0.461671 0.781036 -0.211151
C8    C     C_R   0.329834 0.566633 0.220572 -0.238682
C9    C     C_1   0.499920 0.065370 0.500107 -0.056504
C10   C     C_1   0.499971 0.934603 0.500095 -0.065645
C11   C     C_3   0.873415 0.387259 0.258102 0.013699
C12   C     C_R   0.500020 0.779988 0.499990 0.538412
C13   C     C_3   0.004512 0.285598 0.300758 -0.341811
C14   C     C_3   0.295190 0.791128 0.708612 0.010562
C15   C     C_3   0.139632 0.848492 0.658728 -0.334211
C16   C     C_3   0.599759 0.181193 0.083908 0.009584
C17   C     C_3   0.718504 0.086559 0.037702 -0.369854
C18   C     C_3   0.354044 0.806769 0.929082 -0.001354
C19   C     C_3   0.204052 0.906242 0.946327 -0.371029
C20   C     C_R   0.520998 0.502861 0.651501 0.550999
C21   C     C_R   0.478975 0.498591 0.348521 0.575185
C22   C     C_R   0.533670 0.517993 0.737628 -0.044196
C23   C     C_R   0.466193 0.493271 0.262205 -0.027802
C24   C     C_R   0.404498 0.591908 0.776938 0.252023
C25   C     C_R   0.587082 0.413415 0.221134 0.232820
C26   C     C_R   0.417705 0.601168 0.859506 0.303872
Cu1   Cu    Cu3+1 0.669080 0.500010 0.500000 1.014416
Cu2   Cu    Cu3+1 0.330920 0.499990 0.500000 1.000311
H1    H     H_    0.798691 0.417430 0.895675 0.162399
H2    H     H_    0.408109 0.792006 0.671625 0.114536
H3    H     H_    0.320548 0.867439 0.758866 0.122429
H4    H     H_    0.026211 0.854981 0.694968 0.153364
H5    H     H_    0.167597 0.960002 0.635677 0.098041
H6    H     H_    0.109103 0.773833 0.608232 0.191318
H7    H     H_    0.474554 0.192499 0.048527 0.133536
H8    H     H_    0.578305 0.123887 0.140574 0.148329
H9    H     H_    0.844767 0.072671 0.071465 0.158146
H10   H     H_    0.659828 0.976448 0.027099 0.082337
H11   H     H_    0.739223 0.139483 0.980010 0.158277
H12   H     H_    0.213215 0.626636 0.107205 0.145607
H13   H     H_    0.436709 0.867026 0.888499 0.091969
H14   H     H_    0.430719 0.785598 0.985448 0.155622
H15   H     H_    0.121565 0.851227 0.988572 0.156561
H16   H     H_    0.253522 0.010983 0.972484 0.088873
H17   H     H_    0.125492 0.931224 0.890896 0.160978
H18   H     H_    0.780801 0.407982 0.751725 0.163629
H19   H     H_    0.235559 0.627321 0.251556 0.138180
H20   H     H_    0.880699 0.496966 0.287033 0.138538
H21   H     H_    0.909502 0.399631 0.196171 0.169835
H22   H     H_    0.996256 0.174071 0.274283 0.152170
H23   H     H_    0.136397 0.328884 0.295196 0.120688
H24   H     H_    0.979340 0.277436 0.364218 0.179853
N1    N     N_1   0.076820 0.499970 0.500010 -0.094140
N2    N     N_1   0.923180 0.500030 0.499990 -0.091703
N3    N     N_2   0.567143 0.518035 0.985976 -0.202317
N4    N     N_2   0.424400 0.500635 0.013987 -0.193450
O1    O     O_R   0.642760 0.288400 0.500000 -0.489131
O2    O     O_3   0.259231 0.647822 0.735724 -0.511589
O3    O     O_3   0.677580 0.319768 0.097878 -0.541509
O4    O     O_3   0.288718 0.673424 0.896428 -0.511309
O5    O     O_R   0.357240 0.711600 0.500000 -0.509309
O6    O     O_R   0.357190 0.288380 0.500000 -0.503865
O7    O     O_R   0.642810 0.711620 0.500000 -0.500486
O8    O     O_R   0.658410 0.498660 0.613920 -0.508368
O9    O     O_R   0.341590 0.501340 0.386080 -0.522496
O10   O     O_R   0.372840 0.498650 0.613930 -0.456224
O11   O     O_R   0.627160 0.501350 0.386070 -0.475177
O12   O     O_3   0.707674 0.325233 0.262267 -0.547661

loop_
_geom_bond_atom_site_label_1
_geom_bond_atom_site_label_2
_ccdc_geom_bond_type
C20   O8    A    
Cu2   O10   S    
Cu2   N1    S    
C19   H17   S    
C11   H21   S    
C1    O1    A    
C19   H15   S    
C13   H24   S    
C9    C10   T    
C15   H6    S    
C2    C4    A    
C14   H3    S    
N3    N4    D    
C1    O6    A    
C8    C23   A    
C21   C23   S    
Cu2   O9    S    
C8    H19   S    
C15   H4    S    
C17   H9    S    
N1    N2    T    
C21   O11   A    
C12   O5    A    
C11   C13   S    
C11   H20   S    
C16   H8    S    
C25   O12   S    
Cu1   O7    S    
C14   H2    S    
C13   H23   S    
C10   C12   S    
C18   O4    S    
C20   C22   S    
C2    C25   A    
C5    H1    S    
C17   H10   S    
C23   C25   A    
C16   H7    S    
Cu1   O1    S    
C14   O2    S    
C22   C24   A    
Cu1   N2    S    
C4    C6    A    
Cu1   O11   S    
Cu1   O8    S    
Cu2   O5    S    
C13   H22   S    
C7    C22   A    
C7    H18   S    
C19   H16   S    
C6    H12   S    
C1    C9    S    
C11   O12   S    
C24   O2    S    
C18   C19   S    
C17   H11   S    
C18   H13   S    
C20   O10   A    
Cu1   Cu2   S    
C5    C7    A    
C12   O7    A    
C2    O3    S    
C6    C8    A    
C18   H14   S    
C21   O9    A    
C3    N3    S    
C14   C15   S    
C26   O4    S    
C15   H5    S    
C3    C26   A    
C4    N4    S    
C24   C26   A    
C16   C17   S    
C3    C5    A    
C16   O3    S    
Cu2   O6    S    
