data_mof_unit_35976.cif
_audit_creation_date              2012-12-10T22:11:05-0500
_audit_creation_method            fapswitch 2.2
_symmetry_space_group_name_H-M    P1
_symmetry_Int_Tables_number       1
_space_group_crystal_system       triclinic
_cell_length_a                    12.111111
_cell_length_b                    12.320276
_cell_length_c                    22.980862
_cell_angle_alpha                 90.808137
_cell_angle_beta                  90.092389
_cell_angle_gamma                 90.83247
_cell_volume                      3428.31703054

loop_
_atom_site_label
_atom_site_type_symbol
_atom_type_description
_atom_site_fract_x
_atom_site_fract_y
_atom_site_fract_z
_atom_type_partial_charge
C1    C     C_R   0.657225 0.998296 0.579015 0.871182
C2    C     C_R   0.096595 0.872241 0.824446 -0.161890
C3    C     C_R   0.902490 0.209133 0.134927 -0.200948
C4    C     C_R   0.097490 0.790917 0.865102 -0.200923
C5    C     C_R   0.150263 0.910645 0.302643 -0.160548
C6    C     C_R   0.849649 0.089331 0.697401 -0.160607
C7    C     C_R   0.231227 0.908612 0.345115 -0.193669
C8    C     C_R   0.768689 0.091363 0.654926 -0.193697
C9    C     C_R   0.843503 0.102759 0.304810 -0.189404
C10   C     C_R   0.156562 0.897265 0.695224 -0.189448
C11   C     C_R   0.762570 0.100142 0.347055 -0.194321
C12   C     C_R   0.342770 0.001704 0.420987 0.871190
C13   C     C_R   0.237497 0.899882 0.652979 -0.194330
C14   C     C_3   0.998987 0.010434 0.248112 -0.096714
C15   C     C_3   0.001010 0.989570 0.751889 -0.096680
C16   C     C_R   0.654678 0.001820 0.420546 0.870595
C17   C     C_R   0.345321 0.998180 0.579453 0.870578
C18   C     C_R   0.095894 0.008109 0.290291 0.141622
C19   C     C_R   0.904089 0.991889 0.709717 0.141580
C20   C     C_R   0.256809 0.002854 0.377239 -0.022450
C21   C     C_R   0.743175 0.997145 0.622769 -0.022433
C22   C     C_R   0.900505 0.007668 0.289427 0.128189
C23   C     C_R   0.894982 0.773649 0.151041 0.213682
C24   C     C_R   0.099487 0.992333 0.710567 0.128186
C25   C     C_R   0.738521 0.003358 0.375755 -0.022000
C26   C     C_R   0.261477 0.996641 0.624242 -0.021983
C27   C     C_R   0.998192 0.110047 0.209575 0.118928
C28   C     C_R   0.001812 0.889956 0.790426 0.118899
C29   C     C_R   0.997273 0.272774 0.126419 -0.024019
C30   C     C_R   0.002733 0.727225 0.873581 -0.024009
C31   C     C_R   0.998376 0.915684 0.203919 0.041772
C32   C     C_R   0.001627 0.084330 0.796077 0.041772
C33   C     C_R   0.990205 0.749718 0.118696 -0.085165
C34   C     C_R   0.104969 0.226493 0.848886 0.213714
C35   C     C_R   0.009793 0.250307 0.881293 -0.085050
C36   C     C_R   0.992335 0.661914 0.075653 0.888726
C37   C     C_R   0.007664 0.338093 0.924344 0.888681
C38   C     C_R   0.998587 0.353307 0.081368 0.858397
C39   C     C_R   0.001414 0.646693 0.918632 0.858331
C40   C     C_R   0.117746 0.100191 0.325736 -0.173028
C41   C     C_R   0.882288 0.899831 0.674246 -0.173018
C42   C     C_R   0.199037 0.098334 0.367826 -0.196195
C43   C     C_R   0.801000 0.901688 0.632154 -0.196202
C44   C     C_R   0.877733 0.911647 0.320177 -0.158808
C45   C     C_R   0.092411 0.892989 0.169044 0.040352
C46   C     C_R   0.122189 0.088326 0.679778 -0.158785
C47   C     C_R   0.796163 0.909015 0.362135 -0.203967
C48   C     C_R   0.203761 0.090959 0.637822 -0.203978
C49   C     C_R   0.092426 0.176421 0.201150 -0.174287
C50   C     C_R   0.907608 0.823526 0.798821 -0.174244
C51   C     C_R   0.091666 0.257154 0.160055 -0.196875
C52   C     C_R   0.908368 0.742794 0.839916 -0.196875
C53   C     C_R   0.898911 0.858656 0.191362 -0.273805
C54   C     C_R   0.101057 0.141461 0.808579 -0.273914
C55   C     C_1   0.196461 0.951473 0.174014 0.156193
C56   C     C_R   0.907627 0.106956 0.830993 0.040349
C57   C     C_1   0.803607 0.048413 0.826055 0.156251
C58   C     C_3   0.790052 0.615697 0.179185 -0.756959
C59   C     C_3   0.209434 0.384731 0.820740 -0.756947
C60   C     C_R   0.087138 0.810715 0.127494 -0.289874
C61   C     C_R   0.912905 0.189221 0.872547 -0.289889
C62   C     C_R   0.903384 0.127811 0.175583 -0.161867
H1    H     H_    0.215297 0.171159 0.393576 0.156249
H2    H     H_    0.169712 0.923057 0.820075 0.142429
H3    H     H_    0.129516 0.835198 0.280349 0.131714
H4    H     H_    0.870344 0.164766 0.719718 0.131755
H5    H     H_    0.863200 0.180527 0.285941 0.142619
H6    H     H_    0.136924 0.819509 0.714122 0.142654
H7    H     H_    0.780027 0.833871 0.384722 0.155192
H8    H     H_    0.219844 0.166080 0.615204 0.155186
H9    H     H_    0.165731 0.305996 0.153909 0.159359
H10   H     H_    0.834324 0.693911 0.846041 0.159341
H11   H     H_    0.160010 0.794463 0.101550 0.178069
H12   H     H_    0.784786 0.828883 0.606379 0.156241
H13   H     H_    0.840069 0.205405 0.898532 0.178046
H14   H     H_    0.828809 0.219775 0.108959 0.160469
H15   H     H_    0.171149 0.780313 0.891092 0.160469
H16   H     H_    0.273423 0.833241 0.352871 0.155337
H17   H     H_    0.726444 0.166716 0.647194 0.155331
H18   H     H_    0.719780 0.174425 0.357673 0.157392
H19   H     H_    0.280346 0.825619 0.642392 0.157382
H20   H     H_    0.071442 0.174001 0.320697 0.135804
H21   H     H_    0.928637 0.826043 0.679263 0.135828
H22   H     H_    0.724877 0.757899 0.148209 0.220356
H23   H     H_    0.923897 0.838512 0.311719 0.137958
H24   H     H_    0.713125 0.569178 0.168858 0.235768
H25   H     H_    0.789792 0.638311 0.226192 0.222154
H26   H     H_    0.861515 0.562638 0.169896 0.240656
H27   H     H_    0.275062 0.242561 0.851475 0.220352
H28   H     H_    0.286345 0.431339 0.830978 0.235772
H29   H     H_    0.137945 0.437646 0.830202 0.240630
H30   H     H_    0.209431 0.362272 0.773712 0.222140
H31   H     H_    0.075972 0.161437 0.688208 0.137977
H32   H     H_    0.168982 0.164151 0.224027 0.160326
H33   H     H_    0.831066 0.835754 0.775923 0.160314
H34   H     H_    0.822399 0.879220 0.212661 0.151967
H35   H     H_    0.177551 0.120969 0.787244 0.151971
H36   H     H_    0.830243 0.077037 0.179975 0.142381
N1    N     N_1   0.280480 0.997084 0.177645 -0.216275
N2    N     N_1   0.719610 0.002754 0.822450 -0.216256
N3    N     N_2   0.795251 0.712219 0.144080 -0.283064
N4    N     N_2   0.204618 0.288086 0.855756 -0.283116
O1    O     O_R   0.621380 0.090460 0.561410 -0.627721
O2    O     O_R   0.912410 0.372520 0.941210 -0.637389
O3    O     O_R   0.905660 0.383870 0.059980 -0.630822
O4    O     O_R   0.094340 0.616130 0.940020 -0.630817
O5    O     O_R   0.092570 0.390420 0.063230 -0.625790
O6    O     O_R   0.907430 0.609580 0.936770 -0.625771
O7    O     O_R   0.900680 0.620930 0.055550 -0.586238
O8    O     O_R   0.099320 0.379070 0.944450 -0.586248
O9    O     O_R   0.378620 0.909540 0.438590 -0.627726
O10   O     O_R   0.617150 0.909540 0.438590 -0.629837
O11   O     O_R   0.382850 0.090460 0.561410 -0.629835
O12   O     O_R   0.619720 0.093230 0.440890 -0.627833
O13   O     O_R   0.380280 0.906770 0.559110 -0.627830
O14   O     O_R   0.618800 0.906770 0.559110 -0.630236
O15   O     O_R   0.381200 0.093230 0.440890 -0.630241
O16   O     O_R   0.087590 0.627480 0.058790 -0.637393
Zn1   Zn    Zn3+2 0.501730 0.123520 0.501540 0.940052
Zn2   Zn    Zn3+2 0.498270 0.876480 0.498460 0.940053
Zn3   Zn    Zn3+2 0.125690 0.504390 0.002180 0.956690
Zn4   Zn    Zn3+2 0.874310 0.495610 0.997820 0.956692

loop_
_geom_bond_atom_site_label_1
_geom_bond_atom_site_label_2
_ccdc_geom_bond_type
C39   O4    A    
C45   C60   A    
C1    C21   S    
H27   N4    S    
C14   C18   S    
C14   C31   S    
C58   H25   S    
C17   O11   A    
C15   C32   S    
C61   H13   S    
C15   C19   S    
C6    C19   A    
C16   O10   A    
C34   N4    S    
C17   C26   S    
C35   C37   S    
O15   Zn1   S    
O8    Zn3   S    
C50   H33   S    
O2    Zn4   S    
C11   C25   A    
C41   H21   S    
C13   H19   S    
C60   H11   S    
C33   C36   S    
C56   C57   S    
C23   C33   A    
C34   C35   A    
C38   O5    A    
C3    C29   A    
C18   C40   A    
C47   H7    S    
O11   Zn1   S    
C28   C50   A    
C22   C44   A    
C49   C51   A    
C29   C38   S    
C30   C39   S    
C8    H17   S    
C50   C52   A    
C54   H35   S    
C1    O14   A    
C14   C27   S    
C36   O16   A    
C1    O1    A    
O12   Zn1   S    
C44   C47   A    
C26   C48   A    
C43   H12   S    
C40   C42   A    
C62   H36   S    
C53   H34   S    
H22   N3    S    
C41   C43   A    
C51   H9    S    
C58   H24   S    
C32   C54   A    
C2    H2    S    
C23   C53   A    
C39   O6    A    
C46   C48   A    
C40   H20   S    
C5    H3    S    
O6    Zn4   S    
O10   Zn2   S    
C9    C22   A    
C6    C8    A    
C5    C18   A    
C10   C24   A    
C57   N2    T    
C7    C20   A    
O14   Zn2   S    
C16   O12   A    
O9    Zn2   S    
C59   H28   S    
C2    C4    A    
C9    H5    S    
C52   H10   S    
C27   C62   A    
C12   C20   S    
C8    C21   A    
C35   C61   A    
C58   N3    S    
C59   H29   S    
C31   C53   A    
C3    H14   S    
C9    C11   A    
C37   O8    A    
C7    H16   S    
C15   C24   S    
C34   C54   A    
C33   C60   A    
C49   H32   S    
C13   C26   A    
O5    Zn3   S    
C44   H23   S    
C17   O13   A    
C5    C7    A    
C29   C51   A    
C3    C62   A    
C16   C25   S    
C30   C52   A    
C25   C47   A    
C59   N4    S    
O1    Zn1   S    
C48   H8    S    
C10   C13   A    
C58   H26   S    
C37   O2    A    
C20   C42   A    
C10   H6    S    
C24   C46   A    
C14   C22   S    
C38   O3    A    
C4    H15   S    
C15   C28   S    
C23   N3    S    
C46   H31   S    
O4    Zn3   S    
C32   C56   A    
O3    Zn4   S    
C59   H30   S    
O7    Zn4   S    
C4    C30   A    
C11   H18   S    
C12   O15   A    
C19   C41   A    
C6    H4    S    
C45   C55   S    
O13   Zn2   S    
C31   C45   A    
C55   N1    T    
C36   O7    A    
C56   C61   A    
C2    C28   A    
C42   H1    S    
O16   Zn3   S    
C12   O9    A    
C21   C43   A    
C27   C49   A    
