data_mof_unit_38463.cif
_audit_creation_date              2012-12-11T14:47:37-0500
_audit_creation_method            fapswitch 2.2
_symmetry_space_group_name_H-M    P1
_symmetry_Int_Tables_number       1
_space_group_crystal_system       triclinic
_cell_length_a                    19.513207
_cell_length_b                    6.957622
_cell_length_c                    19.424651
_cell_angle_alpha                 89.999761
_cell_angle_beta                  95.659518
_cell_angle_gamma                 90.002165
_cell_volume                      2624.34277629

loop_
_atom_site_label
_atom_site_type_symbol
_atom_type_description
_atom_site_fract_x
_atom_site_fract_y
_atom_site_fract_z
_atom_type_partial_charge
O1    O     O_R   0.673510 0.377480 0.186100 -0.527153
O2    O     O_R   0.326490 0.622520 0.813900 -0.529288
O3    O     O_R   0.826490 0.877480 0.313900 -0.527149
O4    O     O_R   0.173510 0.122520 0.686100 -0.529286
O5    O     O_R   0.807790 0.705750 0.184090 -0.527460
O6    O     O_R   0.192210 0.294250 0.815910 -0.531232
O7    O     O_R   0.692210 0.205750 0.315910 -0.527480
O8    O     O_R   0.307790 0.794250 0.684090 -0.531215
C1    C     C_1   0.478036 0.994864 0.521124 -0.012385
C2    C     C_1   0.521672 0.006047 0.478615 -0.008203
C3    C     C_1   0.021962 0.494853 0.978874 -0.012389
C4    C     C_1   0.978326 0.506041 0.021384 -0.008188
C5    C     C_R   0.830992 0.538368 0.166364 0.719981
C6    C     C_R   0.169140 0.461732 0.833769 0.727001
C7    C     C_R   0.669008 0.038365 0.333636 0.720027
C8    C     C_R   0.330859 0.961736 0.666231 0.727012
O9    O     O_R   0.672870 0.707110 0.178120 -0.540753
O10   O     O_R   0.327130 0.292890 0.821880 -0.546407
O11   O     O_R   0.827130 0.207110 0.321880 -0.540806
O12   O     O_R   0.172870 0.792890 0.678120 -0.546399
O13   O     O_R   0.690610 0.878650 0.307880 -0.519482
O14   O     O_R   0.309390 0.121350 0.692120 -0.516258
O15   O     O_R   0.809390 0.378650 0.192120 -0.519493
O16   O     O_R   0.190610 0.621350 0.807880 -0.516252
C9    C     C_R   0.648761 0.538632 0.160124 0.706490
C10   C     C_R   0.350959 0.461581 0.840137 0.714668
C11   C     C_R   0.851231 0.038629 0.339883 0.706496
C12   C     C_R   0.149045 0.961580 0.659861 0.714697
C13   C     C_1   0.382901 0.971705 0.614287 -0.216311
C14   C     C_1   0.616874 0.028757 0.385501 -0.230881
C15   C     C_1   0.117098 0.471694 0.885713 -0.216306
C16   C     C_1   0.883125 0.528761 0.114497 -0.230931
O17   O     O_3   0.755980 0.544260 0.292580 -0.353811
O18   O     O_3   0.244020 0.455740 0.707420 -0.359510
O19   O     O_3   0.744020 0.044260 0.207420 -0.353790
O20   O     O_3   0.255980 0.955740 0.792580 -0.359534
V1    V     V_3+5 0.748890 0.818640 0.242100 1.425539
V2    V     V_3+5 0.251110 0.181360 0.757900 1.398976
V3    V     V_3+5 0.751110 0.318640 0.257900 1.425442
V4    V     V_3+5 0.248890 0.681360 0.742100 1.399009
C17   C     C_R   0.088582 0.967339 0.606814 -0.113845
C18   C     C_R   0.911381 0.035771 0.393396 -0.115998
C19   C     C_R   0.411423 0.467349 0.893186 -0.113851
C20   C     C_R   0.588607 0.535781 0.106613 -0.116014
C21   C     C_1   0.426370 0.981805 0.571583 -0.017410
C22   C     C_1   0.573367 0.018955 0.428177 -0.017530
C23   C     C_1   0.073629 0.481793 0.928416 -0.017393
C24   C     C_1   0.926631 0.518954 0.071821 -0.017485
C25   C     C_R   0.023451 0.175422 0.431110 -0.013361
C26   C     C_R   0.971740 0.856596 0.573775 -0.008705
C27   C     C_R   0.476523 0.675395 0.068907 -0.013379
C28   C     C_R   0.528288 0.356727 0.926215 -0.008699
C29   C     C_R   0.965421 0.159317 0.383482 -0.225589
C30   C     C_R   0.031324 0.860069 0.619727 -0.233601
C31   C     C_R   0.534563 0.659321 0.116527 -0.225538
C32   C     C_R   0.468699 0.360153 0.880266 -0.233621
C33   C     C_R   0.913499 0.925834 0.454756 -0.076291
C34   C     C_R   0.087363 0.076382 0.545302 -0.071101
C35   C     C_R   0.586488 0.425839 0.045254 -0.076354
C36   C     C_R   0.412630 0.576388 0.954698 -0.071083
C37   C     C_R   0.970359 0.948594 0.507721 0.038408
C38   C     C_R   0.028097 0.068557 0.494518 0.041403
C39   C     C_R   0.529638 0.448640 0.992282 0.038407
C40   C     C_R   0.471890 0.568563 0.005489 0.041460
H1    H     H_    0.031770 0.785738 0.668925 0.124892
H2    H     H_    0.962657 0.244567 0.336434 0.130553
H3    H     H_    0.468263 0.285886 0.831063 0.124874
H4    H     H_    0.537328 0.744554 0.163577 0.130555
C41   C     C_R   0.150491 0.186927 0.535018 0.082893
C42   C     C_R   0.205345 0.097715 0.505856 -0.163165
C43   C     C_R   0.265112 0.201457 0.496656 -0.113548
C44   C     C_R   0.271052 0.393274 0.517753 -0.103586
C45   C     C_R   0.217439 0.481257 0.548602 -0.059351
C46   C     C_R   0.157685 0.377759 0.558283 -0.055977
H5    H     H_    0.201627 0.948870 0.489849 0.094500
H6    H     H_    0.306806 0.133132 0.473100 0.116920
H7    H     H_    0.317273 0.473558 0.510400 0.104628
H8    H     H_    0.222193 0.629692 0.564922 0.103379
H9    H     H_    0.116512 0.447031 0.582504 0.093693
C47   C     C_R   0.857296 0.783640 0.460407 0.098960
C48   C     C_R   0.870671 0.585991 0.455973 -0.098856
C49   C     C_R   0.818594 0.452067 0.463406 -0.075504
C50   C     C_R   0.752254 0.513811 0.473388 -0.085866
C51   C     C_R   0.737899 0.710120 0.475977 -0.095663
C52   C     C_R   0.789952 0.844892 0.469006 -0.109777
H10   H     H_    0.921397 0.535220 0.447813 0.098412
H11   H     H_    0.829895 0.300444 0.461988 0.094868
H12   H     H_    0.712057 0.409558 0.479209 0.095659
H13   H     H_    0.686579 0.757724 0.484151 0.111086
H14   H     H_    0.778111 0.996317 0.471882 0.066697
C53   C     C_R   0.349494 0.686932 0.964978 0.082838
C54   C     C_R   0.294657 0.597727 0.994174 -0.163054
C55   C     C_R   0.234885 0.701444 0.003374 -0.113439
C56   C     C_R   0.228919 0.893229 0.982236 -0.103642
C57   C     C_R   0.282511 0.981198 0.951349 -0.059441
C58   C     C_R   0.342274 0.877730 0.941679 -0.056049
H15   H     H_    0.298386 0.448896 0.010206 0.094482
H16   H     H_    0.193206 0.633117 0.026960 0.116902
H17   H     H_    0.182695 0.973487 0.989582 0.104649
H18   H     H_    0.277730 0.129598 0.934993 0.103474
H19   H     H_    0.383428 0.946987 0.917428 0.093734
C59   C     C_R   0.642658 0.283514 0.039616 0.098993
C60   C     C_R   0.629200 0.085887 0.043953 -0.098977
C61   C     C_R   0.681230 0.951829 0.036497 -0.075827
C62   C     C_R   0.747604 0.013433 0.026609 -0.085845
C63   C     C_R   0.762044 0.209720 0.024126 -0.095534
C64   C     C_R   0.710037 0.344625 0.031108 -0.109399
H20   H     H_    0.578441 0.035268 0.052009 0.098475
H21   H     H_    0.669870 0.800235 0.037818 0.094956
H22   H     H_    0.787761 0.909086 0.020767 0.095625
H23   H     H_    0.813395 0.257180 0.016042 0.111036
H24   H     H_    0.721942 0.496033 0.028324 0.066577
C65   C     C_R   0.075758 0.311735 0.410131 0.106663
C66   C     C_R   0.123733 0.251312 0.365291 -0.114247
C67   C     C_R   0.169317 0.383591 0.340412 -0.104382
C68   C     C_R   0.166047 0.577560 0.358604 -0.100282
C69   C     C_R   0.117173 0.639475 0.401657 -0.119491
C70   C     C_R   0.072134 0.507426 0.427300 -0.128318
H25   H     H_    0.125790 0.102150 0.349729 0.096378
H26   H     H_    0.206772 0.335996 0.306549 0.098837
H27   H     H_    0.201105 0.680003 0.339053 0.096177
H28   H     H_    0.114055 0.789658 0.415206 0.110180
H29   H     H_    0.035617 0.557351 0.461589 0.103017
C71   C     C_R   0.910222 0.778670 0.603027 0.116477
C72   C     C_R   0.907005 0.583616 0.621286 -0.133841
C73   C     C_R   0.850562 0.513940 0.652810 -0.111465
C74   C     C_R   0.797670 0.638624 0.667284 -0.091531
C75   C     C_R   0.801320 0.833575 0.650674 -0.122203
C76   C     C_R   0.857636 0.903856 0.619132 -0.120828
H30   H     H_    0.947929 0.485966 0.610695 0.102786
H31   H     H_    0.847969 0.363592 0.666454 0.100297
H32   H     H_    0.754091 0.584405 0.691773 0.100435
H33   H     H_    0.760597 0.930324 0.662359 0.103896
H34   H     H_    0.860172 0.055222 0.606717 0.095689
C77   C     C_R   0.424181 0.811568 0.089920 0.106693
C78   C     C_R   0.376282 0.751009 0.134821 -0.114361
C79   C     C_R   0.330696 0.883168 0.159763 -0.104442
C80   C     C_R   0.333883 0.077160 0.141568 -0.100250
C81   C     C_R   0.382674 0.139209 0.098444 -0.119433
C82   C     C_R   0.427715 0.007282 0.072741 -0.128200
H35   H     H_    0.374301 0.601846 0.150392 0.096402
H36   H     H_    0.293312 0.835475 0.193686 0.098851
H37   H     H_    0.298834 0.179505 0.161172 0.096199
H38   H     H_    0.385732 0.289409 0.084899 0.110069
H39   H     H_    0.464174 0.057316 0.038408 0.102978
C83   C     C_R   0.589855 0.279103 0.896945 0.116539
C84   C     C_R   0.593186 0.084070 0.878650 -0.133782
C85   C     C_R   0.649707 0.014674 0.847182 -0.111455
C86   C     C_R   0.702543 0.139638 0.832785 -0.091448
C87   C     C_R   0.698776 0.334570 0.849414 -0.122378
C88   C     C_R   0.642392 0.404559 0.880915 -0.120982
H40   H     H_    0.552304 0.986237 0.889175 0.102772
H41   H     H_    0.652398 0.864333 0.833542 0.100279
H42   H     H_    0.746181 0.085658 0.808341 0.100413
H43   H     H_    0.739461 0.431494 0.837800 0.103938
H44   H     H_    0.639771 0.555901 0.893338 0.095726

loop_
_geom_bond_atom_site_label_1
_geom_bond_atom_site_label_2
_ccdc_geom_bond_type
C34   C38   A    
C25   C65   S    
C79   H36   S    
C1    C21   S    
C73   C74   A    
O5    V1    S    
C69   C70   A    
C45   C46   A    
C5    C16   S    
C3    C23   S    
C57   C58   A    
O10   C10   A    
C69   H28   S    
C6    C15   S    
C4    C24   S    
C75   C76   A    
C47   C52   A    
C66   C67   A    
C77   C78   A    
C30   H1    S    
C5    O15   A    
O17   V3    S    
O18   V4    S    
C56   H17   S    
O19   V1    S    
C62   H22   S    
C17   C34   A    
C83   C84   A    
C80   H37   S    
C18   C29   A    
C43   H6    S    
O12   V4    S    
C25   C29   A    
C63   C64   A    
C20   C35   A    
C67   C68   A    
O14   V2    S    
C12   C17   S    
C68   C69   A    
C9    C20   S    
C64   H24   S    
C6    O16   A    
C74   H32   S    
C53   C58   A    
C27   C77   S    
C72   H30   S    
C84   C85   A    
C2    C22   S    
C8    O14   A    
C45   H8    S    
O6    V2    S    
C60   H20   S    
O11   C11   A    
C1    C2    T    
O5    C5    A    
C66   H25   S    
O7    C7    A    
C50   H12   S    
O8    C8    A    
C15   C23   T    
C58   H19   S    
O1    C9    A    
C16   C24   T    
C33   C47   S    
C59   C60   A    
C46   H9    S    
C18   C33   A    
C61   C62   A    
O4    C12   A    
C54   H15   S    
C31   H4    S    
C63   H23   S    
C77   C82   A    
C68   H27   S    
O20   V4    S    
C26   C71   S    
C51   C52   A    
C53   C54   A    
C57   H18   S    
C44   C45   A    
O12   C12   A    
C8    C13   S    
C48   C49   A    
C65   C70   A    
C13   C21   T    
C83   C88   A    
O19   V3    S    
C86   H42   S    
C44   H7    S    
O6    C6    A    
C81   H38   S    
C50   C51   A    
C52   H14   S    
C41   C46   A    
O2    C10   A    
C55   C56   A    
O9    V1    S    
C88   H44   S    
C85   C86   A    
C29   H2    S    
C42   C43   A    
O11   V3    S    
C19   C36   A    
C10   C19   S    
O4    V2    S    
C49   C50   A    
C56   C57   A    
C87   H43   S    
C72   C73   A    
C51   H13   S    
C74   C75   A    
C59   C64   A    
C42   H5    S    
C7    C14   S    
O17   V1    S    
C65   C66   A    
C62   C63   A    
C36   C53   S    
C28   C83   S    
C25   C38   A    
C76   H34   S    
O18   V2    S    
C35   C59   S    
C14   C22   T    
C27   C40   A    
C48   H10   S    
C47   C48   A    
C28   C39   A    
C82   H39   S    
C81   C82   A    
C34   C41   S    
C33   C37   A    
C32   H3    S    
C79   C80   A    
C35   C39   A    
C36   C40   A    
O9    C9    A    
O3    C11   A    
C84   H40   S    
O10   V2    S    
C43   C44   A    
C26   C30   A    
C86   C87   A    
C11   C18   S    
C61   H21   S    
C28   C32   A    
C73   H31   S    
O15   V3    S    
O20   V2    S    
C54   C55   A    
O16   V4    S    
C78   H35   S    
C71   C76   A    
C20   C31   A    
C27   C31   A    
C70   H29   S    
C37   C38   A    
C41   C42   A    
C17   C30   A    
C80   C81   A    
O1    V3    S    
C39   C40   A    
O2    V4    S    
C19   C32   A    
C7    O13   A    
O13   V1    S    
O3    V1    S    
C67   H26   S    
C85   H41   S    
C60   C61   A    
C26   C37   A    
O7    V3    S    
C87   C88   A    
C78   C79   A    
O8    V4    S    
C75   H33   S    
C55   H16   S    
C49   H11   S    
C3    C4    T    
C71   C72   A    
