data_mof_unit_35664.cif
_audit_creation_date              2012-12-10T18:10:55-0500
_audit_creation_method            fapswitch 2.2
_symmetry_space_group_name_H-M    P1
_symmetry_Int_Tables_number       1
_space_group_crystal_system       triclinic
_cell_length_a                    12.668472
_cell_length_b                    13.088631
_cell_length_c                    15.713505
_cell_angle_alpha                 92.166385
_cell_angle_beta                  101.861996
_cell_angle_gamma                 81.645949
_cell_volume                      2522.72268575

loop_
_atom_site_label
_atom_site_type_symbol
_atom_type_description
_atom_site_fract_x
_atom_site_fract_y
_atom_site_fract_z
_atom_type_partial_charge
C1    C     C_R   0.438735 0.691324 0.493027 0.843749
C2    C     C_R   0.596783 0.200581 0.529542 -0.056359
C3    C     C_R   0.302548 0.836158 0.428465 -0.170799
C4    C     C_R   0.500804 0.499861 0.661220 0.872392
C5    C     C_R   0.275842 0.940188 0.407943 -0.136848
C6    C     C_R   0.348341 0.008854 0.441739 -0.181120
C7    C     C_R   0.446908 0.974694 0.500846 0.094791
C8    C     C_R   0.464540 0.872817 0.531633 0.092453
C9    C     C_R   0.528643 0.037955 0.530554 0.091911
C10   C     C_R   0.617019 0.005153 0.599887 0.172142
C11   C     C_R   0.623811 0.909460 0.637984 -0.244553
C12   C     C_3   0.419053 0.586051 0.035688 0.362816
C13   C     C_R   0.548235 0.844026 0.604393 -0.207801
C14   C     C_R   0.525459 0.132745 0.492389 -0.243480
C15   C     C_R   0.684548 0.168577 0.597332 -0.170856
C16   C     C_R   0.561013 0.308910 0.510511 0.858820
C17   C     C_R   0.398855 0.801546 0.487817 -0.119174
C18   C     C_R   0.093636 0.343226 0.373895 0.025748
C19   C     C_R   0.789540 0.647058 0.584121 0.054238
C20   C     C_R   0.869625 0.701433 0.568430 -0.241294
C21   C     C_R   0.942843 0.654617 0.519033 -0.180360
C22   C     C_R   0.945741 0.549289 0.496074 0.023650
C23   C     C_3   0.499347 0.493804 0.082805 0.032143
C24   C     C_R   0.851279 0.505822 0.498325 0.230353
C25   C     C_R   0.033147 0.488706 0.464552 -0.049266
C26   C     C_R   0.010870 0.400244 0.411980 0.128303
C27   C     C_R   0.907446 0.368972 0.401722 -0.275601
C28   C     C_R   0.499645 0.499073 0.338855 0.891985
C29   C     C_R   0.831108 0.418334 0.447160 -0.199992
C30   C     C_R   0.143809 0.505004 0.491161 0.175434
C31   C     C_R   0.198909 0.369055 0.396761 -0.036746
C32   C     C_3   0.415863 0.576721 0.936898 -0.537753
C33   C     C_3   0.617140 0.514731 0.973425 0.281512
C34   C     C_3   0.471381 0.388826 0.041878 -0.407985
C35   C     C_3   0.615792 0.505424 0.071283 -0.558016
C36   C     C_1   0.499031 0.496517 0.249781 -0.121031
C37   C     C_3   0.505726 0.489941 0.917597 -0.050291
C38   C     C_3   0.073527 0.255705 0.309163 -0.468356
C39   C     C_3   0.010159 0.297383 0.220393 -0.310613
C40   C     C_3   0.987806 0.209752 0.155359 -0.772717
C41   C     C_3   0.179336 0.576227 0.567449 -0.402655
C42   C     C_3   0.167018 0.534019 0.654296 -0.313200
C43   C     C_3   0.191158 0.611757 0.728029 -0.791026
C44   C     C_3   0.482166 0.383014 0.945324 0.337071
C45   C     C_1   0.498890 0.494805 0.174330 0.041333
C46   C     C_1   0.506098 0.492576 0.826105 0.113076
C47   C     C_1   0.503934 0.496340 0.750503 -0.065680
C48   C     C_R   0.695875 0.069862 0.631357 -0.182077
H1    H     H_    0.452954 0.658364 0.058961 0.091818
H2    H     H_    0.201077 0.967004 0.362619 0.148594
H3    H     H_    0.428124 0.652223 0.912773 0.155244
H4    H     H_    0.555086 0.770802 0.636255 0.152067
H5    H     H_    0.264021 0.327710 0.368575 0.138910
H6    H     H_    0.885771 0.302869 0.362251 0.161878
H7    H     H_    0.728604 0.684270 0.618266 0.135964
H8    H     H_    0.990121 0.703359 0.493234 0.146309
H9    H     H_    0.870651 0.781029 0.589585 0.154321
H10   H     H_    0.755519 0.388593 0.438332 0.204197
H11   H     H_    0.623891 0.596577 0.961159 0.117655
H12   H     H_    0.334859 0.561819 0.901112 0.277114
H13   H     H_    0.643363 0.575317 0.106537 0.181926
H14   H     H_    0.673815 0.437873 0.100882 0.243694
H15   H     H_    0.553000 0.324554 0.940002 0.168705
H16   H     H_    0.388814 0.377127 0.048970 0.277595
H17   H     H_    0.149518 0.516792 0.050172 0.398136
H18   H     H_    0.065581 0.163917 0.145946 0.260361
H19   H     H_    0.937534 0.158349 0.178822 0.250555
H20   H     H_    0.942793 0.242332 0.091763 0.297375
H21   H     H_    0.931143 0.343174 0.226761 0.233806
H22   H     H_    0.058378 0.348961 0.194522 0.247933
H23   H     H_    0.528144 0.324376 0.077840 0.160895
H24   H     H_    0.152317 0.211421 0.299914 0.197933
H25   H     H_    0.030332 0.199464 0.334747 0.204352
H26   H     H_    0.277309 0.625639 0.738188 0.239849
H27   H     H_    0.136567 0.686024 0.712936 0.256872
H28   H     H_    0.176389 0.581256 0.788791 0.295019
H29   H     H_    0.083028 0.516543 0.650358 0.233153
H30   H     H_    0.223889 0.461095 0.669851 0.275540
H31   H     H_    0.262169 0.589488 0.572752 0.258385
H32   H     H_    0.142340 0.656790 0.558345 0.165137
H33   H     H_    0.812217 0.411914 0.835012 0.391241
H34   H     H_    0.740001 0.221469 0.627104 0.168660
H35   H     H_    0.298307 0.190059 0.878661 0.390622
H36   H     H_    0.688507 0.884457 0.692840 0.154073
H37   H     H_    0.763018 0.045992 0.684758 0.150240
H38   H     H_    0.464246 0.158470 0.435964 0.137555
H39   H     H_    0.250018 0.782335 0.395555 0.172842
H40   H     H_    0.323901 0.088339 0.422227 0.128060
N1    N     N_R   0.222200 0.444690 0.455710 -0.123307
N2    N     N_R   0.776960 0.554780 0.543830 -0.134210
O1    O     O_R   0.366740 0.627160 0.478850 -0.637488
O2    O     O_2   0.215952 0.691293 0.002954 -0.283556
O3    O     O_3   0.222679 0.497893 0.036221 -0.516192
O4    O     O_2   0.836209 0.481557 0.002835 -0.282936
O5    O     O_2   0.745832 0.328231 0.967811 -0.334783
O6    O     O_3   0.743065 0.453767 0.842690 -0.552955
O7    O     O_2   0.262698 0.400358 0.876806 -0.273651
O8    O     O_2   0.386296 0.314867 0.786257 -0.315228
O9    O     O_3   0.360354 0.215947 0.918333 -0.540963
O10   O     O_R   0.544830 0.662520 0.507140 -0.609336
O11   O     O_R   0.410920 0.482310 0.608710 -0.621762
O12   O     O_R   0.589010 0.517670 0.637000 -0.595874
O13   O     O_R   0.455170 0.337480 0.492860 -0.604080
O14   O     O_R   0.633260 0.372840 0.521150 -0.642384
O15   O     O_R   0.410990 0.482330 0.363000 -0.589850
O16   O     O_R   0.589080 0.517690 0.391290 -0.624818
O17   O     O_2   0.288029 0.633840 0.152384 -0.305210
S1    S     S_3+6 0.283141 0.604594 0.058373 0.027144
S2    S     S_3+6 0.739211 0.440674 0.947999 -0.002465
S3    S     S_3+6 0.368271 0.330969 0.877691 0.013709
Zn1   Zn    Zn3+2 0.381090 0.476390 0.481110 0.951432
Zn2   Zn    Zn3+2 0.618910 0.523610 0.518890 0.945906

loop_
_geom_bond_atom_site_label_1
_geom_bond_atom_site_label_2
_ccdc_geom_bond_type
C8    C13   A    
C23   C45   S    
C27   C29   A    
C41   C42   S    
O12   Zn2   S    
C19   C20   A    
C18   C26   A    
N2    Zn2   S    
C41   H32   S    
C12   H1    S    
C27   H6    S    
C7    C8    A    
O16   Zn2   S    
C12   C23   S    
C26   C27   A    
O8    S3    D    
O3    S1    S    
C38   C39   S    
C25   C30   A    
C6    H40   S    
O13   Zn1   S    
O1    Zn1   S    
C24   C29   A    
C16   O14   A    
C28   O16   A    
C31   N1    A    
C22   C25   A    
C4    O12   A    
O17   S1    D    
C30   C41   S    
C2    C16   S    
C9    C10   A    
C43   H26   S    
H17   O3    S    
O15   Zn1   S    
C33   H11   S    
C40   H18   S    
C21   C22   A    
C12   C32   S    
C15   C48   A    
C30   N1    A    
C1    O10   A    
O2    S1    D    
C15   H34   S    
C44   H15   S    
C43   H27   S    
C38   H24   S    
C3    H39   S    
C34   C44   S    
C14   H38   S    
O5    S2    D    
C39   C40   S    
C12   S1    S    
H33   O6    S    
C25   C26   A    
O9    S3    S    
C40   H19   S    
C33   C37   S    
C9    C14   A    
C32   H3    S    
C13   H4    S    
C16   O13   A    
C28   O15   A    
C23   C34   S    
C4    O11   A    
C34   H16   S    
C39   H21   S    
C36   C45   T    
C35   H13   S    
C32   C37   S    
C31   H5    S    
C2    C15   A    
O10   Zn2   S    
C23   C35   S    
C10   C48   A    
C22   C24   A    
C5    H2    S    
C33   S2    S    
C42   C43   S    
C32   H12   S    
C29   H10   S    
O14   Zn2   S    
C19   H7    S    
C43   H28   S    
C7    C9    A    
C46   C47   T    
C20   H9    S    
C3    C5    A    
C24   N2    A    
C41   H31   S    
C21   H8    S    
C42   H30   S    
C6    C7    A    
C11   H36   S    
O11   Zn1   S    
O6    S2    S    
N1    Zn1   S    
O4    S2    D    
C1    C17   S    
C8    C17   A    
C37   C44   S    
C18   C38   S    
C19   N2    A    
O7    S3    D    
C11   C13   A    
C5    C6    A    
C33   C35   S    
C39   H22   S    
C3    C17   A    
C35   H14   S    
C2    C14   A    
C10   C11   A    
C20   C21   A    
C28   C36   S    
C42   H29   S    
C1    O1    A    
C40   H20   S    
C48   H37   S    
H35   O9    S    
C18   C31   A    
C37   C46   S    
C34   H23   S    
C38   H25   S    
C4    C47   S    
C44   S3    S    
