data_mof_unit_61995.cif
_audit_creation_date              2013-03-05T15:48:37-0500
_audit_creation_method            fapswitch 2.2
_symmetry_space_group_name_H-M    P1
_symmetry_Int_Tables_number       1
_space_group_crystal_system       triclinic
_cell_length_a                    11.825743
_cell_length_b                    13.01038
_cell_length_c                    13.872331
_cell_angle_alpha                 86.270571
_cell_angle_beta                  91.703272
_cell_angle_gamma                 100.159237
_cell_volume                      2096.08611629

loop_
_atom_site_label
_atom_site_type_symbol
_atom_site_description
_atom_site_fract_x
_atom_site_fract_y
_atom_site_fract_z
_atom_type_partial_charge
O1    O     O_R   0.581500 0.354430 0.495010 -0.526010
O2    O     O_R   0.418500 0.645570 0.504990 -0.526009
O3    O     O_R   0.386890 0.341450 0.506880 -0.543632
O4    O     O_R   0.613110 0.658550 0.493120 -0.543631
C1    C     C_R   0.477268 0.299724 0.493001 0.877999
C2    C     C_R   0.522732 0.700276 0.506999 0.877998
O5    O     O_R   0.611060 0.507430 0.631070 -0.536982
O6    O     O_R   0.388940 0.492570 0.368930 -0.536981
O7    O     O_R   0.416450 0.494450 0.642940 -0.555073
O8    O     O_R   0.583550 0.505550 0.357060 -0.555073
C3    C     C_R   0.518916 0.501067 0.681612 0.829037
C4    C     C_R   0.481084 0.498933 0.318388 0.829037
Cu1   Cu    Cu3+1 0.615220 0.507680 0.492970 1.109362
Cu2   Cu    Cu3+1 0.384780 0.492320 0.507030 1.109363
C5    C     C_1   0.469120 0.497727 0.215944 -0.022983
C6    C     C_1   0.530880 0.502273 0.784056 -0.022984
C7    C     C_2   0.452329 0.495464 0.026279 0.190489
C8    C     C_2   0.547670 0.504536 0.973721 0.190489
C9    C     C_1   0.539670 0.503342 0.870424 0.099041
C10   C     C_1   0.460330 0.496658 0.129576 0.099041
C11   C     C_R   0.537705 0.814303 0.517677 -0.252205
C12   C     C_R   0.462295 0.185697 0.482322 -0.252205
C13   C     C_R   0.344585 0.012201 0.496858 0.321081
C14   C     C_R   0.655415 0.987799 0.503140 0.321081
C15   C     C_R   0.352787 0.121076 0.485742 0.180485
C16   C     C_R   0.647213 0.878924 0.514257 0.180485
C17   C     C_R   0.559242 0.139673 0.468067 0.282763
C18   C     C_R   0.440758 0.860327 0.531932 0.282764
C19   C     C_R   0.554314 0.032139 0.491841 -0.139506
C20   C     C_R   0.445686 0.967861 0.508157 -0.139506
N1    N     N_R   0.788370 0.519230 0.482390 -0.285040
N2    N     N_R   0.211630 0.480770 0.517610 -0.285040
C21   C     C_R   0.034048 0.403267 0.597202 0.232405
C22   C     C_R   0.965952 0.596732 0.402798 0.232404
C23   C     C_R   0.154224 0.414171 0.587898 0.373116
C24   C     C_R   0.845776 0.585829 0.412101 0.373117
C25   C     C_R   0.150571 0.534554 0.451982 0.498643
C26   C     C_R   0.849429 0.465446 0.548018 0.498643
C27   C     C_R   0.029647 0.533223 0.462844 -0.221458
C28   C     C_R   0.970353 0.466777 0.537155 -0.221458
Br1   Br    Br    0.698860 0.519717 0.031915 -0.290616
Br2   Br    Br    0.301140 0.480283 0.968084 -0.290616
Br3   Br    Br    0.317471 0.783908 0.611765 -0.308679
Br4   Br    Br    0.682528 0.216092 0.388234 -0.308678
Br5   Br    Br    0.787181 0.824319 0.545007 -0.247374
Br6   Br    Br    0.212819 0.175682 0.454992 -0.247374
N3    N     N_R   0.234330 0.947219 0.485113 0.180420
O9    O     O_R   0.217155 0.883334 0.415772 -0.235493
O10   O     O_R   0.150626 0.952669 0.542358 -0.198307
N4    N     N_R   0.765670 0.052781 0.514884 0.180420
O11   O     O_R   0.782847 0.116666 0.584224 -0.235493
O12   O     O_R   0.849372 0.047331 0.457637 -0.198307
N5    N     N_R   0.794308 0.420887 0.634973 0.159733
O13   O     O_R   0.724317 0.331715 0.636092 -0.270777
O14   O     O_R   0.819483 0.467132 0.715239 -0.285780
N6    N     N_R   0.205692 0.579113 0.365027 0.159734
O15   O     O_R   0.275682 0.668286 0.363908 -0.270776
O16   O     O_R   0.180521 0.532866 0.284762 -0.285780
Br7   Br    Br    0.765575 0.674049 0.327169 -0.278550
Br8   Br    Br    0.234425 0.325950 0.672830 -0.278550
Br9   Br    Br    0.963026 0.291303 0.686977 -0.136111
Br10  Br    Br    0.036973 0.708695 0.313021 -0.136112

loop_
_geom_bond_atom_site_label_1
_geom_bond_atom_site_label_2
_geom_bond_distance
_ccdc_geom_bond_type
N4    O12   1.301654 A    
O7    Cu2   1.912298 S    
C4    C5    1.424808 S    
C19   C20   1.419322 A    
O3    Cu2   1.967566 S    
N6    O16   1.301804 A    
C17   C19   1.407796 A    
C3    C6    1.424809 S    
C18   Br3   1.944746 S    
N3    O9    1.300077 A    
N1    C26   1.377017 A    
O5    Cu1   1.917640 S    
O6    C4    1.300718 A    
C24   Br7   1.935660 S    
C21   Br9   1.942411 S    
C7    C10   1.434195 S    
C18   C20   1.407796 A    
C7    C8    1.344410 D    
N1    C24   1.372713 A    
N3    O10   1.301654 A    
N5    O13   1.300382 A    
N6    O15   1.300380 A    
O5    C3    1.300718 A    
O7    C3    1.301565 A    
O2    C2    1.310634 A    
C26   N5    1.427774 S    
O8    C4    1.301566 A    
C25   N6    1.427774 S    
C6    C9    1.200319 T    
O1    C1    1.310633 A    
C15   Br6   1.939040 S    
O4    C2    1.305597 A    
C26   C28   1.439331 A    
C11   C16   1.414408 A    
C14   C16   1.401320 A    
N4    O11   1.300079 A    
C22   C24   1.412058 A    
C12   C17   1.408230 A    
N5    O14   1.301805 A    
C14   N4    1.434487 S    
C5    C10   1.200321 T    
O2    Cu2   1.961649 S    
C21   C28   1.427131 A    
O1    Cu1   1.961649 S    
C22   C27   1.427132 A    
N2    C23   1.372713 A    
C14   C19   1.416754 A    
C22   Br10  1.942410 S    
C13   C15   1.401319 A    
C13   N3    1.434487 S    
C13   C20   1.416754 A    
C12   C15   1.414407 A    
C25   C27   1.439331 A    
C8    C9    1.434195 S    
C8    Br1   1.922958 S    
C27   C28   1.419470 A    
Cu1   N1    2.035523 S    
C7    Br2   1.922958 S    
O6    Cu2   1.917638 S    
N2    C25   1.377017 A    
C16   Br5   1.939040 S    
C21   C23   1.412059 A    
Cu1   Cu2   2.709002 S    
C2    C11   1.479370 S    
C17   Br4   1.944747 S    
C11   C18   1.408229 A    
C1    C12   1.479370 S    
O4    Cu1   1.967569 S    
Cu2   N2    2.035522 S    
C23   Br8   1.935659 S    
O3    C1    1.305597 A    
O8    Cu1   1.912297 S    
