data_mof_unit_23151.cif
_audit_creation_date              2012-10-26T20:31:24-0400
_audit_creation_method            fapswitch 2.2
_symmetry_space_group_name_H-M    P1
_symmetry_Int_Tables_number       1
_space_group_crystal_system       triclinic
_cell_length_a                    11.684573
_cell_length_b                    10.84029
_cell_length_c                    9.571898
_cell_angle_alpha                 90.531087
_cell_angle_beta                  90.009769
_cell_angle_gamma                 90.07942
_cell_volume                      1212.36314916

loop_
_atom_site_label
_atom_site_type_symbol
_atom_type_description
_atom_site_fract_x
_atom_site_fract_y
_atom_site_fract_z
_atom_type_partial_charge
C1    C     C_R   0.502760 0.262340 0.499078 0.572134
C2    C     C_R   0.401257 0.485437 0.073882 -0.026200
C3    C     C_R   0.401280 0.485337 0.925654 -0.024698
C4    C     C_R   0.284060 0.499603 0.500023 0.543252
C5    C     C_R   0.600276 0.503841 0.926834 0.155035
C6    C     C_3   0.692346 0.599586 0.921571 0.149745
C7    C     C_3   0.693676 0.596862 0.081927 0.147658
C8    C     C_R   0.499603 0.737441 0.500375 0.542383
C9    C     C_R   0.715899 0.498289 0.500037 0.532419
C10   C     C_1   0.162351 0.498318 0.500176 -0.046350
C11   C     C_1   0.059832 0.497016 0.500393 -0.067950
C12   C     C_R   0.512758 0.128772 0.496465 0.012753
C13   C     C_1   0.940079 0.495900 0.500391 -0.055982
C14   C     C_1   0.837562 0.496170 0.500207 -0.024467
C15   C     C_R   0.518263 0.064612 0.622351 -0.011630
C16   C     C_3   0.400910 0.120112 0.189390 -0.080385
C17   C     C_3   0.741261 0.792751 0.167927 -0.012879
C18   C     C_3   0.807345 0.765932 0.302686 -0.256095
C19   C     C_3   0.887692 0.872030 0.340902 -0.489783
C20   C     C_3   0.267828 0.157995 0.829415 0.040712
C21   C     C_3   0.151362 0.204479 0.780144 -0.272644
C22   C     C_3   0.078788 0.250111 0.902638 -0.499850
C23   C     C_R   0.514481 0.061334 0.369178 0.225520
C24   C     C_3   0.607207 0.160734 0.871791 0.036886
C25   C     C_3   0.684614 0.051838 0.907214 -0.283627
C26   C     C_3   0.809198 0.091735 0.921892 -0.491704
C27   C     C_3   0.886645 0.627477 0.866273 -0.001731
C28   C     C_3   0.874957 0.741239 0.772343 -0.267988
C29   C     C_3   0.988452 0.810172 0.760104 -0.486882
C30   C     C_R   0.513057 0.932786 0.372100 -0.145052
C31   C     C_R   0.506402 0.870410 0.499592 -0.048260
C32   C     C_R   0.513236 0.937642 0.623950 -0.088468
C33   C     C_3   0.435797 0.935960 0.748557 -0.181475
C34   C     C_3   0.442327 0.076647 0.749046 0.519737
C35   C     C_R   0.600495 0.502436 0.073481 0.151963
Cu1   Cu    Cu3+1 0.499990 0.499980 0.640670 0.962668
Cu2   Cu    Cu3+1 0.500010 0.500020 0.359330 0.988658
H1    H     H_    0.660751 0.686157 0.873499 0.128432
H2    H     H_    0.381090 0.030294 0.137857 0.117085
H3    H     H_    0.701060 0.884497 0.180815 0.159804
H4    H     H_    0.799647 0.800593 0.077095 0.104008
H5    H     H_    0.746055 0.752170 0.389883 0.183403
H6    H     H_    0.859278 0.681138 0.289216 0.146589
H7    H     H_    0.837977 0.957452 0.362219 0.154140
H8    H     H_    0.949038 0.888962 0.254483 0.142836
H9    H     H_    0.936727 0.848161 0.436219 0.147857
H10   H     H_    0.307888 0.232424 0.893398 0.165162
H11   H     H_    0.255385 0.073879 0.893720 0.115530
H12   H     H_    0.772066 0.557224 0.129719 0.106222
H13   H     H_    0.164066 0.281863 0.706308 0.186507
H14   H     H_    0.105317 0.128893 0.724413 0.158526
H15   H     H_    0.061433 0.173395 0.975836 0.143830
H16   H     H_    0.996154 0.286193 0.863041 0.166618
H17   H     H_    0.123458 0.325917 0.959532 0.132688
H18   H     H_    0.619167 0.232727 0.953814 0.171928
H19   H     H_    0.633407 0.204699 0.772687 0.147696
H20   H     H_    0.655023 0.011637 0.006756 0.193037
H21   H     H_    0.678911 0.979888 0.824545 0.145078
H22   H     H_    0.841104 0.127845 0.820909 0.153894
H23   H     H_    0.510812 0.882844 0.273711 0.176222
H24   H     H_    0.862350 0.011374 0.951766 0.137854
H25   H     H_    0.817903 0.164136 0.004109 0.160142
H26   H     H_    0.961828 0.573436 0.829760 0.164031
H27   H     H_    0.906341 0.654435 0.975768 0.102526
H28   H     H_    0.845882 0.712712 0.666485 0.179087
H29   H     H_    0.810907 0.805862 0.816727 0.132489
H30   H     H_    0.019805 0.838403 0.865235 0.138157
H31   H     H_    0.976286 0.894372 0.696630 0.142819
H32   H     H_    0.053573 0.750786 0.708358 0.154360
H33   H     H_    0.349435 0.898558 0.723339 0.118965
H34   H     H_    0.477428 0.892812 0.840385 0.123864
H35   H     H_    0.320748 0.474833 0.127763 0.112118
H36   H     H_    0.320785 0.474704 0.871467 0.121282
H37   H     H_    0.394115 0.193747 0.110552 0.162285
H38   H     H_    0.335699 0.141595 0.271188 0.101830
N1    N     N_R   0.500710 0.500930 0.147930 -0.205466
N2    N     N_R   0.500710 0.500890 0.852020 -0.250812
O1    O     O_R   0.500000 0.319640 0.618810 -0.485347
O2    O     O_3   0.652036 0.706652 0.144771 -0.566745
O3    O     O_3   0.336721 0.132445 0.711582 -0.563325
O4    O     O_3   0.490557 0.124930 0.876191 -0.592871
O5    O     O_3   0.790817 0.547706 0.857904 -0.584489
O6    O     O_R   0.500010 0.319680 0.381230 -0.459546
O7    O     O_R   0.337190 0.499990 0.618790 -0.507018
O8    O     O_R   0.337200 0.500030 0.381210 -0.514894
O9    O     O_R   0.499990 0.680320 0.618770 -0.509639
O10   O     O_R   0.500000 0.680360 0.381190 -0.463135
O11   O     O_R   0.662800 0.499970 0.618790 -0.461184
O12   O     O_R   0.662810 0.500010 0.381210 -0.500882
O13   O     O_3   0.513891 0.120094 0.241676 -0.550973

loop_
_geom_bond_atom_site_label_1
_geom_bond_atom_site_label_2
_ccdc_geom_bond_type
C16   O13   S    
C6    O5    S    
C16   H38   S    
C24   O4    S    
C19   H9    S    
C15   C32   A    
C22   H17   S    
Cu1   O11   S    
C24   H18   S    
C12   C23   A    
C16   H37   S    
Cu2   O8    S    
Cu1   Cu2   S    
C26   H24   S    
Cu1   N2    S    
C18   H5    S    
C9    O11   A    
C5    C6    S    
C17   O2    S    
C18   C19   S    
C34   O3    S    
C29   H30   S    
C30   H23   S    
C6    H1    S    
C34   O4    S    
C26   H22   S    
C15   C34   S    
C13   C14   T    
C1    O1    A    
C1    C12   S    
C25   H20   S    
C2    H35   S    
C21   H13   S    
C17   C18   S    
C22   H16   S    
C29   H32   S    
C35   N1    A    
C20   O3    S    
C23   C30   A    
C24   C25   S    
C7    H12   S    
C10   C11   T    
C9    O12   A    
C4    O8    A    
Cu1   O9    S    
C25   C26   S    
C17   H3    S    
C28   H29   S    
C9    C14   S    
C29   H31   S    
C31   C32   A    
C4    O7    A    
C12   C15   A    
C33   C34   S    
C23   O13   S    
C20   H11   S    
C27   H26   S    
C33   H33   S    
Cu2   N1    S    
C24   H19   S    
C25   H21   S    
C5    N2    A    
C3    N2    A    
C21   H14   S    
C2    N1    A    
C19   H7    S    
C7    O2    S    
C28   C29   S    
C8    C31   S    
C7    C35   S    
Cu2   O10   S    
C27   O5    S    
C19   H8    S    
C6    C7    S    
C1    O6    A    
Cu2   O12   S    
C8    O10   A    
C32   C33   S    
C28   H28   S    
C26   H25   S    
Cu1   O1    S    
C18   H6    S    
C11   C13   S    
C30   C31   A    
Cu1   O7    S    
C5    C35   A    
C2    C3    A    
C22   H15   S    
C8    O9    A    
C3    H36   S    
C17   H4    S    
C20   H10   S    
C27   H27   S    
C33   H34   S    
C16   H2    S    
C20   C21   S    
C27   C28   S    
Cu2   O6    S    
C21   C22   S    
C4    C10   S    
