data_mof_unit_38272.cif
_audit_creation_date              2013-03-05T16:10:11-0500
_audit_creation_method            fapswitch 2.2
_symmetry_space_group_name_H-M    P1
_symmetry_Int_Tables_number       1
_space_group_crystal_system       triclinic
_cell_length_a                    14.560135
_cell_length_b                    7.262479
_cell_length_c                    13.612629
_cell_angle_alpha                 89.995616
_cell_angle_beta                  100.046875
_cell_angle_gamma                 90.004257
_cell_volume                      1417.36256009

loop_
_atom_site_label
_atom_site_type_symbol
_atom_site_description
_atom_site_fract_x
_atom_site_fract_y
_atom_site_fract_z
_atom_type_partial_charge
O1    O     O_R   0.648180 0.355050 0.151550 -0.563124
O2    O     O_R   0.351820 0.644950 0.848450 -0.563129
O3    O     O_R   0.851820 0.855050 0.348450 -0.563207
O4    O     O_R   0.148180 0.144950 0.651550 -0.563025
O5    O     O_R   0.835240 0.681980 0.154280 -0.600674
O6    O     O_R   0.164760 0.318020 0.845720 -0.600589
O7    O     O_R   0.664760 0.181980 0.345720 -0.600751
O8    O     O_R   0.335240 0.818020 0.654280 -0.600749
H1    H     H_    0.688244 0.824950 0.810904 0.165706
H2    H     H_    0.311759 0.175044 0.189096 0.165706
H3    H     H_    0.811379 0.327260 0.688900 0.165658
H4    H     H_    0.188580 0.672991 0.311084 0.165685
C1    C     C_R   0.865710 0.515663 0.135503 0.969288
C2    C     C_R   0.134300 0.484341 0.864508 0.969282
C3    C     C_R   0.634335 0.015632 0.364550 0.969032
C4    C     C_R   0.365665 0.984367 0.635450 0.969010
O9    O     O_R   0.647870 0.684600 0.139630 -0.539355
O10   O     O_R   0.352130 0.315400 0.860370 -0.539369
O11   O     O_R   0.852130 0.184600 0.360370 -0.539325
O12   O     O_R   0.147870 0.815400 0.639630 -0.539360
O13   O     O_R   0.663110 0.857440 0.333700 -0.568561
O14   O     O_R   0.336890 0.142560 0.666300 -0.568578
O15   O     O_R   0.836890 0.357440 0.166300 -0.568519
O16   O     O_R   0.163110 0.642560 0.833700 -0.568624
C5    C     C_R   0.615155 0.515947 0.113112 0.949007
C6    C     C_R   0.384845 0.484053 0.886889 0.948978
C7    C     C_R   0.884844 0.015945 0.386890 0.949108
C8    C     C_R   0.115159 0.984054 0.613107 0.949124
O17   O     O_3   0.755220 0.522230 0.313690 -0.277108
O18   O     O_3   0.244780 0.477770 0.686310 -0.277055
O19   O     O_3   0.744780 0.022230 0.186310 -0.276946
O20   O     O_3   0.255220 0.977770 0.813690 -0.276981
V1    V     V_3+5 0.749030 0.796100 0.238190 1.279224
V2    V     V_3+5 0.250970 0.203900 0.761810 1.279297
V3    V     V_3+5 0.750970 0.296100 0.261810 1.279170
V4    V     V_3+5 0.249030 0.703900 0.738190 1.279156
C9    C     C_1   0.965967 0.005373 0.466816 -0.085651
C10   C     C_1   0.034039 0.994621 0.533175 -0.085431
C11   C     C_1   0.534035 0.505378 0.033181 -0.085843
C12   C     C_1   0.465965 0.494621 0.966819 -0.085829
H5    H     H_    0.210215 0.209075 0.313241 0.175551
H6    H     H_    0.789789 0.790932 0.686759 0.175497
H7    H     H_    0.290221 0.706484 0.186987 0.175695
H8    H     H_    0.709701 0.293974 0.812979 0.175703
C13   C     C_R   0.569071 0.919144 0.705635 0.303461
C14   C     C_R   0.430930 0.080849 0.294366 0.303461
C15   C     C_R   0.930782 0.420032 0.794287 0.303652
C16   C     C_R   0.069215 0.579984 0.205717 0.303552
C17   C     C_R   0.660370 0.853801 0.733344 -0.204581
C18   C     C_R   0.339632 0.146197 0.266656 -0.204646
C19   C     C_R   0.839299 0.355703 0.766491 -0.204962
C20   C     C_R   0.160660 0.644515 0.233497 -0.204994
C21   C     C_R   0.718621 0.837431 0.663693 -0.155453
C22   C     C_R   0.281382 0.162572 0.336308 -0.155435
C23   C     C_R   0.780988 0.339732 0.836105 -0.155670
C24   C     C_R   0.218954 0.660594 0.163872 -0.155594
C25   C     C_R   0.687391 0.889445 0.565509 -0.165756
C26   C     C_R   0.312612 0.110559 0.434491 -0.165774
C27   C     C_R   0.812362 0.391095 0.934356 -0.165447
C28   C     C_R   0.187603 0.609135 0.065629 -0.165538
C29   C     C_R   0.594290 0.948486 0.532723 0.097815
C30   C     C_R   0.405711 0.051515 0.467278 0.097820
C31   C     C_R   0.905606 0.449254 0.967214 0.098149
C32   C     C_R   0.094383 0.550837 0.032781 0.098144
C33   C     C_R   0.531847 0.954776 0.602780 -0.033028
C34   C     C_R   0.468154 0.045221 0.397221 -0.033005
C35   C     C_R   0.968068 0.455305 0.897164 -0.033354
C36   C     C_R   0.031931 0.544727 0.102836 -0.033216
C37   C     C_R   0.564043 0.001843 0.431786 -0.254566
C38   C     C_R   0.435958 0.998157 0.568215 -0.254554
C39   C     C_R   0.935967 0.501958 0.068230 -0.254792
C40   C     C_R   0.064034 0.498058 0.931776 -0.254891
H9    H     H_    0.737474 0.880830 0.515718 0.114943
H10   H     H_    0.262528 0.119177 0.484283 0.114940
H11   H     H_    0.762267 0.382718 0.984147 0.114420
H12   H     H_    0.237695 0.617568 0.015836 0.114508
N1    N     N_R   0.521643 0.973229 0.784657 0.216723
O21   O     O_R   0.520009 0.861805 0.859114 -0.402186
O22   O     O_R   0.507522 0.147728 0.797289 -0.421111
N2    N     N_R   0.478355 0.026749 0.215344 0.216715
O23   O     O_R   0.479991 0.138163 0.140884 -0.402176
O24   O     O_R   0.492474 0.852247 0.202720 -0.421118
N3    N     N_R   0.978439 0.473272 0.715308 0.216563
O25   O     O_R   0.992564 0.647638 0.702217 -0.420979
O26   O     O_R   0.980196 0.361149 0.641179 -0.402339
N4    N     N_R   0.021621 0.526439 0.284701 0.216567
O27   O     O_R   0.019958 0.638240 0.358980 -0.402250
O28   O     O_R   0.007439 0.352031 0.297570 -0.421108

loop_
_geom_bond_atom_site_label_1
_geom_bond_atom_site_label_2
_geom_bond_distance
_ccdc_geom_bond_type
C26   C30   1.417583 A    
C23   C27   1.386908 A    
O10   C6    1.340678 A    
C2    C40   1.490644 S    
O6    V2    2.016869 S    
N1    O21   1.300371 A    
C1    O15   1.316617 A    
C18   C22   1.383137 A    
C2    O16   1.316591 A    
C32   C36   1.428559 A    
C14   C34   1.433965 A    
H6    C21   1.082999 S    
N4    O28   1.300083 A    
C34   C37   1.428544 A    
O13   V1    2.005369 S    
O3    V1    1.972873 S    
O2    V4    1.972871 S    
C33   C38   1.428547 A    
C30   C38   1.421563 A    
C35   C40   1.428645 A    
O8    V4    2.016719 S    
C25   H9    1.080537 S    
O4    C8    1.335155 A    
O5    V1    2.016869 S    
O19   V1    1.784433 S    
C13   C17   1.399896 A    
O11   C7    1.340706 A    
O5    C1    1.326950 A    
O7    C3    1.327000 A    
O8    C4    1.327001 A    
O1    C5    1.335153 A    
O9    V1    1.983865 S    
O14   V2    2.005368 S    
C15   C35   1.433995 A    
H4    C20   1.083388 S    
O4    V2    1.972875 S    
N1    O22   1.300114 A    
C3    C37   1.490635 S    
C31   C35   1.428592 A    
C30   C34   1.428526 A    
H1    C17   1.083411 S    
N2    O24   1.300108 A    
C11   C12   1.221500 T    
O1    V3    1.972873 S    
C21   C25   1.386969 A    
N4    O27   1.300354 A    
C15   C19   1.399909 A    
O12   C8    1.340696 A    
C28   H12   1.080549 S    
C24   C28   1.386931 A    
O20   V2    1.784434 S    
C9    C10   1.221500 T    
O6    C2    1.326962 A    
N3    O25   1.300136 A    
C8    C10   1.461656 S    
C4    C38   1.490638 S    
O2    C6    1.335155 A    
O16   V4    2.005285 S    
C16   C36   1.434007 A    
O10   V2    1.983864 S    
N3    O26   1.300427 A    
C31   C39   1.421535 A    
C15   N3    1.430741 S    
C13   C33   1.433969 A    
C16   N4    1.430849 S    
C27   C31   1.417642 A    
H2    C18   1.083412 S    
C27   H11   1.080552 S    
C26   H10   1.080536 S    
C22   C26   1.386969 A    
C29   C37   1.421565 A    
C14   C18   1.399889 A    
C4    O14   1.316559 A    
O7    V3    2.016721 S    
N2    O23   1.300366 A    
C25   C29   1.417585 A    
C1    C39   1.490595 S    
O17   V3    1.784524 S    
O15   V3    2.005282 S    
O18   V4    1.784525 S    
C28   C32   1.417613 A    
O9    C5    1.340679 A    
O3    C7    1.335145 A    
O11   V3    1.983869 S    
C5    C11   1.461651 S    
C14   N2    1.430930 S    
H8    C23   1.082974 S    
C6    C12   1.461650 S    
C3    O13   1.316560 A    
C7    C9    1.461653 S    
C36   C39   1.428627 A    
C17   C21   1.383140 A    
C19   C23   1.383105 A    
C32   C40   1.421533 A    
H5    C22   1.083001 S    
H3    C19   1.083390 S    
O12   V4    1.983870 S    
C29   C33   1.428530 A    
H7    C24   1.082992 S    
C16   C20   1.399871 A    
C13   N1    1.430927 S    
C20   C24   1.383108 A    
