data_mof_unit_55301.cif
_audit_creation_date              2012-12-11T14:42:14-0500
_audit_creation_method            fapswitch 2.2
_symmetry_space_group_name_H-M    P1
_symmetry_Int_Tables_number       1
_space_group_crystal_system       triclinic
_cell_length_a                    19.051271
_cell_length_b                    10.952166
_cell_length_c                    18.834186
_cell_angle_alpha                 89.974912
_cell_angle_beta                  90.42862
_cell_angle_gamma                 89.973135
_cell_volume                      3929.69265596

loop_
_atom_site_label
_atom_site_type_symbol
_atom_type_description
_atom_site_fract_x
_atom_site_fract_y
_atom_site_fract_z
_atom_type_partial_charge
C1    C     C_R   0.728283 0.954107 0.852643 0.537053
C2    C     C_R   0.252173 0.408675 0.921451 0.029833
C3    C     C_R   0.539974 0.844676 0.932039 -0.070338
C4    C     C_R   0.535318 0.736612 0.892737 -0.114994
C5    C     C_R   0.486300 0.726178 0.837767 -0.110425
C6    C     C_R   0.440494 0.822469 0.823357 -0.084674
C7    C     C_R   0.442028 0.927652 0.865395 -0.073078
C8    C     C_R   0.007086 0.441254 0.080724 0.056577
C9    C     C_R   0.960248 0.344699 0.068201 -0.071167
C10   C     C_R   0.964895 0.236693 0.107622 -0.112738
C11   C     C_R   0.013868 0.226313 0.162651 -0.108305
C12   C     C_R   0.059636 0.322590 0.177001 -0.085461
C13   C     C_R   0.247866 0.908693 0.078552 0.029900
C14   C     C_R   0.058114 0.427703 0.134847 -0.074066
C15   C     C_R   0.993099 0.441244 0.919456 0.057072
C16   C     C_R   0.039975 0.344676 0.932039 -0.070338
C17   C     C_R   0.035319 0.236612 0.892738 -0.114992
C18   C     C_R   0.986300 0.226177 0.837768 -0.110417
C19   C     C_R   0.940494 0.322468 0.823358 -0.084679
C20   C     C_R   0.942028 0.427652 0.865395 -0.073082
C21   C     C_R   0.752173 0.908675 0.921451 0.029832
C22   C     C_R   0.786033 0.316511 0.046154 -0.145453
C23   C     C_R   0.214156 0.316330 0.953848 -0.146369
C24   C     C_R   0.286033 0.816511 0.046154 -0.145453
C25   C     C_R   0.714156 0.816330 0.953848 -0.146369
C26   C     C_R   0.785132 0.306567 0.973168 -0.133650
C27   C     C_R   0.215068 0.306326 0.026834 -0.133746
C28   C     C_R   0.285132 0.806568 0.973168 -0.133650
C29   C     C_R   0.271719 0.954112 0.147356 0.544197
C30   C     C_R   0.715067 0.806327 0.026834 -0.133746
C31   C     C_R   0.740572 0.380572 0.931784 0.034374
C32   C     C_R   0.259462 0.380515 0.068210 0.034177
C33   C     C_R   0.240572 0.880572 0.931784 0.034373
C34   C     C_R   0.759462 0.880515 0.068210 0.034178
C35   C     C_R   0.532316 0.271630 0.527291 -0.195476
C36   C     C_R   0.529285 0.265391 0.455083 -0.196343
C37   C     C_R   0.032302 0.771645 0.527288 -0.195499
C38   C     C_R   0.029281 0.765415 0.455080 -0.196355
C39   C     C_R   0.504175 0.159898 0.422912 0.042903
C40   C     C_R   0.228283 0.454107 0.852643 0.537046
C41   C     C_R   0.515438 0.169359 0.568752 0.036235
C42   C     C_R   0.004205 0.659906 0.422899 0.042859
C43   C     C_R   0.015456 0.669351 0.568742 0.036209
C44   C     C_R   0.492290 0.052078 0.462853 0.237280
C45   C     C_R   0.499015 0.056962 0.537035 0.222833
C46   C     C_R   0.992367 0.552060 0.462829 0.237330
C47   C     C_R   0.999081 0.556939 0.537014 0.222818
C48   C     C_R   0.789161 0.302025 0.525251 0.258735
C49   C     C_R   0.191789 0.351859 0.465950 0.282005
C50   C     C_R   0.289169 0.802033 0.525251 0.258692
C51   C     C_R   0.771719 0.454112 0.147356 0.544204
C52   C     C_R   0.691730 0.852123 0.465895 0.281967
C53   C     C_R   0.787238 0.312640 0.451116 0.223946
C54   C     C_R   0.194615 0.339864 0.539566 0.225041
C55   C     C_R   0.287245 0.812641 0.451115 0.223919
C56   C     C_R   0.694534 0.840075 0.539508 0.225023
C57   C     C_R   0.529287 0.177028 0.850677 0.543737
C58   C     C_R   0.470725 0.177032 0.149334 0.541197
C59   C     C_R   0.029287 0.677028 0.850677 0.543737
C60   C     C_R   0.970725 0.677032 0.149334 0.541196
C61   C     C_R   0.748912 0.407834 0.420095 0.026850
C62   C     C_R   0.697584 0.474213 0.038852 -0.135045
C63   C     C_R   0.246940 0.403589 0.578328 -0.019711
C64   C     C_R   0.248911 0.907823 0.420092 0.026842
C65   C     C_R   0.746901 0.903657 0.578298 -0.019682
C66   C     C_R   0.702949 0.478509 0.461029 -0.196219
C67   C     C_R   0.305902 0.447520 0.542832 -0.162223
C68   C     C_R   0.202936 0.978478 0.461023 -0.196191
C69   C     C_R   0.805895 0.947508 0.542820 -0.162222
C70   C     C_R   0.699358 0.460712 0.533749 -0.211673
C71   C     C_R   0.309302 0.439830 0.469081 -0.163314
C72   C     C_R   0.199342 0.960678 0.533743 -0.211629
C73   C     C_R   0.302338 0.474341 0.961147 -0.134473
C74   C     C_R   0.809306 0.939829 0.469069 -0.163293
C75   C     C_R   0.744009 0.376460 0.566704 0.029707
C76   C     C_R   0.251904 0.394310 0.429859 0.035876
C77   C     C_R   0.244006 0.876451 0.566701 0.029704
C78   C     C_R   0.751889 0.894425 0.429829 0.035940
C79   C     C_R   0.736039 0.355554 0.855872 0.542556
C80   C     C_R   0.263963 0.355547 0.144129 0.545860
C81   C     C_R   0.236039 0.855554 0.855872 0.542558
C82   C     C_R   0.763963 0.855548 0.144129 0.545861
C83   C     C_R   0.728542 0.951562 0.648578 0.544190
C84   C     C_R   0.197583 0.974213 0.038852 -0.135045
C85   C     C_R   0.271067 0.952941 0.351191 0.575931
C86   C     C_R   0.228550 0.451548 0.648587 0.544172
C87   C     C_R   0.771067 0.452943 0.351191 0.575929
C88   C     C_R   0.532420 0.176619 0.643071 0.582454
C89   C     C_R   0.471688 0.174758 0.354137 0.566038
C90   C     C_R   0.032426 0.676618 0.643066 0.582426
C91   C     C_R   0.971695 0.674759 0.354132 0.566026
C92   C     C_R   0.736918 0.351623 0.642598 0.578269
C93   C     C_R   0.261131 0.359804 0.355147 0.582386
C94   C     C_R   0.236915 0.851615 0.642595 0.578287
C95   C     C_R   0.802338 0.974341 0.961147 -0.134474
C96   C     C_R   0.761125 0.859838 0.355134 0.582396
C97   C     C_2   0.497842 0.166162 0.921885 -0.130164
C98   C     C_2   0.502217 0.166179 0.078151 -0.129025
C99   C     C_2   0.997842 0.666162 0.921885 -0.130164
C100  C     C_2   0.002217 0.666179 0.078151 -0.129025
C101  C     C_2   0.501448 0.059515 0.040487 -0.038726
C102  C     C_2   0.498694 0.059509 0.959613 -0.038940
C103  C     C_2   0.001448 0.559515 0.040488 -0.038725
C104  C     C_2   0.998694 0.559509 0.959613 -0.038940
C105  C     C_R   0.693894 0.460058 0.965378 -0.140920
C106  C     C_R   0.747866 0.408693 0.078552 0.029899
C107  C     C_R   0.306017 0.460188 0.034622 -0.140393
C108  C     C_R   0.193894 0.960057 0.965378 -0.140920
C109  C     C_R   0.806017 0.960188 0.034622 -0.140393
C110  C     C_R   0.507086 0.941254 0.080724 0.056576
C111  C     C_R   0.460249 0.844699 0.068201 -0.071167
C112  C     C_R   0.464896 0.736693 0.107622 -0.112737
C113  C     C_R   0.513868 0.726313 0.162651 -0.108308
C114  C     C_R   0.559636 0.822591 0.177002 -0.085463
C115  C     C_R   0.558114 0.927704 0.134847 -0.074065
C116  C     C_R   0.493099 0.941244 0.919456 0.057070
Cr1   Cr    Cr6+3 0.769270 0.163730 0.750710 1.026236
Cr2   Cr    Cr6+3 0.385840 0.322500 0.252290 1.022721
Cr3   Cr    Cr6+3 0.114160 0.822500 0.747710 1.010171
Cr4   Cr    Cr6+3 0.885840 0.822500 0.252290 1.022713
Cr5   Cr    Cr6+3 0.230730 0.163730 0.249290 1.015846
Cr6   Cr    Cr6+3 0.269270 0.663730 0.750710 1.026228
Cr7   Cr    Cr6+3 0.730730 0.663730 0.249290 1.015819
Cr8   Cr    Cr6+3 0.612620 0.009790 0.748780 1.077079
Cr9   Cr    Cr6+3 0.387380 0.009790 0.251220 1.082087
Cr10  Cr    Cr6+3 0.112620 0.509790 0.748780 1.077076
Cr11  Cr    Cr6+3 0.887380 0.509790 0.251220 1.082065
Cr12  Cr    Cr6+3 0.614160 0.322500 0.747710 1.010156
H1    H     H_    0.672366 0.551672 0.437503 0.185607
H2    H     H_    0.486783 0.252775 0.946798 0.094039
H3    H     H_    0.013242 0.752790 0.053199 0.094416
H4    H     H_    0.986783 0.752775 0.946798 0.094039
H5    H     H_    0.656109 0.512451 0.934958 0.110305
H6    H     H_    0.343684 0.512746 0.065042 0.111162
H7    H     H_    0.156109 0.012450 0.934958 0.110305
H8    H     H_    0.843684 0.012746 0.065042 0.111163
H9    H     H_    0.663634 0.539963 0.064080 0.121500
H10   H     H_    0.336180 0.540237 0.935917 0.121495
H11   H     H_    0.163633 0.039963 0.064080 0.121500
H12   H     H_    0.348775 0.488618 0.572214 0.171243
H13   H     H_    0.836180 0.040237 0.935917 0.121495
H14   H     H_    0.820701 0.258631 0.076822 0.120536
H15   H     H_    0.179579 0.258379 0.923183 0.118505
H16   H     H_    0.320701 0.758632 0.076822 0.120536
H17   H     H_    0.679578 0.758380 0.923184 0.118505
H18   H     H_    0.819890 0.240868 0.949256 0.132219
H19   H     H_    0.180432 0.240466 0.050757 0.132270
H20   H     H_    0.319890 0.740869 0.949256 0.132219
H21   H     H_    0.680432 0.740467 0.050757 0.132271
H22   H     H_    0.549540 0.357233 0.550360 0.162865
H23   H     H_    0.172344 0.051626 0.437494 0.185702
H24   H     H_    0.540501 0.347216 0.424776 0.152885
H25   H     H_    0.049493 0.857262 0.550364 0.162850
H26   H     H_    0.040471 0.847258 0.424780 0.152888
H27   H     H_    0.421059 0.852684 0.026991 0.115511
H28   H     H_    0.429951 0.661474 0.096247 0.094106
H29   H     H_    0.516109 0.643960 0.194384 0.112616
H30   H     H_    0.596065 0.815841 0.221116 0.164750
H31   H     H_    0.594962 0.000567 0.146117 0.108686
H32   H     H_    0.579187 0.852685 0.973217 0.116242
H33   H     H_    0.570283 0.661384 0.904166 0.092927
H34   H     H_    0.848787 0.988519 0.572217 0.171162
H35   H     H_    0.484049 0.643771 0.806128 0.111371
H36   H     H_    0.404031 0.815674 0.779283 0.160340
H37   H     H_    0.405143 0.000521 0.854090 0.106070
H38   H     H_    0.921058 0.352684 0.026991 0.115512
H39   H     H_    0.929951 0.161474 0.096247 0.094106
H40   H     H_    0.016109 0.143960 0.194383 0.112617
H41   H     H_    0.096065 0.315840 0.221116 0.164736
H42   H     H_    0.094962 0.500567 0.146117 0.108682
H43   H     H_    0.079188 0.352686 0.973217 0.116242
H44   H     H_    0.070283 0.161384 0.904167 0.092927
H45   H     H_    0.663190 0.515105 0.564526 0.162403
H46   H     H_    0.984050 0.143770 0.806129 0.111378
H47   H     H_    0.904031 0.315673 0.779284 0.160331
H48   H     H_    0.905143 0.500520 0.854090 0.106068
H49   H     H_    0.871699 0.236071 0.417648 0.319545
H50   H     H_    0.167362 0.229389 0.614338 0.329651
H51   H     H_    0.371710 0.736063 0.417656 0.319573
H52   H     H_    0.667212 0.729522 0.614210 0.329645
H53   H     H_    0.438522 0.901554 0.461011 0.314749
H54   H     H_    0.504301 0.881750 0.552736 0.346938
H55   H     H_    0.938698 0.401422 0.460968 0.314755
H56   H     H_    0.356791 0.469215 0.442847 0.162460
H57   H     H_    0.004461 0.381738 0.552709 0.346897
H58   H     H_    0.869069 0.188644 0.525649 0.312962
H59   H     H_    0.093274 0.299816 0.460774 0.368658
H60   H     H_    0.369097 0.688697 0.525656 0.312929
H61   H     H_    0.593177 0.800300 0.460681 0.368776
H62   H     H_    0.163160 0.015047 0.564516 0.162588
H63   H     H_    0.856825 0.969114 0.442852 0.162413
H64   H     H_    0.513241 0.252790 0.053199 0.094417
O1    O     O_R   0.784320 0.290430 0.830510 -0.548403
O2    O     O_R   0.456080 0.282180 0.333210 -0.540201
O3    O     O_R   0.043920 0.782180 0.666790 -0.545982
O4    O     O_R   0.956080 0.782180 0.333210 -0.540205
O5    O     O_R   0.679040 0.374160 0.674430 -0.523606
O6    O     O_R   0.320960 0.374160 0.325570 -0.505902
O7    O     O_R   0.179040 0.874160 0.674430 -0.523608
O8    O     O_R   0.820960 0.874160 0.325570 -0.505910
O9    O     O_3   0.665350 0.165340 0.749070 -0.265775
O10   O     O_3   0.334650 0.165340 0.250930 -0.268024
O11   O     O_3   0.165350 0.665340 0.749070 -0.265777
O12   O     O_R   0.215680 0.290430 0.169490 -0.547345
O13   O     O_3   0.834650 0.665340 0.250930 -0.268010
O14   O     O_R   0.762640 0.040960 0.825200 -0.517258
O15   O     O_R   0.237360 0.040960 0.174800 -0.515629
O16   O     O_R   0.262640 0.540960 0.825200 -0.517260
O17   O     O_R   0.737360 0.540960 0.174800 -0.515625
O18   O     O_R   0.667400 0.923970 0.829950 -0.514824
O19   O     O_R   0.332600 0.923970 0.170050 -0.509010
O20   O     O_R   0.167400 0.423970 0.829950 -0.514825
O21   O     O_R   0.832600 0.423970 0.170050 -0.509006
O22   O     O_R   0.553960 0.081340 0.821780 -0.480203
O23   O     O_R   0.284320 0.790430 0.830510 -0.548402
O24   O     O_R   0.446040 0.081340 0.178220 -0.482968
O25   O     O_R   0.053960 0.581340 0.821780 -0.480203
O26   O     O_R   0.946040 0.581340 0.178220 -0.482965
O27   O     O_R   0.543180 0.283240 0.826740 -0.519787
O28   O     O_R   0.456820 0.283240 0.173260 -0.520993
O29   O     O_R   0.043180 0.783240 0.826740 -0.519784
O30   O     O_R   0.956820 0.783240 0.173260 -0.520994
O31   O     O_R   0.678360 0.375140 0.822710 -0.501681
O32   O     O_R   0.321640 0.375140 0.177290 -0.498329
O33   O     O_R   0.178360 0.875140 0.822710 -0.501678
O34   O     O_R   0.715680 0.790430 0.169490 -0.547342
O35   O     O_R   0.821640 0.875140 0.177290 -0.498332
O36   O     O_R   0.785050 0.289380 0.670560 -0.446362
O37   O     O_R   0.214950 0.289380 0.329440 -0.459343
O38   O     O_R   0.285050 0.789380 0.670560 -0.446347
O39   O     O_R   0.714950 0.789380 0.329440 -0.459400
O40   O     O_R   0.763320 0.039990 0.676930 -0.482440
O41   O     O_R   0.236680 0.039990 0.323070 -0.521146
O42   O     O_R   0.263320 0.539990 0.676930 -0.482469
O43   O     O_R   0.736680 0.539990 0.323070 -0.521171
O44   O     O_R   0.668130 0.922920 0.670000 -0.480280
O45   O     O_R   0.554640 0.080370 0.673500 -0.432885
O46   O     O_R   0.331870 0.922920 0.330000 -0.454666
O47   O     O_R   0.168130 0.422920 0.670000 -0.480246
O48   O     O_R   0.831870 0.422920 0.330000 -0.454723
O49   O     O_3   0.820705 0.229497 0.407977 -0.690973
O50   O     O_3   0.144942 0.267522 0.572096 -0.715116
O51   O     O_3   0.320716 0.729501 0.407978 -0.690973
O52   O     O_3   0.644808 0.767801 0.572005 -0.715003
O53   O     O_3   0.470476 0.946528 0.429134 -0.677501
O54   O     O_3   0.489160 0.955145 0.579238 -0.674376
O55   O     O_3   0.970612 0.446487 0.429093 -0.677427
O56   O     O_R   0.445360 0.080370 0.326500 -0.436943
O57   O     O_3   0.989262 0.455101 0.579207 -0.674383
O58   O     O_3   0.832376 0.217587 0.558281 -0.673584
O59   O     O_3   0.132680 0.315816 0.428091 -0.661773
O60   O     O_3   0.332396 0.717619 0.558284 -0.673624
O61   O     O_3   0.632602 0.816244 0.428011 -0.661747
O62   O     O_R   0.054640 0.580370 0.673500 -0.432893
O63   O     O_R   0.945360 0.580370 0.326500 -0.436969
O64   O     O_R   0.543920 0.282180 0.666790 -0.545993

loop_
_geom_bond_atom_site_label_1
_geom_bond_atom_site_label_2
_ccdc_geom_bond_type
Cr6   O11   S    
H49   O49   S    
C92   O5    A    
C40   O16   A    
Cr1   O36   S    
C1    C21   S    
C101  C102  S    
Cr8   O45   S    
C59   C99   S    
C64   C85   S    
C111  C112  A    
C58   C98   S    
C14   H42   S    
C114  C115  A    
Cr9   O19   S    
C17   H44   S    
C88   O64   A    
C62   C105  A    
Cr8   O22   S    
Cr12  O64   S    
C82   O34   A    
C13   C84   A    
C94   O38   A    
C86   O42   A    
C55   O51   S    
C99   H4    S    
C85   O41   A    
Cr4   O13   S    
C64   C68   A    
C13   C29   S    
C9    H38   S    
C53   O49   S    
C97   H2    S    
C38   C42   A    
C107  H6    S    
C60   O26   A    
C3    C116  A    
H54   O54   S    
C5    C6    A    
Cr9   O24   S    
C52   C78   A    
C73   C107  A    
C32   C80   S    
C54   C63   A    
C88   O45   A    
C85   O46   A    
C49   C54   A    
Cr2   O10   S    
C77   C94   S    
Cr3   O29   S    
C87   O43   A    
Cr6   O23   S    
Cr7   O13   S    
H60   O60   S    
C42   C91   S    
C42   C46   A    
C96   O39   A    
C26   H18   S    
Cr12  O5    S    
C114  H30   S    
C59   O29   A    
C72   C77   A    
Cr4   O8    S    
C110  C111  A    
C52   C56   A    
C53   C61   A    
C61   C66   A    
C90   O3    A    
C19   C20   A    
C84   H11   S    
C78   C96   S    
C16   C17   A    
C32   C107  A    
C38   H26   S    
Cr4   O30   S    
C35   H22   S    
C23   C27   A    
C15   C104  S    
C61   C87   S    
C9    C10   A    
C67   C71   A    
C97   C102  D    
Cr10  O25   S    
C73   H10   S    
C66   H1    S    
C51   O21   A    
C99   C104  D    
C90   O62   A    
Cr11  O48   S    
C62   H9    S    
C109  H8    S    
H59   O59   S    
C31   C105  A    
C48   C75   A    
C23   H15   S    
C15   C20   A    
C33   C108  A    
C58   O28   A    
Cr1   O9    S    
Cr10  O47   S    
Cr12  O31   S    
C72   H62   S    
C112  C113  A    
C8    C103  S    
C29   O19   A    
C6    C7    A    
C2    C23   A    
H52   O52   S    
C48   C53   A    
Cr6   O38   S    
C63   C67   A    
Cr9   O10   S    
C100  H3    S    
C43   C90   S    
Cr5   O37   S    
C15   C16   A    
C30   C34   A    
Cr2   O32   S    
C37   H25   S    
Cr3   O11   S    
C69   H34   S    
C108  H7    S    
C98   H64   S    
Cr1   O14   S    
C59   O25   A    
Cr7   O34   S    
C8    C9    A    
C30   H21   S    
C36   H24   S    
C21   C95   A    
Cr5   O10   S    
C86   O47   A    
C101  C110  S    
C22   C106  A    
H57   O57   S    
C54   O50   S    
C100  C103  D    
C13   C24   A    
C115  H31   S    
C35   C36   A    
C49   O59   S    
C7    C116  A    
C10   H39   S    
C52   O61   S    
C37   C38   A    
C1    O14   A    
Cr6   O16   S    
C76   C93   S    
C80   O32   A    
C51   O17   A    
H53   O53   S    
Cr12  O27   S    
C68   C72   A    
C57   C97   S    
C55   C64   A    
C22   H14   S    
C17   C18   A    
C81   O23   A    
C49   C76   A    
C69   C74   A    
Cr10  O62   S    
Cr4   O4    S    
H58   O58   S    
C83   O44   A    
C79   O31   A    
C67   H12   S    
Cr4   O35   S    
C39   C44   A    
C2    C73   A    
C81   O33   A    
C44   O53   S    
Cr7   O43   S    
C94   O7    A    
C18   H46   S    
C27   H19   S    
Cr6   O42   S    
C48   O58   S    
C12   C14   A    
C28   C33   A    
C95   H13   S    
C43   C47   A    
Cr5   O41   S    
C63   C86   S    
C95   C109  A    
C11   H40   S    
Cr3   O7    S    
C37   C43   A    
C111  H27   S    
Cr5   O15   S    
C3    C4    A    
Cr2   O6    S    
C50   C77   A    
C5    H35   S    
C71   C76   A    
C103  C104  S    
C50   O60   S    
C44   C45   A    
Cr3   O33   S    
C24   C28   A    
C105  H5    S    
C113  C114  A    
C93   O37   A    
C25   C30   A    
C96   O8    A    
C41   C88   S    
C21   C25   A    
C46   C47   A    
C8    C14   A    
C87   O48   A    
C27   C32   A    
C4    H33   S    
C28   H20   S    
C71   H56   S    
C1    O18   A    
C36   C39   A    
Cr11  O21   S    
C56   O52   S    
Cr5   O12   S    
C6    H36   S    
C4    C5    A    
C60   C100  S    
C60   O30   A    
C45   O54   S    
C46   O55   S    
Cr2   O2    S    
C25   H17   S    
C11   C12   A    
C31   C79   S    
C12   H41   S    
Cr11  O63   S    
Cr10  O11   S    
C98   C101  D    
C57   O27   A    
C82   O35   A    
C40   O20   A    
Cr1   O40   S    
C50   C55   A    
C29   O15   A    
C89   O56   A    
Cr8   O9    S    
Cr8   O18   S    
C93   O6    A    
Cr11  O13   S    
C68   H23   S    
Cr10  O20   S    
Cr1   O1    S    
Cr2   O28   S    
C91   O4    A    
C16   H43   S    
C3    H32   S    
C66   C70   A    
C91   O63   A    
C24   H16   S    
C51   C106  S    
C65   C69   A    
C89   O2    A    
Cr7   O17   S    
C74   C78   A    
C20   H48   S    
C84   C108  A    
H55   O55   S    
Cr3   O3    S    
Cr12  O9    S    
C102  C116  S    
C7    H37   S    
C35   C41   A    
C70   H45   S    
C19   H47   S    
C47   O57   S    
C65   C83   S    
C10   C11   A    
C22   C26   A    
C74   H63   S    
Cr8   O44   S    
C2    C40   S    
C34   C109  A    
C26   C31   A    
Cr7   O39   S    
C57   O22   A    
C92   O36   A    
C79   O1    A    
C62   C106  A    
C112  H28   S    
C75   C92   S    
C70   C75   A    
C18   C19   A    
C41   C45   A    
C83   O40   A    
Cr9   O56   S    
H61   O61   S    
C34   C82   S    
C113  H29   S    
C80   O12   A    
C33   C81   S    
C110  C115  A    
C39   C89   S    
H51   O51   S    
Cr9   O46   S    
C56   C65   A    
Cr11  O26   S    
H50   O50   S    
C58   O24   A    
