data_mof_unit_32381.cif
_audit_creation_date              2013-03-05T16:41:04-0500
_audit_creation_method            fapswitch 2.2
_symmetry_space_group_name_H-M    P1
_symmetry_Int_Tables_number       1
_space_group_crystal_system       triclinic
_cell_length_a                    18.73458
_cell_length_b                    18.628183
_cell_length_c                    18.736525
_cell_angle_alpha                 109.260452
_cell_angle_beta                  109.443537
_cell_angle_gamma                 109.202712
_cell_volume                      5064.86392666

loop_
_atom_site_label
_atom_site_type_symbol
_atom_site_description
_atom_site_fract_x
_atom_site_fract_y
_atom_site_fract_z
_atom_type_partial_charge
O1    O     O_R   0.408360 0.551710 0.460090 -0.617184
O2    O     O_R   0.408400 0.448280 0.356670 -0.585312
C1    C     C_R   0.379666 0.500160 0.380205 0.919631
O3    O     O_R   0.591600 0.643340 0.551710 -0.616583
O4    O     O_R   0.591630 0.539900 0.448290 -0.624189
C2    C     C_R   0.621335 0.620195 0.501178 0.845584
Zn1   Zn    Zn3+2 0.499980 0.569060 0.569060 0.997785
Zn2   Zn    Zn3+2 0.500020 0.430940 0.430940 1.047701
O5    O     O_R   0.591600 0.551720 0.643330 -0.612943
O6    O     O_R   0.591640 0.448290 0.539910 -0.614273
O7    O     O_R   0.408370 0.460100 0.551710 -0.640364
O8    O     O_R   0.408400 0.356660 0.448290 -0.585678
C3    C     C_R   0.618072 0.497859 0.619903 0.855067
C4    C     C_R   0.377496 0.380144 0.497915 0.925848
H1    H     H_    0.756384 0.805839 0.877460 0.186571
C5    C     C_R   0.748180 0.855538 0.787063 0.367301
C6    C     C_R   0.751749 0.844339 0.710532 -0.213014
H2    H     H_    0.741700 0.885978 0.683942 0.170648
C7    C     C_R   0.765115 0.777318 0.666129 0.077971
C8    C     C_R   0.776803 0.722335 0.699402 -0.103629
H3    H     H_    0.785917 0.669621 0.665146 0.114144
C9    C     C_R   0.773577 0.733317 0.775414 -0.178171
H4    H     H_    0.779166 0.688810 0.799060 0.147086
C10   C     C_R   0.759773 0.799570 0.819312 -0.171782
C11   C     C_R   0.822596 0.821248 0.577636 -0.247793
H5    H     H_    0.877586 0.878337 0.637773 0.177043
C12   C     C_R   0.813966 0.810988 0.497399 -0.082968
C13   C     C_R   0.740656 0.739685 0.418258 0.046527
C14   C     C_R   0.680050 0.676075 0.421945 -0.207788
H6    H     H_    0.624612 0.619240 0.361931 0.171274
C15   C     C_R   0.688615 0.686359 0.502099 -0.096355
C16   C     C_R   0.758897 0.760465 0.580824 0.005840
C17   C     C_R   0.653192 0.721406 0.270751 0.284900
C18   C     C_R   0.641047 0.705172 0.187908 -0.140971
H7    H     H_    0.584364 0.700789 0.141484 0.175116
C19   C     C_R   0.701768 0.694552 0.164504 -0.129875
H8    H     H_    0.691823 0.681634 0.100250 0.149548
C20   C     C_R   0.775460 0.700953 0.224088 -0.106474
H9    H     H_    0.822313 0.692528 0.205730 0.142713
C21   C     C_R   0.788514 0.717899 0.307140 -0.190270
H10   H     H_    0.846195 0.723817 0.353055 0.119888
C22   C     C_R   0.727445 0.727292 0.331268 0.073157
H11   H     H_    0.561101 0.888520 0.604931 0.185923
C23   C     C_R   0.424053 0.800893 0.515431 -0.099451
H12   H     H_    0.404538 0.842324 0.550453 0.178721
C24   C     C_R   0.360998 0.720494 0.440475 -0.121953
H13   H     H_    0.292810 0.700244 0.418533 0.167161
C25   C     C_R   0.385864 0.665598 0.395409 0.123506
C26   C     C_R   0.474606 0.693409 0.425455 -0.045520
H14   H     H_    0.495063 0.652333 0.391475 0.125279
C27   C     C_R   0.537241 0.772953 0.501373 -0.107318
H15   H     H_    0.605060 0.791772 0.526340 0.135554
C28   C     C_R   0.512219 0.826927 0.546152 -0.110287
C29   C     C_R   0.255842 0.574341 0.250398 -0.200966
H16   H     H_    0.261416 0.634723 0.251742 0.186847
C30   C     C_R   0.183877 0.494336 0.182953 -0.110940
C31   C     C_R   0.171571 0.415306 0.183080 -0.089011
C32   C     C_R   0.238589 0.417702 0.247310 0.250457
C33   C     C_R   0.311670 0.499085 0.314625 -0.201267
C34   C     C_R   0.318127 0.578227 0.318961 -0.037532
C35   C     C_R   0.039157 0.295708 0.158347 -0.039784
H17   H     H_    0.063317 0.328160 0.227657 0.186166
C36   C     C_R   0.960304 0.217381 0.104162 -0.158910
H18   H     H_    0.923681 0.190232 0.131677 0.195914
C37   C     C_R   0.929327 0.173302 0.014767 -0.162902
H19   H     H_    0.868931 0.111803 0.973920 0.229877
C38   C     C_R   0.977356 0.207250 0.978891 0.368100
C39   C     C_R   0.055429 0.287509 0.033627 -0.181431
H20   H     H_    0.090736 0.315925 0.006353 0.133638
C40   C     C_R   0.087135 0.331917 0.123542 0.111216
H21   H     H_    0.210463 0.612335 0.561420 0.199814
C41   C     C_R   0.278711 0.554072 0.614568 -0.149489
H22   H     H_    0.321056 0.612253 0.677914 0.190280
C42   C     C_R   0.286278 0.479144 0.599794 -0.065377
H23   H     H_    0.334381 0.480000 0.652322 0.172615
C43   C     C_R   0.232899 0.403834 0.517480 0.054235
C44   C     C_R   0.168106 0.402893 0.451460 -0.200657
H24   H     H_    0.124895 0.343895 0.388758 0.194269
C45   C     C_R   0.159119 0.477904 0.466428 0.339505
C46   C     C_R   0.215981 0.553838 0.548195 -0.174977
C47   C     C_R   0.176476 0.256183 0.499843 -0.203841
H25   H     H_    0.121867 0.261755 0.503808 0.170168
C48   C     C_R   0.185510 0.183973 0.497013 -0.057227
C49   C     C_R   0.257410 0.176804 0.495197 0.047252
C50   C     C_R   0.317465 0.240945 0.491930 -0.244224
H26   H     H_    0.372989 0.235882 0.490089 0.164663
C51   C     C_R   0.309981 0.314391 0.497127 -0.061945
C52   C     C_R   0.240128 0.323897 0.503452 0.046919
C53   C     C_R   0.327116 0.121915 0.585644 -0.190820
H27   H     H_    0.350441 0.181916 0.643239 0.169877
C54   C     C_R   0.350122 0.059855 0.594227 0.318683
C55   C     C_R   0.321317 0.982848 0.520106 -0.178027
H28   H     H_    0.339464 0.934987 0.526674 0.191511
C56   C     C_R   0.270078 0.968117 0.437355 0.244511
C57   C     C_R   0.247825 0.030722 0.428601 -0.158095
H29   H     H_    0.210891 0.020466 0.364414 0.201958
C58   C     C_R   0.275474 0.107463 0.502869 0.015697
C59   C     C_R   0.537975 0.542449 0.853468 -0.154797
H30   H     H_    0.546821 0.593134 0.910406 0.164741
C60   C     C_R   0.608729 0.551300 0.839984 -0.207316
H31   H     H_    0.671898 0.608844 0.886992 0.143900
C61   C     C_R   0.598185 0.485707 0.766631 0.143247
C62   C     C_R   0.515974 0.411239 0.706967 -0.174641
H32   H     H_    0.507021 0.359429 0.650810 0.131128
C63   C     C_R   0.445533 0.402258 0.721140 -0.192894
H33   H     H_    0.382709 0.344063 0.675958 0.161029
C64   C     C_R   0.456460 0.467698 0.794339 0.330430
C65   C     C_R   0.740591 0.492487 0.818518 -0.241251
H34   H     H_    0.735084 0.488853 0.873236 0.165099
C66   C     C_R   0.813784 0.498088 0.811274 -0.090933
C67   C     C_R   0.822773 0.504521 0.741659 0.027904
C68   C     C_R   0.756267 0.502569 0.678544 -0.224477
H35   H     H_    0.762174 0.507222 0.624326 0.161225
C69   C     C_R   0.682921 0.496274 0.685546 -0.087548
C70   C     C_R   0.674749 0.492354 0.756374 0.008118
C71   C     C_R   0.957551 0.591504 0.743730 -0.245435
H36   H     H_    0.945435 0.646127 0.760326 0.163550
C72   C     C_R   0.031157 0.600100 0.734979 0.323264
C73   C     C_R   0.044503 0.527733 0.712252 -0.102295
H37   H     H_    0.099727 0.531936 0.703521 0.218219
C74   C     C_R   0.987218 0.449520 0.701601 -0.079811
H38   H     H_    0.998811 0.394700 0.685481 0.220459
C75   C     C_R   0.915370 0.442015 0.712203 -0.090849
H39   H     H_    0.871528 0.381126 0.703991 0.158977
C76   C     C_R   0.899870 0.512734 0.732587 0.062840
O9    O     O_R   0.051730 0.908360 0.460060 -0.632543
O10   O     O_R   0.948280 0.908380 0.356650 -0.569266
C77   C     C_R   0.000591 0.879764 0.380170 0.909644
O11   O     O_R   0.960110 0.908350 0.551690 -0.614564
O12   O     O_R   0.856660 0.908370 0.448270 -0.607501
C78   C     C_R   0.880008 0.878437 0.498652 0.845955
Zn3   Zn    Zn3+2 0.069070 0.999960 0.569030 1.038922
Zn4   Zn    Zn3+2 0.930930 0.999990 0.430930 1.087489
O13   O     O_R   0.051720 0.091580 0.643310 -0.612194
O14   O     O_R   0.948270 0.091600 0.539890 -0.602422
O15   O     O_R   0.143340 0.091590 0.551680 -0.624511
O16   O     O_R   0.039890 0.091610 0.448270 -0.582068
C79   C     C_R   0.999530 0.119964 0.619883 0.850195
C80   C     C_R   0.119967 0.118582 0.498321 0.911884
O17   O     O_R   0.051730 0.460050 0.908360 -0.611857
O18   O     O_R   0.948290 0.356630 0.908390 -0.608316
C81   C     C_R   0.003112 0.380224 0.882614 0.825192
O19   O     O_R   0.143340 0.551690 0.091580 -0.615844
O20   O     O_R   0.039900 0.448270 0.091610 -0.612564
C82   C     C_R   0.119513 0.497135 0.117823 0.885880
Zn5   Zn    Zn3+2 0.069070 0.569030 0.999960 1.054733
Zn6   Zn    Zn3+2 0.930930 0.430930 0.000000 1.024500
O21   O     O_R   0.051710 0.643320 0.091560 -0.592317
O22   O     O_R   0.948270 0.539900 0.091590 -0.625409
O23   O     O_R   0.960100 0.551680 0.908340 -0.607754
O24   O     O_R   0.856660 0.448270 0.908370 -0.614335
C83   C     C_R   0.997808 0.620118 0.117522 0.891587
C84   C     C_R   0.880045 0.498834 0.878398 0.848542
H40   H     H_    0.064891 0.696720 0.599285 0.210162
C85   C     C_R   0.122502 0.774153 0.548805 0.315868
C86   C     C_R   0.106730 0.786935 0.476357 -0.133980
H41   H     H_    0.158489 0.836529 0.477767 0.182985
C87   C     C_R   0.024221 0.735544 0.401433 0.078650
C88   C     C_R   0.958755 0.667443 0.397323 -0.167052
H42   H     H_    0.896485 0.623531 0.338121 0.148276
C89   C     C_R   0.973485 0.655017 0.469254 -0.134732
H43   H     H_    0.922266 0.603112 0.466021 0.166066
C90   C     C_R   0.054650 0.708318 0.544803 -0.136458
C91   C     C_R   0.002634 0.679470 0.254425 -0.184155
H44   H     H_    0.005896 0.624096 0.259572 0.189816
C92   C     C_R   0.996653 0.686728 0.181605 -0.111174
C93   C     C_R   0.996914 0.759718 0.174431 -0.103689
C94   C     C_R   0.997703 0.823542 0.240342 0.258953
C95   C     C_R   0.004544 0.816140 0.314795 -0.203772
C96   C     C_R   0.010258 0.745070 0.323149 -0.018836
C97   C     C_R   0.074642 0.844107 0.118763 -0.040523
H45   H     H_    0.127195 0.890435 0.184884 0.165807
C98   C     C_R   0.080612 0.855731 0.050572 -0.104862
H46   H     H_    0.137174 0.910734 0.064179 0.166665
C99   C     C_R   0.013921 0.796016 0.964831 -0.083122
H47   H     H_    0.018789 0.804527 0.911893 0.169064
C100  C     C_R   0.941020 0.725070 0.947381 -0.125980
H48   H     H_    0.890327 0.678506 0.881038 0.126507
C101  C     C_R   0.934232 0.713495 0.015338 -0.112513
H49   H     H_    0.877282 0.658199 0.000850 0.095742
C102  C     C_R   0.001508 0.772614 0.101573 0.169253
H50   H     H_    0.383467 0.553313 0.125042 0.187720
C103  C     C_R   0.292397 0.532672 0.003758 -0.148371
H51   H     H_    0.328022 0.600027 0.020197 0.185205
C104  C     C_R   0.216396 0.472090 0.922729 0.415151
C105  C     C_R   0.170084 0.384783 0.903587 -0.042648
C106  C     C_R   0.206905 0.358225 0.961381 -0.207745
H52   H     H_    0.175470 0.290553 0.945496 0.205055
C107  C     C_R   0.282880 0.418856 0.041192 -0.121231
H53   H     H_    0.309050 0.398045 0.086350 0.175246
C108  C     C_R   0.324730 0.506298 0.063009 -0.158488
C109  C     C_R   0.079734 0.253855 0.757884 -0.115196
H54   H     H_    0.139523 0.254852 0.762999 0.172785
C110  C     C_R   0.999367 0.186499 0.685664 -0.070323
C111  C     C_R   0.920882 0.183525 0.677735 0.091055
C112  C     C_R   0.924667 0.248979 0.743805 -0.148777
H55   H     H_    0.864755 0.247012 0.739480 0.154156
C113  C     C_R   0.004732 0.315739 0.816421 -0.078374
C114  C     C_R   0.083815 0.319608 0.824033 0.079311
C115  C     C_R   0.772418 0.120439 0.549297 0.335697
C116  C     C_R   0.688275 0.049164 0.488541 -0.176620
H56   H     H_    0.640129 0.056579 0.444646 0.191449
C117  C     C_R   0.666411 0.967207 0.482028 -0.124647
H57   H     H_    0.601732 0.912519 0.434446 0.202410
C118  C     C_R   0.728157 0.955573 0.536115 -0.119857
H58   H     H_    0.712036 0.891943 0.529779 0.151669
C119  C     C_R   0.810985 0.026097 0.598753 -0.131689
H59   H     H_    0.857130 0.016211 0.641958 0.155409
C120  C     C_R   0.834137 0.109012 0.606184 0.002221
N1    N     N_R   0.230474 0.337740 0.246210 0.210347
O25   O     O_R   0.213697 0.272951 0.176680 -0.362514
O26   O     O_R   0.232970 0.327114 0.312038 -0.425326
N2    N     N_R   0.730066 0.921316 0.830101 0.207931
O27   O     O_R   0.734808 0.937271 0.905085 -0.381951
O28   O     O_R   0.704929 0.963142 0.792969 -0.357215
N3    N     N_R   0.948233 0.159444 0.887812 0.200377
O29   O     O_R   0.866526 0.102622 0.832491 -0.366378
O30   O     O_R   0.004349 0.166766 0.860648 -0.436044
N4    N     N_R   0.091516 0.476561 0.399848 0.202514
O31   O     O_R   0.023427 0.402750 0.336145 -0.408121
O32   O     O_R   0.094601 0.549188 0.405507 -0.408977
Br1   Br    Br    0.423288 0.081961 0.707137 -0.381704
Br2   Br    Br    0.233219 0.863713 0.336660 -0.562326
Br3   Br    Br    0.360515 0.454050 0.814401 -0.503011
N5    N     N_R   0.092522 0.681919 0.750166 0.204680
O33   O     O_R   0.078803 0.748165 0.768078 -0.388889
O34   O     O_R   0.164148 0.691772 0.749049 -0.332435
N6    N     N_R   0.207174 0.826733 0.625317 0.208282
O35   O     O_R   0.219152 0.823554 0.696475 -0.283566
O36   O     O_R   0.273483 0.877224 0.624124 -0.387615
N7    N     N_R   0.991325 0.895321 0.231172 0.211322
O37   O     O_R   0.927972 0.880340 0.161746 -0.371292
O38   O     O_R   0.049915 0.975627 0.290742 -0.412844
N8    N     N_R   0.189800 0.498728 0.859448 0.205194
O39   O     O_R   0.162240 0.446964 0.778276 -0.410298
O40   O     O_R   0.207853 0.579526 0.884472 -0.384146
N9    N     N_R   0.795127 0.202322 0.550148 0.181930
O41   O     O_R   0.736650 0.226069 0.529766 -0.392970
O42   O     O_R   0.869776 0.246276 0.557426 -0.411553
Br4   Br    Br    0.568449 0.738427 0.298663 -0.623974

loop_
_geom_bond_atom_site_label_1
_geom_bond_atom_site_label_2
_geom_bond_distance
_ccdc_geom_bond_type
C35   C40   1.403478 A    
O19   Zn5   2.014575 S    
C20   C21   1.397382 A    
C117  H57   1.081898 S    
C36   C37   1.395905 A    
Zn4   O16   2.021447 S    
O14   C79   1.278008 A    
C61   C62   1.404058 A    
C116  C117  1.394983 A    
C95   C96   1.416866 A    
C29   H16   1.085817 S    
C91   C96   1.377093 A    
C57   H29   1.081236 S    
C97   H45   1.082872 S    
C26   H14   1.082446 S    
C26   C27   1.396550 A    
C48   C80   1.431076 S    
C47   H25   1.085527 S    
C31   C32   1.395865 A    
C75   H39   1.082910 S    
C99   C100  1.396118 A    
C29   C34   1.379227 A    
C44   H24   1.083120 S    
C71   H36   1.083404 S    
Zn1   O7    2.018109 S    
C97   C98   1.397681 A    
C91   C92   1.386469 A    
C42   C43   1.403449 A    
C48   C49   1.406877 A    
C49   C58   1.476947 S    
C65   C70   1.384639 A    
C55   H28   1.081454 S    
C13   C14   1.385358 A    
Zn6   O22   2.016908 S    
C66   C84   1.435504 S    
O17   C81   1.271533 A    
C4    C51   1.434166 S    
C111  C120  1.484246 S    
O2    C1    1.279582 A    
C103  C104  1.406887 A    
N1    O25   1.301203 A    
C20   H9    1.081398 S    
Zn2   O6    2.021357 S    
O7    C4    1.274217 A    
C75   C76   1.399730 A    
C5    C6    1.407054 A    
C112  H55   1.085432 S    
C41   C46   1.395625 A    
C12   C78   1.431303 S    
C65   H34   1.085327 S    
C51   C52   1.414172 A    
C107  C108  1.393676 A    
C18   H7    1.082652 S    
C64   Br3   1.910270 S    
C109  C114  1.384219 A    
C30   C82   1.431644 S    
C35   C36   1.395819 A    
O5    C3    1.275534 A    
C66   C67   1.407166 A    
N6    O35   1.301167 A    
C61   C70   1.480593 S    
C47   C48   1.396263 A    
C115  N9    1.435434 S    
C23   C28   1.396680 A    
H11   C28   1.082448 S    
C7    C8    1.401271 A    
C65   C66   1.395966 A    
C115  C116  1.405359 A    
C100  C101  1.398140 A    
O23   C84   1.279634 A    
N4    O31   1.300856 A    
C67   C76   1.474373 S    
C25   C26   1.402582 A    
C88   C89   1.395117 A    
C113  C114  1.415251 A    
C31   C40   1.491743 S    
C53   C54   1.397276 A    
C43   C52   1.484233 S    
C87   C96   1.482616 S    
C30   C31   1.414174 A    
C3    C69   1.429106 S    
C54   C55   1.398287 A    
Zn3   O15   2.014967 S    
C41   H22   1.082401 S    
O11   Zn3   2.021359 S    
C73   C74   1.396915 A    
C11   C16   1.383103 A    
C32   N1    1.439089 S    
C2    C15   1.434469 S    
C77   C95   1.439075 S    
C5    C10   1.405859 A    
O1    C1    1.275916 A    
Zn5   O23   2.021343 S    
N9    O41   1.301342 A    
C72   C73   1.405370 A    
C81   C113  1.431161 S    
C91   H44   1.086385 S    
C38   N3    1.435558 S    
C107  H53   1.082491 S    
N8    O40   1.301395 A    
O20   Zn6   2.021343 S    
C7    C16   1.479088 S    
C117  C118  1.393359 A    
N6    O36   1.300825 A    
H21   C46   1.082836 S    
C89   C90   1.395834 A    
C23   C24   1.398184 A    
C25   C34   1.484669 S    
Zn5   O21   2.016744 S    
C119  H59   1.083404 S    
C50   C51   1.395844 A    
C72   N5    1.438433 S    
N5    O34   1.301538 A    
C29   C30   1.391840 A    
C85   N6    1.438203 S    
C106  C107  1.396051 A    
C42   H23   1.082013 S    
C27   H15   1.076650 S    
C47   C52   1.385015 A    
C101  C102  1.403295 A    
C94   C95   1.414541 A    
H40   C90   1.080694 S    
C17   C18   1.400873 A    
N3    O29   1.300754 A    
C41   C42   1.395090 A    
O22   C83   1.280194 A    
O17   Zn5   2.017121 S    
C93   C94   1.395153 A    
C39   H20   1.073341 S    
C111  C112  1.383124 A    
C37   C38   1.403648 A    
C11   H5    1.085279 S    
C50   H26   1.085558 S    
C59   C64   1.398400 A    
C36   H18   1.082375 S    
C53   C58   1.402900 A    
C27   C28   1.396416 A    
O15   C80   1.276371 A    
C79   C110  1.432637 S    
Zn6   O24   2.014700 S    
C103  H51   1.082545 S    
C14   H6    1.085238 S    
C99   H47   1.082452 S    
N4    O32   1.301833 A    
C63   C64   1.398176 A    
C45   N4    1.437918 S    
C88   H42   1.082886 S    
O9    Zn3   2.020180 S    
Zn2   O8    2.018021 S    
C12   C13   1.412117 A    
C55   C56   1.398527 A    
C6    H2    1.083450 S    
C44   C45   1.409652 A    
C56   C57   1.400442 A    
N7    O38   1.300436 A    
C49   C50   1.380940 A    
C54   Br1   1.909812 S    
O16   C80   1.280302 A    
C74   H38   1.080413 S    
C98   C99   1.396338 A    
C100  H48   1.077178 S    
Zn3   O13   2.013592 S    
C68   C69   1.394034 A    
O3    C2    1.277686 A    
H1    C10   1.082429 S    
N7    O37   1.301310 A    
C8    C9    1.395387 A    
C37   H19   1.082026 S    
C59   C60   1.398124 A    
C71   C76   1.403219 A    
N9    O42   1.300356 A    
C87   C88   1.403092 A    
C62   C63   1.399092 A    
C9    C10   1.395871 A    
C105  C114  1.489752 S    
O12   Zn4   2.014716 S    
N8    O39   1.300641 A    
C17   C22   1.414348 A    
O10   C77   1.284497 A    
C53   H27   1.083412 S    
C85   C86   1.406796 A    
C23   H12   1.082186 S    
Zn4   O14   2.020142 S    
C60   C61   1.404811 A    
O10   Zn4   2.013464 S    
C68   H35   1.085525 S    
O19   C82   1.284979 A    
C118  H58   1.076125 S    
C24   H13   1.083646 S    
C19   H8    1.082614 S    
C56   Br2   1.909790 S    
O9    C77   1.275037 A    
C67   C68   1.383137 A    
N5    O33   1.301671 A    
O1    Zn1   2.021353 S    
C97   C102  1.406248 A    
C15   C16   1.408203 A    
O2    Zn2   2.014471 S    
O21   C83   1.273496 A    
N3    O30   1.300229 A    
C21   C22   1.402785 A    
O6    C3    1.279181 A    
C103  C108  1.395941 A    
O13   C79   1.278953 A    
O4    Zn2   2.018105 S    
C83   C92   1.426140 S    
C73   H37   1.082171 S    
C57   C58   1.403180 A    
C69   C70   1.407735 A    
C38   C39   1.406291 A    
C101  H49   1.082962 S    
C11   C12   1.396793 A    
C63   H33   1.081207 S    
C93   C102  1.486487 S    
N1    O26   1.300528 A    
C115  C120  1.417547 A    
C116  H56   1.082627 S    
O20   C82   1.272275 A    
C85   C90   1.405667 A    
C109  H54   1.085301 S    
C86   C87   1.404220 A    
O12   C78   1.275208 A    
C32   C33   1.409650 A    
N2    O28   1.301442 A    
C106  H52   1.082564 S    
C14   C15   1.395507 A    
C17   Br4   1.915486 S    
C89   H43   1.082425 S    
O18   C81   1.286317 A    
C19   C20   1.394409 A    
C110  C111  1.408092 A    
C43   C44   1.405702 A    
C104  C105  1.416427 A    
O4    C2    1.279203 A    
C92   C93   1.408331 A    
C5    N2    1.438986 S    
N2    O27   1.301590 A    
C13   C22   1.488865 S    
C60   H31   1.083539 S    
C6    C7    1.404509 A    
C71   C72   1.405939 A    
C104  N8    1.434502 S    
C18   C19   1.395863 A    
O24   C84   1.278978 A    
C35   H17   1.080503 S    
C74   C75   1.394057 A    
C112  C113  1.394855 A    
O18   Zn6   2.016957 S    
C98   H46   1.082267 S    
C45   C46   1.405466 A    
C24   C25   1.407598 A    
Zn1   O5    2.014472 S    
O8    C4    1.283667 A    
C33   C34   1.411322 A    
C86   H41   1.082605 S    
C8    H3    1.082962 S    
O3    Zn1   2.018018 S    
C39   C40   1.402311 A    
C59   H30   1.082534 S    
H50   C108  1.082507 S    
C62   H32   1.082950 S    
C119  C120  1.403714 A    
C9    H4    1.078496 S    
C21   H10   1.077106 S    
O11   C78   1.281342 A    
C105  C106  1.404933 A    
C118  C119  1.393037 A    
C109  C110  1.397534 A    
C94   N7    1.440375 S    
C1    C33   1.434527 S    
