data_mof_unit_60793.cif
_audit_creation_date              2013-03-05T16:27:41-0500
_audit_creation_method            fapswitch 2.2
_symmetry_space_group_name_H-M    P1
_symmetry_Int_Tables_number       1
_space_group_crystal_system       triclinic
_cell_length_a                    26.056198
_cell_length_b                    25.985981
_cell_length_c                    22.224651
_cell_angle_alpha                 89.99964
_cell_angle_beta                  54.138342
_cell_angle_gamma                 90.000022
_cell_volume                      12195.586408

loop_
_atom_site_label
_atom_site_type_symbol
_atom_site_description
_atom_site_fract_x
_atom_site_fract_y
_atom_site_fract_z
_atom_type_partial_charge
Zn1   Zn    Zn3+2 0.675940 0.706640 0.561420 0.984662
Zn2   Zn    Zn3+2 0.675940 0.293360 0.561420 0.984955
Zn3   Zn    Zn3+2 0.175940 0.206640 0.561420 0.992921
Zn4   Zn    Zn3+2 0.175940 0.793360 0.561420 0.993046
Zn5   Zn    Zn3+2 0.824100 0.706650 0.438580 1.000011
Zn6   Zn    Zn3+2 0.824100 0.293350 0.438580 0.999595
Zn7   Zn    Zn3+2 0.324100 0.206650 0.438580 0.993855
Zn8   Zn    Zn3+2 0.324100 0.793350 0.438580 0.993433
Zn9   Zn    Zn3+2 0.762700 0.793390 0.561410 0.999885
Zn10  Zn    Zn3+2 0.762700 0.206610 0.561410 0.999623
Zn11  Zn    Zn3+2 0.262700 0.293390 0.561410 0.999687
Zn12  Zn    Zn3+2 0.262700 0.706610 0.561410 0.999520
Zn13  Zn    Zn3+2 0.737340 0.793410 0.438590 0.988067
Zn14  Zn    Zn3+2 0.737340 0.206590 0.438590 0.988643
Zn15  Zn    Zn3+2 0.237340 0.293410 0.438590 0.986814
Zn16  Zn    Zn3+2 0.237340 0.706590 0.438590 0.987650
O1    O     O_3   0.750020 0.750020 0.500000 -0.495283
O2    O     O_3   0.750020 0.249980 0.500000 -0.495380
O3    O     O_3   0.250020 0.250020 0.500000 -0.495472
O4    O     O_3   0.250020 0.749980 0.500000 -0.495597
O5    O     O_R   0.801620 0.780400 0.336040 -0.631689
O6    O     O_R   0.801620 0.219600 0.336040 -0.630890
O7    O     O_R   0.301620 0.280400 0.336040 -0.635878
O8    O     O_R   0.301620 0.719600 0.336040 -0.634687
O9    O     O_R   0.637700 0.719640 0.663960 -0.630111
O10   O     O_R   0.637700 0.280360 0.663960 -0.629416
O11   O     O_R   0.137700 0.219640 0.663960 -0.632319
O12   O     O_R   0.137700 0.780360 0.663960 -0.631846
O13   O     O_R   0.801870 0.634220 0.457010 -0.628917
O14   O     O_R   0.801870 0.365780 0.457010 -0.628891
O15   O     O_R   0.301870 0.134220 0.457010 -0.628234
O16   O     O_R   0.301870 0.865780 0.457010 -0.628174
O17   O     O_R   0.758890 0.865820 0.542980 -0.615030
O18   O     O_R   0.758890 0.134180 0.542980 -0.614985
O19   O     O_R   0.258890 0.365820 0.542980 -0.614829
O20   O     O_R   0.258890 0.634180 0.542980 -0.614841
O21   O     O_R   0.887320 0.719660 0.457000 -0.644957
O22   O     O_R   0.887320 0.280340 0.457000 -0.644921
O23   O     O_R   0.387320 0.219660 0.457000 -0.644189
O24   O     O_R   0.387320 0.780340 0.457000 -0.644113
O25   O     O_R   0.655700 0.780400 0.457020 -0.640926
O26   O     O_R   0.655700 0.219600 0.457020 -0.640813
O27   O     O_R   0.155700 0.280400 0.457020 -0.638160
O28   O     O_R   0.155700 0.719600 0.457020 -0.637975
O29   O     O_R   0.844340 0.780370 0.542980 -0.633122
O30   O     O_R   0.844340 0.219630 0.542980 -0.633205
O31   O     O_R   0.344340 0.280370 0.542980 -0.645215
O32   O     O_R   0.344340 0.719630 0.542980 -0.645262
O33   O     O_R   0.612730 0.719670 0.543000 -0.646586
O34   O     O_R   0.612730 0.280330 0.543000 -0.646489
O35   O     O_R   0.112730 0.219670 0.543000 -0.644724
O36   O     O_R   0.112730 0.780330 0.543000 -0.644688
O37   O     O_R   0.698170 0.634220 0.542990 -0.646872
O38   O     O_R   0.698170 0.365780 0.542990 -0.646804
O39   O     O_R   0.198170 0.134220 0.542990 -0.646498
O40   O     O_R   0.198170 0.865780 0.542990 -0.646472
O41   O     O_R   0.741140 0.865830 0.457020 -0.642544
O42   O     O_R   0.741140 0.134170 0.457020 -0.642458
O43   O     O_R   0.241140 0.365830 0.457020 -0.644069
O44   O     O_R   0.241140 0.634170 0.457020 -0.643939
O45   O     O_R   0.862350 0.719680 0.336040 -0.621501
O46   O     O_R   0.862350 0.280320 0.336040 -0.621831
O47   O     O_R   0.362350 0.219680 0.336040 -0.621608
O48   O     O_R   0.362350 0.780320 0.336040 -0.622069
O49   O     O_R   0.698420 0.780360 0.663960 -0.637331
O50   O     O_R   0.698420 0.219640 0.663960 -0.637589
O51   O     O_R   0.198420 0.280360 0.663960 -0.623227
O52   O     O_R   0.198420 0.719640 0.663960 -0.623402
C1    C     C_R   0.849459 0.750022 0.301059 0.836412
C2    C     C_R   0.849458 0.249978 0.301059 0.836128
C3    C     C_R   0.349465 0.250034 0.301062 0.830973
C4    C     C_R   0.349465 0.749966 0.301062 0.830512
C5    C     C_R   0.650559 0.750011 0.698951 0.817782
C6    C     C_R   0.650560 0.249990 0.698951 0.817345
C7    C     C_R   0.150536 0.250045 0.698947 0.829868
C8    C     C_R   0.150537 0.749955 0.698947 0.829577
C9    C     C_R   0.749938 0.610035 0.499765 0.826151
C10   C     C_R   0.749938 0.389965 0.499766 0.825893
C11   C     C_R   0.249938 0.110035 0.499761 0.826879
C12   C     C_R   0.249938 0.889965 0.499761 0.826654
C13   C     C_R   0.751654 0.890157 0.498652 0.846304
C14   C     C_R   0.751654 0.109843 0.498652 0.846330
C15   C     C_R   0.248439 0.390154 0.501376 0.845004
C16   C     C_R   0.248439 0.609846 0.501377 0.844951
C17   C     C_R   0.890042 0.750118 0.499973 0.818627
C18   C     C_R   0.890042 0.249881 0.499973 0.818474
C19   C     C_R   0.390005 0.250054 0.500055 0.803129
C20   C     C_R   0.390005 0.749946 0.500055 0.803075
C21   C     C_R   0.609975 0.750003 0.500077 0.813692
C22   C     C_R   0.609975 0.249997 0.500077 0.813582
C23   C     C_R   0.110000 0.249959 0.500020 0.822265
C24   C     C_R   0.110000 0.750040 0.500021 0.822096
C25   C     C_R   0.547623 0.782651 0.456540 0.129006
C26   C     C_R   0.547629 0.217357 0.456529 0.128713
C27   C     C_R   0.047828 0.282326 0.456095 0.130674
C28   C     C_R   0.047839 0.717687 0.456075 0.130203
C29   C     C_R   0.554199 0.749447 0.500528 -0.080028
C30   C     C_R   0.554197 0.250551 0.500531 -0.079981
C31   C     C_R   0.054322 0.249245 0.500263 -0.082394
C32   C     C_R   0.054320 0.750752 0.500267 -0.082281
C33   C     C_R   0.503954 0.714811 0.546157 -0.210521
C34   C     C_R   0.503944 0.285176 0.546178 -0.210422
C35   C     C_R   0.004100 0.214570 0.545845 -0.203389
C36   C     C_R   0.004083 0.785408 0.545878 -0.203270
H1    H     H_    0.506120 0.687831 0.581751 0.183695
H2    H     H_    0.506103 0.312146 0.581784 0.183813
H3    H     H_    0.006249 0.187620 0.581480 0.185844
H4    H     H_    0.006221 0.812344 0.581535 0.185922
C37   C     C_R   0.449977 0.714791 0.546151 -0.210135
C38   C     C_R   0.449967 0.285195 0.546172 -0.210050
C39   C     C_R   0.950137 0.214520 0.545802 -0.188937
C40   C     C_R   0.950120 0.785458 0.545835 -0.188747
H5    H     H_    0.412253 0.687801 0.581741 0.185741
H6    H     H_    0.412236 0.312177 0.581775 0.185761
H7    H     H_    0.912413 0.187523 0.581379 0.193678
H8    H     H_    0.912386 0.812441 0.581434 0.193687
C41   C     C_R   0.445323 0.749404 0.500512 -0.080274
C42   C     C_R   0.445322 0.250593 0.500515 -0.080183
C43   C     C_R   0.945460 0.249173 0.500217 -0.082773
C44   C     C_R   0.945457 0.750824 0.500222 -0.082622
C45   C     C_R   0.495838 0.782626 0.456528 0.126121
C46   C     C_R   0.495843 0.217381 0.456517 0.125967
C47   C     C_R   0.996045 0.282293 0.456083 0.125165
C48   C     C_R   0.996055 0.717720 0.456064 0.124916
C49   C     C_3   0.519674 0.825208 0.401438 -0.456895
C50   C     C_3   0.519694 0.174818 0.401398 -0.456777
C51   C     C_3   0.019850 0.324878 0.401010 -0.455878
C52   C     C_3   0.019883 0.675163 0.400946 -0.455607
C53   C     C_3   0.578801 0.825239 0.401457 -0.458145
C54   C     C_3   0.578821 0.174787 0.401417 -0.457306
C55   C     C_3   0.078984 0.324917 0.401011 -0.453809
C56   C     C_3   0.079017 0.675125 0.400946 -0.452529
H9    H     H_    0.529309 0.812318 0.348017 0.220750
H10   H     H_    0.529325 0.187725 0.347986 0.220939
H11   H     H_    0.029471 0.311991 0.347596 0.222244
H12   H     H_    0.029497 0.688077 0.347545 0.222571
H13   H     H_    0.490466 0.860616 0.425715 0.204856
H14   H     H_    0.490498 0.139402 0.425652 0.204831
H15   H     H_    0.990633 0.360280 0.425307 0.205639
H16   H     H_    0.990685 0.639748 0.425206 0.205612
H17   H     H_    0.622575 0.812370 0.348044 0.226310
H18   H     H_    0.622590 0.187674 0.348012 0.227057
H19   H     H_    0.122758 0.312053 0.347593 0.225824
H20   H     H_    0.122784 0.688017 0.347541 0.226978
H21   H     H_    0.583687 0.860664 0.425759 0.202075
H22   H     H_    0.583719 0.139354 0.425695 0.202001
H23   H     H_    0.083860 0.360345 0.425307 0.208533
H24   H     H_    0.083912 0.639685 0.425204 0.208423
C57   C     C_3   0.466052 0.741745 0.956326 -0.427959
C58   C     C_3   0.465537 0.253328 0.956323 -0.428403
C59   C     C_3   0.965725 0.243732 0.956310 -0.426011
C60   C     C_3   0.965437 0.753000 0.956310 -0.425805
C61   C     C_3   0.541515 0.801346 0.956673 -0.434387
C62   C     C_3   0.545888 0.200563 0.956681 -0.433960
C63   C     C_3   0.043020 0.300916 0.956660 -0.422748
C64   C     C_3   0.045893 0.700398 0.956665 -0.423023
C65   C     C_3   0.500012 0.801079 0.042698 -0.342379
C66   C     C_3   0.504370 0.200972 0.042705 -0.343353
C67   C     C_3   0.001527 0.300577 0.042691 -0.345880
C68   C     C_3   0.004389 0.700831 0.042695 -0.346322
H25   H     H_    0.451661 0.773445 0.935447 0.211136
H26   H     H_    0.453997 0.219587 0.935432 0.211152
H27   H     H_    0.952339 0.276196 0.935430 0.214587
H28   H     H_    0.953961 0.719214 0.935424 0.214931
H29   H     H_    0.591687 0.808944 0.934762 0.180359
H30   H     H_    0.596572 0.196413 0.934758 0.180241
H31   H     H_    0.093414 0.307283 0.934728 0.182292
H32   H     H_    0.096589 0.696320 0.934725 0.181911
H33   H     H_    0.526115 0.833271 0.937229 0.212030
H34   H     H_    0.533341 0.166564 0.937256 0.212120
H35   H     H_    0.028615 0.333620 0.937239 0.220219
H36   H     H_    0.033401 0.666352 0.937257 0.220346
H37   H     H_    0.467469 0.834624 0.064946 0.236454
H38   H     H_    0.474834 0.165677 0.064974 0.236460
H39   H     H_    0.970051 0.334783 0.064972 0.238108
H40   H     H_    0.974923 0.665501 0.064990 0.238065
H41   H     H_    0.531022 0.805854 0.061527 0.177247
H42   H     H_    0.535652 0.199769 0.061519 0.176682
H43   H     H_    0.032684 0.304053 0.061498 0.178241
H44   H     H_    0.035686 0.699723 0.061492 0.178007
C69   C     C_1   0.389122 0.749971 0.221699 -0.083590
C70   C     C_1   0.389114 0.250020 0.221699 -0.083947
C71   C     C_1   0.889074 0.250053 0.221689 -0.080478
C72   C     C_1   0.889068 0.749943 0.221689 -0.080659
C73   C     C_3   0.536273 0.749147 0.926742 0.209527
C74   C     C_3   0.536190 0.250796 0.926741 0.209684
C75   C     C_3   0.036151 0.249383 0.926720 0.202105
C76   C     C_3   0.036096 0.750579 0.926720 0.202244
C77   C     C_3   0.422824 0.740037 0.042726 0.190389
C78   C     C_3   0.422158 0.255010 0.042725 0.190103
C79   C     C_3   0.922448 0.242027 0.042712 0.188786
C80   C     C_3   0.922061 0.754688 0.042713 0.188272
C81   C     C_3   0.462853 0.749728 0.073305 0.158758
C82   C     C_3   0.462820 0.250211 0.073305 0.159405
C83   C     C_3   0.962762 0.249939 0.073285 0.155020
C84   C     C_3   0.962741 0.750021 0.073285 0.155380
C85   C     C_3   0.512320 0.705741 0.043921 -0.488955
C86   C     C_3   0.508319 0.297078 0.043913 -0.489091
C87   C     C_3   0.010829 0.204875 0.043870 -0.483253
C88   C     C_3   0.008149 0.796948 0.043865 -0.483179
C89   C     C_3   0.556144 0.705595 0.957556 0.031932
C90   C     C_3   0.552145 0.297265 0.957549 0.032150
C91   C     C_3   0.054650 0.204736 0.957511 0.028164
C92   C     C_3   0.051970 0.797115 0.957506 0.028230
C93   C     C_1   0.422397 0.749909 0.154919 -0.038182
C94   C     C_1   0.422378 0.250066 0.154919 -0.038498
C95   C     C_1   0.922323 0.250063 0.154906 -0.034753
C96   C     C_1   0.922311 0.749922 0.154906 -0.034929
C97   C     C_1   0.577344 0.749698 0.845132 -0.047000
C98   C     C_1   0.577308 0.250270 0.845132 -0.047091
C99   C     C_1   0.077237 0.249905 0.845115 -0.040093
C100  C     C_1   0.077213 0.750073 0.845115 -0.040112
C101  C     C_1   0.610860 0.749956 0.778335 -0.101424
C102  C     C_1   0.610848 0.250029 0.778335 -0.101381
C103  C     C_1   0.110783 0.250088 0.778322 -0.090278
C104  C     C_1   0.110775 0.749902 0.778322 -0.090230
H45   H     H_    0.605640 0.712822 0.938588 0.150031
H46   H     H_    0.602110 0.293552 0.938602 0.150013
H47   H     H_    0.104349 0.210707 0.938554 0.149996
H48   H     H_    0.101942 0.793476 0.938560 0.150053
H49   H     H_    0.487594 0.668167 0.065544 0.207133
H50   H     H_    0.480370 0.333288 0.065514 0.207105
H51   H     H_    0.984929 0.167758 0.065465 0.209726
H52   H     H_    0.980130 0.833125 0.065444 0.209615
H53   H     H_    0.460332 0.705491 0.934234 0.187036
H54   H     H_    0.456732 0.287986 0.934242 0.186729
H55   H     H_    0.958876 0.208022 0.934222 0.187134
H56   H     H_    0.956562 0.787618 0.934228 0.186901
H57   H     H_    0.402941 0.700366 0.059590 0.118143
H58   H     H_    0.398845 0.293518 0.059601 0.117881
H59   H     H_    0.901303 0.202745 0.059579 0.119860
H60   H     H_    0.898661 0.793162 0.059587 0.119568
H61   H     H_    0.541628 0.710725 0.065025 0.188065
H62   H     H_    0.537896 0.295620 0.065036 0.187848
H63   H     H_    0.040272 0.208574 0.064981 0.189326
H64   H     H_    0.037731 0.795585 0.064985 0.189418
C105  C     C_R   0.722771 0.973596 0.475422 0.118462
C106  C     C_R   0.722771 0.026404 0.475422 0.118549
C107  C     C_R   0.261944 0.473588 0.442706 0.106883
C108  C     C_R   0.261944 0.526413 0.442707 0.106946
C109  C     C_R   0.758658 0.945899 0.492114 -0.176228
C110  C     C_R   0.758657 0.054101 0.492115 -0.176230
C111  C     C_R   0.241430 0.445903 0.506717 -0.173720
C112  C     C_R   0.241430 0.554097 0.506717 -0.173780
C113  C     C_R   0.804218 0.972663 0.495902 0.119084
C114  C     C_R   0.804217 0.027337 0.495903 0.119116
C115  C     C_R   0.209861 0.472665 0.575329 0.116176
C116  C     C_R   0.209861 0.527333 0.575329 0.116212
C117  C     C_3   0.653799 0.029255 0.508371 -0.471530
C118  C     C_3   0.653799 0.970745 0.508371 -0.471617
C119  C     C_3   0.322883 0.529249 0.366946 -0.459312
C120  C     C_3   0.322883 0.470753 0.366945 -0.459668
H65   H     H_    0.625409 0.046274 0.565027 0.196815
H66   H     H_    0.625409 0.953724 0.565026 0.196795
H67   H     H_    0.316564 0.546094 0.325704 0.216553
H68   H     H_    0.316564 0.453909 0.325703 0.216353
H69   H     H_    0.645034 0.046105 0.469170 0.210060
H70   H     H_    0.645035 0.953896 0.469169 0.210014
H71   H     H_    0.361940 0.546268 0.367163 0.197686
H72   H     H_    0.361940 0.453733 0.367163 0.197689
C121  C     C_R   0.802900 0.525969 0.448427 0.036497
C122  C     C_R   0.802900 0.474032 0.448428 0.036642
C123  C     C_R   0.302952 0.025969 0.448539 0.037413
C124  C     C_R   0.302952 0.974032 0.448539 0.037568
C125  C     C_R   0.749013 0.554468 0.498689 -0.066345
C126  C     C_R   0.749014 0.445532 0.498690 -0.066366
C127  C     C_R   0.249009 0.054468 0.498636 -0.067864
C128  C     C_R   0.249010 0.945532 0.498636 -0.067855
C129  C     C_R   0.692629 0.527011 0.549044 -0.192589
C130  C     C_R   0.692629 0.472988 0.549044 -0.192596
C131  C     C_R   0.192566 0.027011 0.548772 -0.188822
C132  C     C_R   0.192566 0.972988 0.548772 -0.188865
H73   H     H_    0.648856 0.546987 0.589069 0.182643
H74   H     H_    0.648857 0.453012 0.589070 0.182835
H75   H     H_    0.148746 0.046987 0.588642 0.184023
H76   H     H_    0.148746 0.953012 0.588642 0.184151
C133  C     C_3   0.872320 0.470115 0.389321 -0.019367
C134  C     C_3   0.872320 0.529887 0.389321 -0.019230
C135  C     C_3   0.372449 0.970116 0.389804 -0.019262
C136  C     C_3   0.372448 0.029888 0.389804 -0.019104
H77   H     H_    0.897525 0.453642 0.411482 0.115370
H78   H     H_    0.897524 0.546362 0.411480 0.115273
H79   H     H_    0.397388 0.953646 0.412301 0.113753
H80   H     H_    0.397387 0.046359 0.412300 0.113565
I1    I     I_    0.558119 0.630164 0.915275 -0.361502
I2    I     I_    0.547686 0.370734 0.915225 -0.361689
I3    I     I_    0.054311 0.129954 0.915178 -0.358501
I4    I     I_    0.047390 0.870526 0.915145 -0.358293
I5    I     I_    0.874109 0.931277 0.498535 -0.273714
I6    I     I_    0.874107 0.068723 0.498540 -0.273611
I7    I     I_    0.160422 0.431229 0.678235 -0.270624
I8    I     I_    0.160426 0.568768 0.678235 -0.270088
I9    I     I_    0.892022 0.430294 0.292906 -0.235462
I10   I     I_    0.892018 0.569708 0.292905 -0.232595
I11   I     I_    0.392720 0.930298 0.293121 -0.237314
I12   I     I_    0.392715 0.069706 0.293121 -0.233319
N1    N     N_R   0.369466 0.775996 0.073793 0.219448
O53   O     O_R   0.311739 0.758893 0.117752 -0.373660
O54   O     O_R   0.378664 0.824409 0.055294 -0.381091
N2    N     N_R   0.372096 0.215858 0.073777 0.219801
O55   O     O_R   0.313009 0.229745 0.117742 -0.372563
O56   O     O_R   0.385535 0.167631 0.055258 -0.379784
N3    N     N_R   0.870259 0.279185 0.073782 0.219237
O57   O     O_R   0.812004 0.263242 0.117756 -0.374773
O58   O     O_R   0.881004 0.327571 0.055262 -0.376573
N4    N     N_R   0.872090 0.715455 0.073776 0.219563
O59   O     O_R   0.812972 0.729255 0.117755 -0.374097
O60   O     O_R   0.885638 0.667240 0.055245 -0.375173

loop_
_geom_bond_atom_site_label_1
_geom_bond_atom_site_label_2
_geom_bond_distance
_ccdc_geom_bond_type
C56   H20   1.111565 S    
C31   C35   1.413276 A    
C117  H65   1.112183 S    
Zn5   O21   1.945640 S    
C54   H22   1.111700 S    
C130  H74   1.082996 S    
C59   H55   1.111992 S    
O23   C19   1.273874 A    
C38   C42   1.413043 A    
N3    O58   1.301416 A    
C123  C127  1.389271 A    
C136  H80   1.111801 S    
C109  C113  1.420264 A    
C10   C126  1.444600 S    
C25   C45   1.349496 A    
C62   C66   1.549944 S    
O42   C14   1.275841 A    
C27   C31   1.387703 A    
C131  C132  1.403833 A    
C108  C112  1.391455 A    
O46   C2    1.282534 A    
O34   C22   1.271501 A    
C121  C134  1.491244 S    
C63   H31   1.113198 S    
Zn3   O3    1.942352 S    
C18   C43   1.447275 S    
C135  H79   1.111801 S    
Zn16  O28   1.945841 S    
C53   H21   1.111701 S    
O28   C24   1.274226 A    
C60   C76   1.551604 S    
C68   C84   1.552224 S    
C113  C114  1.420763 A    
Zn4   O40   1.940839 S    
Zn6   O2    1.942203 S    
C116  I8    2.144192 S    
C123  C124  1.349655 A    
C19   C42   1.447437 S    
C117  H69   1.111774 S    
C40   C44   1.413071 A    
C113  I5    2.145061 S    
C30   C34   1.413123 A    
C97   C101  1.203137 T    
C58   H26   1.112795 S    
C78   H58   1.115375 S    
C56   H24   1.111591 S    
C59   C75   1.551606 S    
C87   H63   1.113383 S    
O16   C12   1.273726 A    
N3    O57   1.301036 A    
Zn16  O4    1.942047 S    
Zn12  O4    1.941739 S    
N4    O59   1.301037 A    
Zn13  O5    1.908259 S    
Zn2   O10   1.907848 S    
C110  C114  1.420266 A    
C26   C46   1.349499 A    
Zn6   O14   1.941097 S    
O47   C3    1.282566 A    
Zn7   O3    1.942214 S    
C86   H62   1.113376 S    
C65   C81   1.552141 S    
C89   I1    2.161301 S    
C55   H19   1.111563 S    
N2    O55   1.301039 A    
C120  H72   1.112221 S    
C91   I3    2.161334 S    
C92   I4    2.161331 S    
O43   C15   1.275607 A    
C43   C47   1.387564 A    
C57   C77   1.556844 S    
O24   C20   1.273869 A    
Zn11  O19   1.941083 S    
C66   H42   1.113328 S    
C60   C80   1.556884 S    
C63   C75   1.551645 S    
C76   C100  1.469930 S    
Zn8   O16   1.941097 S    
Zn10  O2    1.941739 S    
C135  I11   2.153384 S    
C7    C103  1.429679 S    
C76   C92   1.559863 S    
Zn9   O49   1.908344 S    
Zn4   O4    1.942363 S    
C49   C53   1.540870 S    
C53   H17   1.111554 S    
C50   H10   1.111557 S    
C108  C119  1.493063 S    
C79   H59   1.115372 S    
C50   C54   1.540874 S    
C35   H3    1.082945 S    
Zn8   O24   1.945639 S    
C70   C94   1.202815 T    
C33   C37   1.406504 A    
O25   C21   1.274093 A    
C75   C91   1.559864 S    
C71   C95   1.202881 T    
O29   C17   1.271236 A    
C32   C36   1.413276 A    
C67   C83   1.552228 S    
Zn12  O52   1.908349 S    
C74   C90   1.559897 S    
C117  C118  1.520440 S    
C26   C54   1.489358 S    
O22   C18   1.273965 A    
C85   H49   1.112013 S    
C121  C122  1.349647 A    
Zn13  O41   1.940793 S    
C64   H32   1.113199 S    
C73   C89   1.559898 S    
C123  C136  1.491260 S    
C134  I10   2.153399 S    
C39   C43   1.413072 A    
C42   C46   1.387725 A    
Zn1   O37   1.940844 S    
C68   H44   1.113320 S    
Zn2   O34   1.945475 S    
Zn3   O39   1.940844 S    
C128  C132  1.411933 A    
C86   C90   1.555662 S    
Zn6   O22   1.945639 S    
C55   H23   1.111589 S    
C38   H6    1.082957 S    
C119  H71   1.112221 S    
C133  C134  1.553231 S    
N1    O54   1.301416 A    
C87   C91   1.555568 S    
C66   H38   1.110020 S    
C83   C87   1.551782 S    
Zn10  O50   1.908349 S    
C81   C93   1.470037 S    
C63   C67   1.550072 S    
C64   C68   1.550069 S    
C36   C40   1.406626 A    
C85   H61   1.113380 S    
C122  C133  1.491245 S    
C64   H36   1.113203 S    
O5    C1    1.282925 A    
O26   C22   1.274099 A    
O31   C19   1.271418 A    
C84   C96   1.470150 S    
C45   C49   1.489360 S    
C47   C51   1.489267 S    
C88   C92   1.555559 S    
Zn5   O45   1.907941 S    
Zn7   O47   1.907941 S    
Zn8   O48   1.907946 S    
C105  C118  1.493163 S    
O51   C7    1.282649 A    
C25   C29   1.387732 A    
C40   H8    1.083018 S    
O8    C4    1.282831 A    
C27   C47   1.349432 A    
C114  I6    2.145058 S    
Zn7   O23   1.945640 S    
C61   H29   1.113202 S    
C107  C120  1.493064 S    
C12   C128  1.444624 S    
C58   C74   1.551628 S    
C107  C111  1.391457 A    
O52   C8    1.282645 A    
Zn1   O1    1.942352 S    
O40   C12   1.272440 A    
C105  C109  1.391558 A    
C90   H46   1.113226 S    
Zn3   O11   1.907854 S    
C52   H16   1.111664 S    
Zn15  O27   1.945840 S    
C82   C86   1.551812 S    
C28   C32   1.387705 A    
C136  I12   2.153399 S    
O9    C5    1.282652 A    
C54   H18   1.111555 S    
C79   C83   1.563238 S    
C90   I2    2.161293 S    
C77   C81   1.563233 S    
O13   C9    1.273730 A    
C115  I7    2.144193 S    
O18   C14   1.274245 A    
C23   C31   1.447721 S    
O6    C2    1.282923 A    
C6    C102  1.429834 S    
C118  H66   1.112184 S    
C27   C55   1.489368 S    
C57   C73   1.551633 S    
C58   H54   1.111996 S    
C80   N4    1.469071 S    
Zn11  O31   1.945885 S    
C107  C108  1.372720 A    
Zn12  O32   1.945884 S    
Zn13  O25   1.945840 S    
C37   C41   1.413041 A    
C119  C120  1.520094 S    
Zn15  O3    1.942037 S    
Zn11  O3    1.941749 S    
C66   C82   1.552141 S    
C87   H51   1.112011 S    
C92   H48   1.113228 S    
C80   C84   1.563231 S    
C51   H11   1.111557 S    
C4    C69   1.429454 S    
C52   H12   1.111557 S    
O11   C7    1.282746 A    
Zn5   O1    1.942214 S    
C26   C30   1.387728 A    
C49   H9    1.111559 S    
C15   C111  1.456277 S    
C124  C135  1.491264 S    
C35   C39   1.406627 A    
C13   C109  1.456544 S    
C125  C129  1.411927 A    
O35   C23   1.271465 A    
C127  C131  1.411933 A    
N4    O60   1.301416 A    
C135  C136  1.553218 S    
O32   C20   1.271411 A    
C48   C52   1.489270 S    
C129  C130  1.403833 A    
Zn9   O17   1.941083 S    
C14   C110  1.456544 S    
C5    C101  1.429836 S    
C25   C53   1.489358 S    
N2    O56   1.301412 A    
C64   C76   1.551642 S    
Zn14  O42   1.940788 S    
O7    C3    1.282833 A    
Zn2   O38   1.940839 S    
O33   C21   1.271495 A    
Zn3   O35   1.945474 S    
C49   H13   1.111666 S    
C112  C116  1.419819 A    
O37   C9    1.272423 A    
C121  C125  1.389253 A    
O39   C11   1.272439 A    
C8    C104  1.429678 S    
C119  H67   1.111605 S    
C132  H76   1.082995 S    
O15   C11   1.273725 A    
C111  C115  1.419819 A    
C74   C98   1.470012 S    
C34   C38   1.406506 A    
C57   H25   1.112804 S    
O12   C8    1.282751 A    
C36   H4    1.082948 S    
C80   H60   1.115370 S    
C133  H77   1.111796 S    
O19   C15   1.274345 A    
Zn15  O43   1.940793 S    
C67   H43   1.113325 S    
C91   H47   1.113233 S    
C72   C96   1.202883 T    
C129  H73   1.082995 S    
Zn6   O46   1.907946 S    
C51   C55   1.540815 S    
C62   H34   1.113183 S    
Zn14  O6    1.908254 S    
Zn9   O29   1.945885 S    
C9    C125  1.444598 S    
C61   C65   1.549936 S    
Zn13  O1    1.942037 S    
C83   C95   1.470148 S    
C61   H33   1.113192 S    
C62   H30   1.113203 S    
C77   N1    1.469072 S    
C65   H37   1.110010 S    
O38   C10   1.272422 A    
O50   C6    1.282818 A    
C99   C103  1.203065 T    
Zn2   O2    1.942363 S    
C57   H53   1.111995 S    
N1    O53   1.301038 A    
Zn14  O2    1.942047 S    
C77   H57   1.115378 S    
C84   C88   1.551782 S    
C131  H75   1.082995 S    
Zn8   O4    1.942203 S    
Zn4   O36   1.945475 S    
O21   C17   1.273969 A    
C86   H50   1.112016 S    
Zn16  O44   1.940788 S    
C58   C78   1.556852 S    
O49   C5    1.282828 A    
C62   C74   1.551632 S    
C41   C45   1.387723 A    
C60   H56   1.111995 S    
C100  C104  1.203066 T    
Zn1   O33   1.945474 S    
Zn10  O30   1.945884 S    
C11   C127  1.444620 S    
C85   C89   1.555673 S    
Zn12  O20   1.941088 S    
C37   H5    1.082957 S    
C120  H68   1.111602 S    
Zn15  O7    1.908259 S    
Zn16  O8    1.908254 S    
C67   H39   1.110011 S    
Zn1   O9    1.907854 S    
C68   H40   1.110014 S    
C3    C70   1.429457 S    
C51   H15   1.111665 S    
C52   C56   1.540815 S    
Zn4   O12   1.907848 S    
Zn11  O51   1.908344 S    
Zn5   O13   1.941091 S    
C33   H1    1.082955 S    
C82   C94   1.470040 S    
Zn7   O15   1.941091 S    
C28   C48   1.349430 A    
C88   H52   1.112013 S    
C16   C112  1.456279 S    
C126  C130  1.411928 A    
C98   C102  1.203135 T    
O27   C23   1.274220 A    
C21   C29   1.447535 S    
C46   C50   1.489362 S    
C17   C44   1.447277 S    
C69   C93   1.202813 T    
C124  C128  1.389275 A    
Zn10  O18   1.941088 S    
C65   H41   1.113338 S    
C60   H28   1.112802 S    
Zn9   O1    1.941749 S    
C59   H27   1.112804 S    
C106  C117  1.493164 S    
O41   C13   1.275840 A    
C24   C32   1.447722 S    
O45   C1    1.282533 A    
C50   H14   1.111664 S    
C88   H64   1.113377 S    
C75   C99   1.469931 S    
C122  C126  1.389255 A    
C115  C116  1.420594 A    
C79   N3    1.469070 S    
C78   N2    1.469071 S    
C106  C110  1.391558 A    
Zn14  O26   1.945841 S    
C89   H45   1.113225 S    
C28   C56   1.489367 S    
O44   C16   1.275608 A    
C61   C73   1.551634 S    
O20   C16   1.274344 A    
C81   C85   1.551814 S    
C59   C79   1.556873 S    
O10   C6    1.282661 A    
C22   C30   1.447538 S    
C34   H2    1.082950 S    
C73   C97   1.470013 S    
O48   C4    1.282567 A    
O36   C24   1.271471 A    
C78   C82   1.563218 S    
C1    C72   1.429575 S    
O14   C10   1.273733 A    
C63   H35   1.113205 S    
C2    C71   1.429572 S    
C133  I9    2.153390 S    
C134  H78   1.111797 S    
C39   H7    1.083019 S    
C20   C41   1.447437 S    
C105  C106  1.372275 A    
O17   C13   1.274245 A    
C118  H70   1.111772 S    
C29   C33   1.413122 A    
C44   C48   1.387569 A    
O30   C18   1.271229 A    
