data_mof_unit_31656.cif
_audit_creation_date              2012-12-10T16:42:33-0500
_audit_creation_method            fapswitch 2.2
_symmetry_space_group_name_H-M    P1
_symmetry_Int_Tables_number       1
_space_group_crystal_system       triclinic
_cell_length_a                    7.515653
_cell_length_b                    8.683306
_cell_length_c                    11.003289
_cell_angle_alpha                 88.528584
_cell_angle_beta                  72.073823
_cell_angle_gamma                 103.183812
_cell_volume                      661.642536682

loop_
_atom_site_label
_atom_site_type_symbol
_atom_type_description
_atom_site_fract_x
_atom_site_fract_y
_atom_site_fract_z
_atom_type_partial_charge
C1    C     C_R   0.451766 0.199633 0.504093 0.875829
C2    C     C_R   0.548234 0.800366 0.495908 0.875794
C3    C     C_R   0.422466 0.492241 0.742698 0.855689
C4    C     C_R   0.577535 0.507770 0.257301 0.855699
C5    C     C_2   0.378969 0.487949 0.880745 -0.352103
C6    C     C_2   0.621035 0.512092 0.119253 -0.352135
C7    C     C_2   0.521136 0.502371 0.931167 -0.151756
C8    C     C_2   0.478883 0.497722 0.068828 -0.151736
C9    C     C_2   0.425103 0.031299 0.506345 -0.365716
C10   C     C_2   0.574896 0.968701 0.493661 -0.365673
Cu1   Cu    Cu3+1 0.688910 0.517800 0.485820 0.971347
Cu2   Cu    Cu3+1 0.311090 0.482200 0.514180 0.971337
H1    H     H_    0.329839 0.482272 0.129213 0.181639
H2    H     H_    0.670194 0.517852 0.870781 0.181565
H3    H     H_    0.769802 0.527122 0.058511 0.144347
H4    H     H_    0.230191 0.472891 0.941489 0.144344
H5    H     H_    0.281088 0.958596 0.518621 0.174041
H6    H     H_    0.718910 0.041404 0.481386 0.174120
N1    N     N_2   0.027170 0.455360 0.535550 0.000159
N2    N     N_2   0.972830 0.544640 0.464450 0.000190
O1    O     O_R   0.622710 0.286400 0.490790 -0.559348
O2    O     O_R   0.377290 0.713600 0.509210 -0.559440
O3    O     O_R   0.303660 0.256330 0.514730 -0.602262
O4    O     O_R   0.696340 0.743670 0.485270 -0.602233
O5    O     O_R   0.600900 0.509520 0.671740 -0.564177
O6    O     O_R   0.399100 0.490480 0.328260 -0.564091
O7    O     O_R   0.281840 0.479450 0.695690 -0.598934
O8    O     O_R   0.718160 0.520550 0.304310 -0.598954
N3    N     N_3   0.880981 0.343764 0.625246 -0.414187
H7    H     H_    0.908958 0.232811 0.606673 0.204368
H8    H     H_    0.895709 0.365805 0.714937 0.201046
N4    N     N_3   0.119029 0.656207 0.374733 -0.414139
H9    H     H_    0.091390 0.767247 0.393507 0.204305
H10   H     H_    0.103968 0.634433 0.285072 0.201065

loop_
_geom_bond_atom_site_label_1
_geom_bond_atom_site_label_2
_ccdc_geom_bond_type
C2    O2    A    
C4    O6    A    
Cu1   Cu2   S    
C1    O1    A    
N3    H7    S    
C9    C10   D    
N1    N2    D    
N4    H9    S    
C3    O7    A    
C7    C8    S    
N3    H8    S    
Cu2   O3    S    
C8    H1    S    
Cu1   O8    S    
C10   H6    S    
Cu2   N1    S    
C9    H5    S    
C4    O8    A    
C1    O3    A    
C2    O4    A    
Cu1   N2    S    
Cu1   O5    S    
Cu2   O7    S    
C2    C10   S    
Cu2   O2    S    
Cu1   O4    S    
C3    O5    A    
C1    C9    S    
C4    C6    S    
N2    N4    S    
C5    C7    D    
C5    H4    S    
C6    C8    D    
N4    H10   S    
C6    H3    S    
Cu1   O1    S    
C7    H2    S    
Cu2   O6    S    
C3    C5    S    
N1    N3    S    
