data_mof_unit_66381.cif
_audit_creation_date              2012-12-11T17:15:22-0500
_audit_creation_method            fapswitch 2.2
_symmetry_space_group_name_H-M    P1
_symmetry_Int_Tables_number       1
_space_group_crystal_system       triclinic
_cell_length_a                    18.99877
_cell_length_b                    19.767513
_cell_length_c                    19.925816
_cell_angle_alpha                 111.56907
_cell_angle_beta                  107.165207
_cell_angle_gamma                 108.777402
_cell_volume                      5817.2345498

loop_
_atom_site_label
_atom_site_type_symbol
_atom_type_description
_atom_site_fract_x
_atom_site_fract_y
_atom_site_fract_z
_atom_type_partial_charge
C1    C     C_R   0.967550 0.710150 0.043234 0.186692
C2    C     C_R   0.754945 0.274807 0.756617 0.094979
C3    C     C_R   0.042552 0.499892 0.768599 0.099466
C4    C     C_R   0.749357 0.498083 0.016091 0.079023
C5    C     C_R   0.038274 0.569894 0.235416 -0.118870
C6    C     C_R   0.171272 0.428992 0.949278 -0.164180
C7    C     C_R   0.227058 0.729179 0.158523 -0.147200
C8    C     C_R   0.934032 0.272432 0.999396 -0.141892
C9    C     C_R   0.006768 0.272721 0.930287 -0.127376
C10   C     C_R   0.155316 0.726975 0.227708 -0.117069
C11   C     C_R   0.970535 0.430460 0.165679 -0.129845
C12   C     C_R   0.835009 0.301762 0.764417 -0.129041
C13   C     C_R   0.239162 0.567460 0.013048 0.150122
C14   C     C_R   0.022641 0.500342 0.242869 0.090781
C15   C     C_R   0.249499 0.497215 0.985694 0.049381
C16   C     C_R   0.229100 0.773550 0.231429 0.090586
C17   C     C_R   0.963417 0.226902 0.956531 0.102095
C18   C     C_1   0.672404 0.497004 0.013370 -0.032646
C19   C     C_1   0.607276 0.495963 0.008988 0.009871
C20   C     C_1   0.530638 0.494805 0.002451 -0.001143
C21   C     C_1   0.465303 0.494112 0.996643 -0.000700
C22   C     C_1   0.389134 0.493933 0.990533 -0.001962
C23   C     C_R   0.069100 0.569143 0.841452 -0.129513
C24   C     C_1   0.324878 0.494724 0.986948 -0.046270
C25   C     C_R   0.471718 0.049695 0.400302 -0.170887
C26   C     C_R   0.396901 0.013223 0.402947 0.169493
C27   C     C_R   0.391050 0.048129 0.474809 -0.163575
C28   C     C_R   0.462447 0.115259 0.546179 -0.170487
C29   C     C_R   0.539113 0.146940 0.545103 0.171381
C30   C     C_R   0.543106 0.116833 0.471664 -0.169796
C31   C     C_1   0.333920 0.931019 0.338994 -0.057453
C32   C     C_1   0.615233 0.196875 0.620214 -0.064178
C33   C     C_1   0.679126 0.233566 0.682794 -0.033148
C34   C     C_R   0.760794 0.429790 0.985686 -0.134231
C35   C     C_1   0.284854 0.859534 0.288792 -0.021869
C36   C     C_R   0.151031 0.576881 0.599143 0.213504
C37   C     C_R   0.110501 0.501205 0.595211 0.083050
C38   C     C_R   0.073889 0.425605 0.522626 -0.204846
C39   C     C_R   0.071138 0.425311 0.451960 -0.158532
C40   C     C_R   0.105156 0.500647 0.454204 0.131517
C41   C     C_R   0.148113 0.576199 0.528127 -0.218035
C42   C     C_1   0.091594 0.500392 0.659064 0.002862
C43   C     C_1   0.081563 0.500722 0.379477 -0.037705
C44   C     C_1   0.056131 0.500625 0.316889 -0.035447
C45   C     C_R   0.001729 0.430771 0.772280 -0.146352
C46   C     C_1   0.070408 0.499948 0.709843 -0.019259
C47   C     C_R   0.841571 0.953614 0.918130 -0.171368
C48   C     C_R   0.883190 0.984865 0.880283 0.168212
C49   C     C_R   0.921951 0.945697 0.843314 -0.165320
C50   C     C_R   0.927189 0.880665 0.852191 -0.168442
C51   C     C_R   0.893719 0.855688 0.898020 0.157431
C52   C     C_R   0.846970 0.888704 0.927167 -0.151119
C53   C     C_1   0.906262 0.067955 0.899732 -0.061496
C54   C     C_1   0.922404 0.810478 0.929385 -0.047619
C55   C     C_1   0.950945 0.776303 0.958394 0.028296
C56   C     C_R   0.827120 0.567666 0.054225 -0.108046
C57   C     C_1   0.931664 0.140290 0.923809 -0.038767
C58   C     C_R   0.761952 0.299842 0.833845 -0.126414
C59   C     C_R   0.032098 0.701229 0.965624 -0.174967
C60   C     C_R   0.984771 0.734254 0.990422 0.044091
H1    H     H_    0.154351 0.364372 0.914471 0.115139
H2    H     H_    0.266177 0.756379 0.136200 0.119896
H3    H     H_    0.885622 0.249003 0.015439 0.099745
H4    H     H_    0.025012 0.249674 0.883695 0.096890
H5    H     H_    0.129614 0.749151 0.267507 0.116151
H6    H     H_    0.946727 0.366310 0.150048 0.105428
H7    H     H_    0.602653 0.140592 0.470880 0.123535
H8    H     H_    0.476750 0.022009 0.345020 0.124612
H9    H     H_    0.333514 0.019237 0.477301 0.128482
H10   H     H_    0.852154 0.292606 0.715969 0.103166
H11   H     H_    0.459438 0.137797 0.603181 0.125561
H12   H     H_    0.173874 0.634489 0.529476 0.153604
H13   H     H_    0.041841 0.367136 0.519160 0.134821
H14   H     H_    0.036991 0.366711 0.394581 0.128186
H15   H     H_    0.821638 0.869785 0.963254 0.137286
H16   H     H_    0.812642 0.984771 0.947890 0.125849
H17   H     H_    0.955332 0.970684 0.815114 0.125316
H18   H     H_    0.963995 0.855455 0.830159 0.129580
H19   H     H_    0.114816 0.632107 0.863802 0.113750
H20   H     H_    0.715871 0.366385 0.962494 0.098384
H21   H     H_    0.986019 0.367853 0.731604 0.097608
H22   H     H_    0.841511 0.629562 0.093935 0.150900
H23   H     H_    0.710681 0.286760 0.848410 0.100160
H24   H     H_    0.057885 0.709563 0.925913 0.123971
H25   H     H_    0.076749 0.634105 0.284159 0.106121
N1    N     N_R   0.996070 0.655850 0.042990 -0.060990
N2    N     N_R   0.116850 0.457070 0.957010 -0.051331
N3    N     N_R   0.155570 0.655860 0.112610 -0.043229
N4    N     N_R   0.959810 0.344140 0.999890 -0.041903
N5    N     N_R   0.003930 0.344150 0.957010 -0.040575
N6    N     N_R   0.111450 0.655840 0.155490 -0.042105
N7    N     N_R   0.956740 0.457020 0.112610 -0.044311
N8    N     N_R   0.158640 0.542970 0.999890 -0.061691
N9    N     N_R   0.888550 0.344160 0.844510 -0.042265
N10   N     N_R   0.043260 0.542980 0.887390 -0.044491
N11   N     N_R   0.841360 0.457030 0.000110 -0.043062
N12   N     N_R   0.001470 0.457070 0.844510 -0.039056
N13   N     N_R   0.883150 0.542930 0.042990 -0.044624
N14   N     N_R   0.844430 0.344140 0.887390 -0.042473
N15   N     N_R   0.040190 0.655860 0.000110 -0.051977
N16   N     N_R   0.998530 0.542930 0.155490 -0.042647
Ni1   Ni    Ni4+2 0.997320 0.598490 0.098350 0.238678
Ni2   Ni    Ni4+2 0.002680 0.401510 0.901650 0.209134
Ni3   Ni    Ni4+2 0.098520 0.598520 0.000000 0.206651
Ni4   Ni    Ni4+2 0.901480 0.401480 0.000000 0.213732
I1    I     I_    0.951879 0.785570 0.139080 -0.468006
C61   C     C_3   0.297676 0.649503 0.027579 -0.440271
C62   C     C_3   0.378134 0.697872 0.109564 -0.253984
C63   C     C_3   0.433584 0.784469 0.127789 -0.894148
H26   H     H_    0.452234 0.779841 0.079091 0.268999
H27   H     H_    0.399593 0.821003 0.131774 0.254754
H28   H     H_    0.491399 0.817727 0.187094 0.250162
H29   H     H_    0.362292 0.703672 0.160070 0.201393
H30   H     H_    0.414744 0.663902 0.107805 0.206556
H31   H     H_    0.315156 0.637728 0.977457 0.197550
H32   H     H_    0.264262 0.685632 0.023098 0.182602
I2    I     I_    0.208141 0.693425 0.707652 -0.436983

loop_
_geom_bond_atom_site_label_1
_geom_bond_atom_site_label_2
_ccdc_geom_bond_type
N11   Ni4   S    
N16   Ni1   S    
C9    H4    S    
C3    C23   A    
C19   C20   S    
C56   N13   A    
C13   C61   S    
C52   H15   S    
C2    C12   A    
C55   C60   S    
C26   C27   A    
C29   C30   A    
C6    H1    S    
C28   C29   A    
C34   N11   A    
C47   H16   S    
C29   C32   S    
C63   H27   S    
C16   C35   S    
C38   C39   A    
C11   C14   A    
N15   Ni3   S    
C62   C63   S    
C18   C19   T    
C42   C46   T    
C39   H14   S    
C62   H30   S    
C37   C42   S    
C34   H20   S    
C6    C15   A    
C11   N7    A    
C40   C43   S    
C7    N3    A    
C23   N10   A    
N11   N13   A    
C61   C62   S    
N1    N15   A    
C30   H7    S    
C27   H9    S    
C11   H6    S    
C1    I1    S    
C5    H25   S    
C22   C24   T    
C59   C60   A    
C21   C22   S    
C4    C56   A    
C59   N15   A    
C12   N9    A    
C36   C41   A    
C25   H8    S    
C50   H18   S    
N8    Ni3   S    
N3    Ni3   S    
C5    N16   A    
C48   C53   S    
N14   Ni4   S    
C4    C34   A    
C51   C52   A    
C59   H24   S    
C1    C60   A    
C39   C40   A    
C53   C57   T    
C25   C26   A    
N13   Ni1   S    
C3    C45   A    
C6    N2    A    
C13   N8    A    
C62   H29   S    
C43   C44   T    
C7    H2    S    
C37   C38   A    
C47   C48   A    
N3    N6    A    
N5    Ni2   S    
C2    C58   A    
C50   C51   A    
C36   I2    S    
C61   H31   S    
C5    C14   A    
N12   Ni2   S    
N7    N16   A    
C41   H12   S    
N2    Ni2   S    
C2    C33   S    
C9    C17   A    
C40   C41   A    
N9    Ni2   S    
C13   C15   A    
C31   C35   T    
C63   H28   S    
C28   H11   S    
N6    Ni1   S    
N1    Ni1   S    
N10   Ni3   S    
C14   C44   S    
C10   H5    S    
C25   C30   A    
C12   H10   S    
C54   C55   T    
C15   C24   S    
C26   C31   S    
C7    C16   A    
C58   N14   A    
C9    N5    A    
C10   N6    A    
N10   N12   A    
C56   H22   S    
C47   C52   A    
C3    C46   S    
C8    C17   A    
C51   C54   S    
C32   C33   T    
C4    C18   S    
C45   N12   A    
C63   H26   S    
N9    N14   A    
C48   C49   A    
N2    N8    A    
C49   H17   S    
C45   H21   S    
C61   H32   S    
C8    H3    S    
N7    Ni4   S    
C1    N1    A    
C20   C21   T    
C36   C37   A    
C49   C50   A    
N4    Ni4   S    
C27   C28   A    
C10   C16   A    
C8    N4    A    
C23   H19   S    
N4    N5    A    
C58   H23   S    
C17   C57   S    
C38   H13   S    
