data_mof_unit_24177.cif
_audit_creation_date              2012-12-10T19:08:08-0500
_audit_creation_method            fapswitch 2.2
_symmetry_space_group_name_H-M    P1
_symmetry_Int_Tables_number       1
_space_group_crystal_system       triclinic
_cell_length_a                    9.067691
_cell_length_b                    10.859869
_cell_length_c                    9.567058
_cell_angle_alpha                 90.040247
_cell_angle_beta                  89.788777
_cell_angle_gamma                 90.169597
_cell_volume                      942.095106607

loop_
_atom_site_label
_atom_site_type_symbol
_atom_type_description
_atom_site_fract_x
_atom_site_fract_y
_atom_site_fract_z
_atom_type_partial_charge
C1    C     C_R   0.500604 0.262767 0.499817 0.800507
C2    C     C_R   0.519710 0.935339 0.371585 -0.219394
C3    C     C_R   0.504429 0.869897 0.498384 -0.102776
C4    C     C_R   0.492418 0.938127 0.620479 0.131054
C5    C     C_3   0.467406 0.929494 0.774194 -0.466896
C6    C     C_3   0.466942 0.071303 0.773931 -0.477590
C7    C     C_R   0.574065 0.589168 0.072543 0.206647
C8    C     C_R   0.417563 0.417845 0.074630 -0.060095
C9    C     C_R   0.418285 0.417331 0.925878 -0.067797
C10   C     C_R   0.569365 0.591991 0.925663 0.240190
C11   C     C_3   0.727342 0.628572 0.913516 -0.534290
C12   C     C_R   0.220752 0.499988 0.500140 0.843794
C13   C     C_3   0.736125 0.619159 0.071883 -0.291672
C14   C     C_R   0.500924 0.737242 0.499883 0.795310
C15   C     C_R   0.779233 0.500145 0.499894 0.845058
C16   C     C_1   0.065566 0.500115 0.500256 -0.176073
C17   C     C_1   0.934401 0.500183 0.499904 -0.178836
C18   C     C_R   0.492034 0.062105 0.620329 0.133702
C19   C     C_R   0.503929 0.130140 0.498197 -0.101802
C20   C     C_R   0.519418 0.064560 0.371492 -0.214366
Cu1   Cu    Cu3+1 0.499990 0.499980 0.640670 0.943195
Cu2   Cu    Cu3+1 0.500010 0.500020 0.359330 0.955512
H1    H     H_    0.530451 0.112313 0.272630 0.168658
H2    H     H_    0.740122 0.724435 0.874834 0.177815
H3    H     H_    0.762594 0.707720 0.124525 0.145665
H4    H     H_    0.530975 0.887468 0.272766 0.164708
H5    H     H_    0.358433 0.888219 0.800344 0.201547
H6    H     H_    0.563174 0.889359 0.829796 0.192777
H7    H     H_    0.357589 0.111496 0.799773 0.192328
H8    H     H_    0.562468 0.113026 0.829181 0.204557
H9    H     H_    0.352832 0.349889 0.130439 0.143651
H10   H     H_    0.354400 0.348809 0.870477 0.136713
H11   H     H_    0.795268 0.560065 0.855981 0.227190
N1    N     N_R   0.500920 0.500930 0.147930 -0.190325
N2    N     N_R   0.500930 0.500890 0.852020 -0.181343
O1    O     O_R   0.500000 0.319640 0.618810 -0.584485
O2    O     O_R   0.500020 0.319680 0.381230 -0.590023
O3    O     O_R   0.288380 0.499980 0.618770 -0.581381
O4    O     O_R   0.288400 0.500020 0.381190 -0.570790
O5    O     O_R   0.499980 0.680320 0.618770 -0.579139
O6    O     O_R   0.500000 0.680360 0.381190 -0.591916
O7    O     O_R   0.711600 0.499980 0.618810 -0.586580
O8    O     O_R   0.711620 0.500020 0.381230 -0.568951
C21   C     C_1   0.831856 0.516046 0.113315 0.364808
N3    N     N_1   0.907611 0.435071 0.144566 -0.298863

loop_
_geom_bond_atom_site_label_1
_geom_bond_atom_site_label_2
_ccdc_geom_bond_type
C7    C10   A    
C10   N2    A    
Cu1   N2    S    
Cu2   O8    S    
C5    H6    S    
C19   C20   A    
C20   H1    S    
C1    O2    A    
C4    C18   A    
C12   O4    A    
C7    C13   S    
C2    C3    A    
C15   O8    A    
C2    H4    S    
Cu1   O1    S    
C8    N1    A    
Cu1   Cu2   S    
C11   C13   S    
C13   H3    S    
C16   C17   T    
C3    C14   S    
C14   O6    A    
Cu2   N1    S    
Cu2   O4    S    
C6    H8    S    
C12   O3    A    
C5    C6    S    
C6    C18   S    
C7    N1    A    
C1    C19   S    
Cu2   O6    S    
C10   C11   S    
Cu1   O3    S    
C2    C20   A    
C3    C4    A    
C11   H2    S    
C11   H11   S    
C6    H7    S    
C21   N3    T    
C15   O7    A    
C15   C17   S    
C18   C19   A    
C9    N2    A    
C8    C9    A    
Cu1   O7    S    
C9    H10   S    
C5    H5    S    
Cu2   O2    S    
C14   O5    A    
C13   C21   S    
C8    H9    S    
C12   C16   S    
C1    O1    A    
C4    C5    S    
Cu1   O5    S    
