data_mof_unit_27377.cif
_audit_creation_date              2013-03-05T15:55:19-0500
_audit_creation_method            fapswitch 2.2
_symmetry_space_group_name_H-M    P1
_symmetry_Int_Tables_number       1
_space_group_crystal_system       triclinic
_cell_length_a                    14.728535
_cell_length_b                    14.735964
_cell_length_c                    33.308905
_cell_angle_alpha                 96.18355
_cell_angle_beta                  96.313059
_cell_angle_gamma                 61.145351
_cell_volume                      6280.98239983

loop_
_atom_site_label
_atom_site_type_symbol
_atom_site_description
_atom_site_fract_x
_atom_site_fract_y
_atom_site_fract_z
_atom_type_partial_charge
O1    O     O_R   0.679450 0.499830 0.463150 -0.536372
O2    O     O_R   0.480650 0.664000 0.464630 -0.549374
C1    C     C_R   0.390764 0.700020 0.446332 0.847704
O3    O     O_R   0.323930 0.675950 0.455370 -0.491416
O4    O     O_R   0.354700 0.475360 0.451930 -0.498952
C2    C     C_R   0.404485 0.385517 0.434099 0.873722
O5    O     O_R   0.494470 0.320860 0.448390 -0.545118
O6    O     O_R   0.662580 0.357570 0.460050 -0.558462
C3    C     C_R   0.701421 0.409195 0.447469 0.764907
O7    O     O_R   0.680900 0.502040 0.551870 -0.542596
O8    O     O_R   0.481990 0.666040 0.546870 -0.542133
C4    C     C_R   0.393458 0.701524 0.561252 0.788280
O9    O     O_R   0.325370 0.678160 0.544080 -0.524151
O10   O     O_R   0.356040 0.477400 0.534170 -0.502740
C5    C     C_R   0.406529 0.388271 0.548656 0.865753
O11   O     O_R   0.495910 0.323070 0.537100 -0.548346
O12   O     O_R   0.663920 0.359620 0.542290 -0.539309
C6    C     C_R   0.701215 0.413691 0.562762 0.786524
Cr1   Cr    Cr6+3 0.576280 0.580550 0.506370 0.970093
Cr2   Cr    Cr6+3 0.346780 0.572400 0.496520 1.126094
Cr3   Cr    Cr6+3 0.576960 0.347070 0.497150 0.969800
O13   O     O_3   0.500010 0.500010 0.500010 -0.362681
H1    H     H_    0.456443 0.188192 0.105987 0.176996
H2    H     H_    0.478300 0.228261 0.178343 0.184892
C7    C     C_R   0.367456 0.365348 0.392105 -0.203246
C8    C     C_R   0.288058 0.449919 0.371014 0.248729
C9    C     C_R   0.282493 0.445665 0.328599 0.287030
C10   C     C_R   0.350988 0.355249 0.306912 -0.098766
C11   C     C_R   0.420071 0.264836 0.327222 -0.133987
C12   C     C_R   0.425750 0.269079 0.370092 -0.134712
C13   C     C_R   0.403020 0.271648 0.162536 -0.067539
C14   C     C_R   0.390547 0.248708 0.121299 -0.086117
C15   C     C_R   0.208881 0.377899 0.121358 -0.189271
C16   C     C_R   0.219883 0.401407 0.162867 -0.058606
C17   C     C_R   0.317902 0.344876 0.183754 0.060476
C18   C     C_1   0.331201 0.351273 0.227076 0.106176
C19   C     C_1   0.341165 0.353430 0.263382 0.200229
C20   C     C_R   0.292464 0.298787 0.100744 -0.052658
H3    H     H_    0.132920 0.417654 0.105579 0.144445
N1    N     N_R   0.772563 0.376487 0.225483 -0.196339
N2    N     N_R   0.766154 0.382419 0.265256 -0.234668
C21   C     C_R   0.761022 0.369679 0.410584 -0.111950
C22   C     C_R   0.784007 0.437613 0.392821 -0.221068
C23   C     C_R   0.823250 0.414085 0.354709 -0.050740
C24   C     C_R   0.836287 0.321509 0.332725 -0.063427
C25   C     C_R   0.822698 0.247217 0.351301 -0.084540
C26   C     C_R   0.788109 0.270102 0.391029 -0.035920
N3    N     N_R   0.929458 0.235341 0.271289 -0.263083
N4    N     N_R   0.935638 0.229047 0.231445 -0.210316
C27   C     C_R   0.857304 0.299537 0.207980 0.670847
C28   C     C_R   0.844501 0.312154 0.288785 0.539660
C29   C     C_R   0.872394 0.379248 0.148708 0.339191
C30   C     C_R   0.891773 0.371076 0.108156 -0.191083
C31   C     C_R   0.892408 0.204435 0.097820 -0.171735
C32   C     C_R   0.875109 0.211018 0.139277 0.347161
C33   C     C_R   0.867869 0.296937 0.164672 -0.244745
C34   C     C_R   0.909070 0.281866 0.083145 -0.226604
H4    H     H_    0.768283 0.511843 0.408264 0.147912
H5    H     H_    0.901709 0.432033 0.097111 0.192362
N5    N     N_R   0.329114 0.746196 0.216665 -0.185650
N6    N     N_R   0.339165 0.732614 0.256055 -0.190337
C35   C     C_R   0.374362 0.747717 0.407895 -0.026043
C36   C     C_R   0.275956 0.824049 0.392889 -0.010824
C37   C     C_R   0.262409 0.846260 0.352146 -0.174282
C38   C     C_R   0.344710 0.795133 0.326694 0.031035
C39   C     C_R   0.444909 0.725103 0.342456 -0.025446
C40   C     C_R   0.458012 0.702107 0.382846 -0.256163
N7    N     N_R   0.295082 0.907414 0.270759 -0.263658
N8    N     N_R   0.285552 0.920833 0.231398 -0.253407
C41   C     C_R   0.302876 0.840434 0.203731 0.626269
C42   C     C_R   0.323283 0.812781 0.283647 0.577778
C43   C     C_R   0.253595 0.817167 0.130046 0.317416
C44   C     C_R   0.251601 0.838969 0.089615 0.312783
C45   C     C_R   0.362744 0.918942 0.111110 -0.088845
C46   C     C_R   0.360475 0.900062 0.151027 -0.126523
C47   C     C_R   0.303351 0.853783 0.160878 -0.187962
C48   C     C_R   0.298660 0.898306 0.080548 -0.289203
H6    H     H_    0.533682 0.644059 0.394370 0.126746
H7    H     H_    0.186581 0.901988 0.339812 0.134183
H8    H     H_    0.405356 0.919980 0.174908 0.206200
N9    N     N_R   0.263997 0.437174 0.768873 -0.180390
N10   N     N_R   0.272142 0.440840 0.729739 -0.246805
C49   C     C_R   0.370284 0.367470 0.584530 -0.222007
C50   C     C_R   0.270293 0.434249 0.598510 0.390278
C51   C     C_R   0.251048 0.428198 0.638134 -0.243026
C52   C     C_R   0.327623 0.354385 0.663230 -0.160984
C53   C     C_R   0.424737 0.282776 0.648370 0.400443
C54   C     C_R   0.444143 0.289209 0.609017 -0.256837
N11   N     N_R   0.327589 0.262688 0.719986 -0.216923
N12   N     N_R   0.319153 0.259166 0.758992 -0.269766
C55   C     C_R   0.288442 0.345924 0.784280 0.572266
C56   C     C_R   0.305449 0.353297 0.704829 0.586446
C57   C     C_R   0.218812 0.418261 0.853455 0.327838
C58   C     C_R   0.220137 0.401742 0.894701 -0.159126
C59   C     C_R   0.365118 0.227860 0.884311 -0.140919
C60   C     C_R   0.365009 0.245208 0.844378 -0.152901
C61   C     C_R   0.289540 0.337615 0.827984 -0.094015
C62   C     C_R   0.289030 0.302125 0.909198 -0.108571
H9    H     H_    0.521111 0.237669 0.598881 0.197278
H10   H     H_    0.175460 0.480492 0.649373 0.194565
H11   H     H_    0.420817 0.152239 0.894678 0.210317
H12   H     H_    0.422572 0.183935 0.825764 0.199300
H13   H     H_    0.936610 0.127492 0.877544 0.185145
H14   H     H_    0.792996 0.202864 0.669685 0.179546
H15   H     H_    0.744221 0.237266 0.598156 0.156259
C63   C     C_R   0.753172 0.381050 0.603145 -0.059622
C64   C     C_R   0.777847 0.448095 0.629733 -0.138138
C65   C     C_R   0.805272 0.428143 0.670579 -0.118368
C66   C     C_R   0.808746 0.340949 0.685211 0.085044
C67   C     C_R   0.790338 0.270652 0.658593 -0.072453
C68   C     C_R   0.763029 0.290300 0.617755 -0.156733
C69   C     C_R   0.879579 0.211353 0.823334 0.402647
C70   C     C_R   0.909462 0.201672 0.864890 -0.227289
C71   C     C_R   0.873261 0.381135 0.873033 -0.120243
C72   C     C_R   0.843997 0.391680 0.831897 -0.140725
C73   C     C_R   0.850023 0.306869 0.806714 -0.024039
C74   C     C_1   0.835283 0.317555 0.763749 0.093943
C75   C     C_1   0.824083 0.327450 0.727876 0.029917
C76   C     C_R   0.909683 0.285098 0.889692 -0.119148
H16   H     H_    0.770521 0.518800 0.619519 0.154938
H17   H     H_    0.821078 0.465164 0.819339 0.180543
H18   H     H_    0.872556 0.446819 0.891332 0.171588
H19   H     H_    0.819627 0.482890 0.691031 0.147310
H20   H     H_    0.517095 0.784475 0.685941 0.159621
H21   H     H_    0.534433 0.731060 0.613764 0.150840
C77   C     C_R   0.376376 0.755637 0.601889 -0.064960
C78   C     C_R   0.281181 0.790619 0.619155 -0.115673
C79   C     C_R   0.271943 0.820716 0.660312 -0.116958
C80   C     C_R   0.357434 0.816491 0.684606 0.090250
C81   C     C_R   0.450523 0.787951 0.667296 -0.078478
C82   C     C_R   0.459936 0.758054 0.626078 -0.155380
C83   C     C_R   0.411368 0.855423 0.834928 0.312626
C84   C     C_R   0.390462 0.882292 0.876254 0.279826
C85   C     C_R   0.213702 0.911230 0.859506 -0.152274
C86   C     C_R   0.234331 0.885006 0.819011 -0.136570
C87   C     C_R   0.331316 0.859973 0.806407 -0.073720
C88   C     C_1   0.344402 0.844900 0.763662 0.114697
C89   C     C_1   0.351589 0.833053 0.727652 0.014052
C90   C     C_R   0.289582 0.913868 0.888407 -0.222917
H22   H     H_    0.215496 0.789590 0.601380 0.175769
H23   H     H_    0.172879 0.887930 0.797152 0.194749
H24   H     H_    0.135842 0.935101 0.867747 0.202268
H25   H     H_    0.199503 0.842896 0.673521 0.145754
O14   O     O_R   0.170070 0.978950 0.027680 -0.501180
O15   O     O_R   0.001760 0.175230 0.026640 -0.547731
C91   C     C_R   0.962749 0.264516 0.045596 0.795798
O16   O     O_R   0.984760 0.333570 0.037150 -0.537460
O17   O     O_R   0.183410 0.309240 0.041890 -0.527186
C92   C     C_R   0.272976 0.260141 0.059832 0.798626
O18   O     O_R   0.340240 0.172500 0.045430 -0.550224
O19   O     O_R   0.309670 0.000990 0.032050 -0.557132
C93   C     C_R   0.260358 0.958029 0.043532 0.860222
O20   O     O_R   0.168330 0.982130 0.939200 -0.539330
O21   O     O_R   0.000140 0.178170 0.944610 -0.541975
C94   C     C_R   0.962589 0.267568 0.930665 0.791178
O22   O     O_R   0.983010 0.336750 0.948660 -0.543774
O23   O     O_R   0.181800 0.312190 0.959860 -0.525207
C95   C     C_R   0.271299 0.264880 0.945625 0.836601
O24   O     O_R   0.338500 0.175680 0.956950 -0.532682
O25   O     O_R   0.308050 0.003930 0.950020 -0.505665
C96   C     C_R   0.256425 0.964402 0.928993 0.874892
Cr4   Cr    Cr6+3 0.087320 0.083240 0.984860 1.016839
Cr5   Cr    Cr6+3 0.087720 0.316210 0.996740 1.007375
Cr6   Cr    Cr6+3 0.317350 0.090340 0.995890 1.032227
O26   O     O_3   0.164130 0.163270 0.992500 -0.360641
C97   C     C_2   0.783235 0.188666 0.411842 0.496750
H26   H     H_    0.709531 0.198407 0.419843 0.068230
O27   O     O_2   0.862394 0.108179 0.419142 -0.499601
C98   C     C_2   0.846121 0.490769 0.338634 0.528509
H27   H     H_    0.816798 0.568383 0.353168 0.054294
O28   O     O_2   0.900354 0.467875 0.310135 -0.444600
C99   C     C_2   0.837316 0.149413 0.327840 0.472751
H28   H     H_    0.896537 0.111699 0.306217 0.099860
O29   O     O_2   0.781470 0.111327 0.331648 -0.494136
N13   N     N_R   0.865198 0.468239 0.173713 0.113479
O30   O     O_R   0.822934 0.558715 0.158585 -0.330725
O31   O     O_R   0.913460 0.457044 0.209467 -0.318060
C100  C     C_2   0.887026 0.121481 0.069482 0.584857
H29   H     H_    0.863446 0.135606 0.037770 0.030302
O32   O     O_2   0.908151 0.037100 0.080858 -0.428286
N14   N     N_R   0.863314 0.131643 0.155789 0.149651
O33   O     O_R   0.945057 0.044344 0.164257 -0.277773
O34   O     O_R   0.774508 0.153194 0.168764 -0.340427
C101  C     C_2   0.185777 0.882608 0.418202 0.494169
H30   H     H_    0.108353 0.925529 0.403813 0.094725
O35   O     O_2   0.196692 0.887245 0.455101 -0.508720
N15   N     N_R   0.199007 0.803874 0.057964 0.164027
O36   O     O_R   0.242724 0.760475 0.024221 -0.330750
O37   O     O_R   0.105847 0.818765 0.062050 -0.266487
C102  C     C_2   0.538155 0.673222 0.318334 0.465868
H31   H     H_    0.607377 0.606471 0.329737 0.025312
O38   O     O_2   0.540741 0.705637 0.286494 -0.485276
N16   N     N_R   0.203176 0.760409 0.139663 0.164846
O39   O     O_R   0.226038 0.670030 0.121450 -0.310582
O40   O     O_R   0.133430 0.799338 0.166293 -0.283152
C103  C     C_2   0.433552 0.959039 0.102736 0.485489
H32   H     H_    0.465166 0.943627 0.073401 0.096560
O41   O     O_2   0.460766 0.006746 0.129180 -0.516716
N17   N     N_R   0.187732 0.507347 0.573016 0.115180
O42   O     O_R   0.118916 0.595994 0.588563 -0.353703
O43   O     O_R   0.171893 0.479350 0.535627 -0.334287
C104  C     C_2   0.148061 0.488304 0.921507 0.539952
H33   H     H_    0.073284 0.546292 0.909280 0.101582
O44   O     O_2   0.173266 0.498064 0.957222 -0.484625
N18   N     N_R   0.507457 0.208955 0.673658 0.118879
O45   O     O_R   0.571766 0.117999 0.658151 -0.339843
O46   O     O_R   0.529164 0.237835 0.710132 -0.332407
C105  C     C_2   0.484609 0.165011 0.304031 0.477530
H34   H     H_    0.503737 0.091521 0.315721 0.060063
O47   O     O_2   0.518929 0.163438 0.272076 -0.493751
N19   N     N_R   0.143313 0.514841 0.837287 0.087623
O48   O     O_R   0.144156 0.600785 0.850547 -0.331261
O49   O     O_R   0.071941 0.517297 0.809999 -0.351895
N20   N     N_R   0.883509 0.123141 0.798573 0.105679
O50   O     O_R   0.941936 0.029590 0.810419 -0.362125
O51   O     O_R   0.822306 0.135772 0.765962 -0.329514
C106  C     C_2   0.493333 0.172841 0.391595 0.462438
H35   H     H_    0.567622 0.115923 0.380378 0.051763
O52   O     O_2   0.465065 0.155283 0.421618 -0.491119
N21   N     N_R   0.472308 0.873140 0.905853 0.144237
O53   O     O_R   0.501428 0.807582 0.933837 -0.342548
O54   O     O_R   0.505185 0.941342 0.908982 -0.326646
N22   N     N_R   0.513320 0.822437 0.822070 0.131316
O55   O     O_R   0.558752 0.879418 0.831528 -0.299702
O56   O     O_R   0.557862 0.739091 0.798288 -0.356571
N23   N     N_R   0.214296 0.541743 0.392449 0.156002
O57   O     O_R   0.157527 0.534580 0.417966 -0.313161
O58   O     O_R   0.200155 0.632872 0.385209 -0.332663
C107  C     C_2   0.125649 0.481705 0.182712 0.592545
H36   H     H_    0.051958 0.518107 0.165004 0.092831
O59   O     O_2   0.128191 0.509046 0.218506 -0.437947
N24   N     N_R   0.206463 0.534042 0.307449 0.176591
O60   O     O_R   0.235886 0.580056 0.284615 -0.320229
O61   O     O_R   0.108096 0.571634 0.312501 -0.258557

loop_
_geom_bond_atom_site_label_1
_geom_bond_atom_site_label_2
_geom_bond_distance
_ccdc_geom_bond_type
O6    C3    1.273987 A    
C84   C90   1.418598 A    
C53   C54   1.394336 A    
N1    N2    1.329014 A    
C57   C58   1.417271 A    
C72   H17   1.084070 S    
C60   H12   1.083795 S    
C83   N22   1.437573 S    
C98   H27   1.085789 S    
C31   C32   1.416308 A    
C17   C18   1.433839 S    
C85   C90   1.405175 A    
C43   C47   1.406988 A    
C79   C80   1.398311 A    
N21   O54   1.300558 A    
O15   C91   1.277139 A    
C30   H5    1.083304 S    
C59   C62   1.402095 A    
C86   C87   1.393819 A    
N13   O31   1.301426 A    
O4    Cr2   1.919366 S    
N14   O33   1.301007 A    
C101  H30   1.085865 S    
O8    Cr1   1.921666 S    
C3    C21   1.486231 S    
C15   H3    1.084232 S    
C11   C105  1.493733 S    
C104  O44   1.221154 D    
C35   C40   1.404222 A    
O25   Cr6   1.917747 S    
C18   C19   1.200903 T    
Cr5   O26   1.970809 S    
C8    N23   1.436856 S    
C91   O16   1.272721 A    
O2    C1    1.272743 A    
N7    C42   1.353590 A    
C51   C52   1.399404 A    
O4    C2    1.277737 A    
N20   O51   1.301311 A    
C32   C33   1.410200 A    
C2    C7    1.497143 S    
C4    C77   1.476478 S    
O15   Cr4   1.921665 S    
C58   C62   1.423020 A    
C5    O11   1.270956 A    
N10   C56   1.356977 A    
C65   C66   1.398944 A    
C16   C17   1.416120 A    
N4    C27   1.356782 A    
C44   C48   1.422682 A    
C67   C68   1.395707 A    
C53   N18   1.438655 S    
C22   H4    1.084086 S    
C70   C76   1.406521 A    
N3    C28   1.355661 A    
C52   C56   1.461579 S    
C80   C89   1.433271 S    
C49   C50   1.416830 A    
O22   Cr5   2.036063 S    
C101  O35   1.220735 D    
C105  H34   1.084444 S    
N16   O40   1.301219 A    
C45   C48   1.420789 A    
C78   H22   1.083048 S    
C57   N19   1.434558 S    
C76   C94   1.477937 S    
O19   C93   1.277327 A    
C78   C79   1.395120 A    
C58   C104  1.485745 S    
C14   C20   1.400945 A    
C27   C33   1.462307 S    
C46   H8    1.084983 S    
O23   Cr5   1.926668 S    
C20   C92   1.472524 S    
C71   C76   1.403368 A    
C43   C44   1.411777 A    
O14   Cr4   2.040495 S    
N6    C42   1.357072 A    
N18   O46   1.301486 A    
C49   C54   1.405444 A    
H15   C68   1.083026 S    
N17   O42   1.301413 A    
Cr3   O13   1.971037 S    
C97   O27   1.220770 D    
C98   O28   1.220925 D    
C40   H6    1.085202 S    
C48   C93   1.488162 S    
N21   O53   1.300856 A    
C44   N15   1.438256 S    
C107  H36   1.085872 S    
C99   O29   1.221238 D    
C66   C75   1.434252 S    
C100  H29   1.084733 S    
C94   O22   1.270311 A    
C63   C68   1.408373 A    
N14   O34   1.300877 A    
C50   N17   1.437279 S    
C32   N14   1.434046 S    
C15   C16   1.399878 A    
C45   C103  1.486199 S    
O1    Cr1   2.040596 S    
C84   N21   1.433095 S    
C45   C46   1.394570 A    
C74   C75   1.203011 T    
C62   C95   1.480919 S    
C90   C96   1.482524 S    
Cr1   O13   1.973744 S    
O1    C3    1.277132 A    
C50   C51   1.400829 A    
N22   O55   1.300377 A    
C103  O41   1.221321 D    
C104  H33   1.084902 S    
C43   N16   1.436351 S    
C26   C97   1.482959 S    
C30   C34   1.405201 A    
N20   O50   1.301600 A    
N7    N8    1.329023 A    
C5    C49   1.477805 S    
C7    C8    1.419677 A    
N18   O45   1.301361 A    
N9    N10   1.331279 A    
C31   C100  1.489960 S    
O23   C95   1.275829 A    
O20   C96   1.272053 A    
N5    N6    1.329917 A    
C71   H18   1.083083 S    
C46   C47   1.394035 A    
C6    C63   1.477851 S    
C102  H31   1.085653 S    
C77   C82   1.408241 A    
C11   C12   1.417582 A    
O10   Cr2   1.925459 S    
C85   H24   1.083152 S    
Cr4   O26   1.973608 S    
H21   C82   1.083035 S    
N19   O48   1.301025 A    
O10   C5    1.275054 A    
N5    C41   1.355611 A    
O7    Cr1   2.037952 S    
C83   C87   1.410058 A    
C60   C61   1.397771 A    
C35   C36   1.415628 A    
N24   O61   1.301199 A    
O12   C6    1.274588 A    
C8    C9    1.402542 A    
H20   C81   1.083597 S    
O19   Cr6   1.926770 S    
C29   C30   1.391782 A    
C55   C61   1.471638 S    
N11   C56   1.353805 A    
C29   N13   1.440361 S    
O21   C94   1.276404 A    
C85   C86   1.387666 A    
C12   C106  1.488137 S    
C105  O47   1.220934 D    
N3    N4    1.330470 A    
N19   O49   1.301055 A    
Cr2   O13   1.972360 S    
N23   O57   1.301322 A    
C69   N20   1.442294 S    
C22   C23   1.392475 A    
C41   C47   1.462938 S    
C95   O24   1.272291 A    
C37   H7    1.084916 S    
C13   C17   1.400164 A    
C16   C107  1.487142 S    
C21   C22   1.401978 A    
C64   C65   1.396908 A    
C1    O3    1.269090 A    
C10   C11   1.415054 A    
C57   C61   1.414055 A    
C64   H16   1.082943 S    
C69   C73   1.414403 A    
C23   C24   1.413138 A    
N17   O43   1.301529 A    
C80   C81   1.397926 A    
C1    C35   1.467483 S    
O5    Cr3   2.036406 S    
C7    C12   1.423391 A    
C25   C26   1.417982 A    
Cr6   O26   1.972237 S    
C102  O38   1.220650 D    
C36   C101  1.484225 S    
O9    Cr2   2.035076 S    
H13   C70   1.082949 S    
O2    Cr1   1.922223 S    
C52   C53   1.410960 A    
O17   Cr5   1.919901 S    
O21   Cr4   1.922192 S    
C13   C14   1.392519 A    
C103  H32   1.083198 S    
O6    Cr3   1.927058 S    
C100  O32   1.220113 D    
O8    C4    1.276137 A    
N22   O56   1.301286 A    
O11   Cr3   2.044273 S    
C71   C72   1.392375 A    
C2    O5    1.277141 A    
O3    Cr2   2.043000 S    
C106  O52   1.221312 D    
O18   Cr6   2.035587 S    
C88   C89   1.202238 T    
N23   O58   1.301388 A    
C15   C20   1.405082 A    
O20   Cr4   2.037580 S    
C23   C98   1.488132 S    
H1    C14   1.082982 S    
C81   C82   1.396743 A    
C106  H35   1.084853 S    
H2    C13   1.084101 S    
N15   O36   1.301419 A    
C107  O59   1.219193 D    
N13   O30   1.301418 A    
C38   C42   1.457631 S    
C92   O18   1.271088 A    
O25   C96   1.276889 A    
H14   C67   1.083723 S    
N12   C55   1.357283 A    
C97   H26   1.083997 S    
C29   C33   1.408241 A    
C10   C19   1.439862 S    
O7    C6    1.272013 A    
C77   C78   1.406492 A    
N1    C27   1.354640 A    
C39   C102  1.487661 S    
C37   C38   1.400970 A    
C36   C37   1.400639 A    
N24   O60   1.301257 A    
C25   C99   1.493022 S    
C73   C74   1.437783 S    
C83   C84   1.415819 A    
C69   C70   1.406412 A    
O17   C92   1.272565 A    
C38   C39   1.412430 A    
N8    C41   1.357474 A    
C79   H25   1.083715 S    
O12   Cr3   1.918473 S    
N15   O37   1.301314 A    
C54   H9    1.083445 S    
C99   H28   1.082806 S    
N9    C55   1.357156 A    
C24   C25   1.416354 A    
C9    N24   1.436259 S    
C86   H23   1.084139 S    
C21   C26   1.422249 A    
C4    O9    1.271252 A    
O14   C93   1.275618 A    
N16   O39   1.301222 A    
C63   C64   1.407053 A    
C66   C67   1.397532 A    
C39   C40   1.392842 A    
C51   H10   1.083923 S    
C24   C28   1.468036 S    
O24   Cr6   2.044306 S    
C87   C88   1.436832 S    
O16   Cr5   2.043796 S    
C65   H19   1.083596 S    
C72   C73   1.398904 A    
N11   N12   1.327595 A    
C34   C91   1.486014 S    
N2    C28   1.356695 A    
C59   C60   1.380914 A    
C59   H11   1.082706 S    
C9    C10   1.403685 A    
C31   C34   1.420516 A    
