data_mof_unit_47833.cif
_audit_creation_date              2012-12-10T20:39:56-0500
_audit_creation_method            fapswitch 2.2
_symmetry_space_group_name_H-M    P1
_symmetry_Int_Tables_number       1
_space_group_crystal_system       triclinic
_cell_length_a                    23.406704
_cell_length_b                    10.680607
_cell_length_c                    9.868887
_cell_angle_alpha                 90.121368
_cell_angle_beta                  90.551602
_cell_angle_gamma                 90.136111
_cell_volume                      2467.07315187

loop_
_atom_site_label
_atom_site_type_symbol
_atom_type_description
_atom_site_fract_x
_atom_site_fract_y
_atom_site_fract_z
_atom_type_partial_charge
C1    C     C_R   0.501288 0.260085 0.500015 0.885075
C2    C     C_R   0.970114 0.284417 0.419954 -0.154821
C3    C     C_R   0.029584 0.284181 0.420198 -0.153587
C4    C     C_R   0.060158 0.389812 0.465261 -0.016640
C5    C     C_R   0.030577 0.496360 0.510908 -0.020636
C6    C     C_R   0.060874 0.602729 0.556626 -0.016207
C7    C     C_R   0.031013 0.708468 0.601821 -0.152981
C8    C     C_R   0.971545 0.708892 0.601092 -0.155234
C9    C     C_R   0.119810 0.392285 0.465164 0.511640
C10   C     C_R   0.120513 0.600378 0.555546 0.510363
C11   C     C_R   0.237627 0.576092 0.416604 -0.084459
C12   C     C_R   0.389560 0.499923 0.499779 0.873301
C13   C     C_R   0.296903 0.577086 0.414007 -0.155638
C14   C     C_R   0.327757 0.498341 0.500734 -0.042288
C15   C     C_R   0.299325 0.420518 0.592264 -0.218240
C16   C     C_R   0.240057 0.419819 0.595135 -0.073007
C17   C     C_R   0.209232 0.497319 0.507001 0.292916
C18   C     C_R   0.762519 0.502295 0.382109 -0.096582
C19   C     C_R   0.703215 0.502871 0.380088 -0.214093
C20   C     C_R   0.673034 0.500013 0.502307 -0.037030
C21   C     C_R   0.702893 0.496758 0.626358 -0.209631
C22   C     C_R   0.762176 0.496056 0.627981 -0.096617
C23   C     C_R   0.501181 0.739987 0.500234 0.884700
C24   C     C_R   0.791915 0.498774 0.505965 0.315545
C25   C     C_R   0.501323 0.064344 0.622616 0.079817
C26   C     C_R   0.508656 0.128590 0.501591 -0.100595
C27   C     C_R   0.525269 0.064593 0.384356 -0.198626
C28   C     C_R   0.525180 0.935100 0.384599 -0.168872
C29   C     C_R   0.508493 0.871649 0.502099 -0.162877
C30   C     C_R   0.501387 0.936623 0.623217 0.107566
C31   C     C_3   0.453549 0.930626 0.722675 0.251163
C32   C     C_3   0.453727 0.072674 0.722080 -0.524414
C33   C     C_R   0.466438 0.417660 0.069555 0.115292
C34   C     C_R   0.610713 0.500156 0.500597 0.866441
C35   C     C_R   0.536537 0.574085 0.073033 -0.053721
C36   C     C_R   0.536420 0.574363 0.929040 -0.025382
C37   C     C_R   0.468026 0.414388 0.927230 0.134607
C38   C     C_3   0.405237 0.396672 0.914047 -0.508271
C39   C     C_3   0.402460 0.409347 0.066956 0.220026
C40   C     C_R   0.881315 0.601978 0.552852 0.505480
C41   C     C_R   0.880610 0.393133 0.464519 0.505959
C42   C     C_R   0.940253 0.390372 0.464538 -0.016207
C43   C     C_R   0.970552 0.496693 0.510415 -0.020332
C44   C     C_R   0.940971 0.603488 0.555416 -0.015970
H1    H     H_    0.947683 0.201625 0.384435 0.195698
H2    H     H_    0.681127 0.505621 0.283198 0.160440
H3    H     H_    0.680570 0.494476 0.721947 0.161546
H4    H     H_    0.785108 0.493086 0.723754 0.143298
H5    H     H_    0.535011 0.113660 0.291391 0.177794
H6    H     H_    0.534886 0.885555 0.291735 0.189877
H7    H     H_    0.413846 0.887984 0.680109 0.120755
H8    H     H_    0.414199 0.113611 0.677292 0.170468
H9    H     H_    0.467927 0.116210 0.819187 0.236953
H10   H     H_    0.565165 0.635896 0.128158 0.135572
H11   H     H_    0.051455 0.201218 0.384833 0.195792
H12   H     H_    0.564860 0.636612 0.875530 0.155726
H13   H     H_    0.383899 0.473628 0.857589 0.266052
H14   H     H_    0.394140 0.301177 0.877232 0.160122
H15   H     H_    0.385655 0.324807 0.118697 0.120482
H16   H     H_    0.053444 0.791230 0.637425 0.195975
H17   H     H_    0.949672 0.791952 0.636188 0.195591
H18   H     H_    0.213683 0.636818 0.349267 0.158680
H19   H     H_    0.318597 0.641345 0.347274 0.204037
H20   H     H_    0.322964 0.359802 0.660296 0.148317
H21   H     H_    0.218008 0.359470 0.665606 0.151806
H22   H     H_    0.785733 0.504755 0.287751 0.143057
N1    N     N_R   0.852700 0.497927 0.507864 -0.359941
N2    N     N_R   0.148444 0.496511 0.509673 -0.358922
N3    N     N_R   0.499610 0.499140 0.142800 -0.089401
N4    N     N_R   0.499610 0.499180 0.857150 -0.090240
O1    O     O_R   0.500010 0.316790 0.614690 -0.614252
O2    O     O_2   0.850595 0.291998 0.422348 -0.548027
O3    O     O_2   0.149100 0.292106 0.419839 -0.545496
O4    O     O_2   0.150506 0.700568 0.600410 -0.544492
O5    O     O_R   0.500000 0.316760 0.385350 -0.632919
O6    O     O_R   0.416160 0.499980 0.614700 -0.623460
O7    O     O_R   0.416150 0.499940 0.385360 -0.565215
O8    O     O_R   0.500000 0.683240 0.614650 -0.588600
O9    O     O_R   0.499990 0.683210 0.385310 -0.603389
O10   O     O_R   0.583850 0.500060 0.614640 -0.630007
O11   O     O_R   0.583840 0.500020 0.385300 -0.634332
O12   O     O_2   0.851987 0.703697 0.593854 -0.548507
Zn1   Zn    Zn3+2 0.500000 0.500020 0.653130 0.982699
Zn2   Zn    Zn3+2 0.500000 0.499980 0.346870 0.993683
Cl1   Cl    Cl    0.476155 0.866882 0.881326 -0.589655
Cl2   Cl    Cl    0.368610 0.553144 0.111821 -0.564493

loop_
_geom_bond_atom_site_label_1
_geom_bond_atom_site_label_2
_ccdc_geom_bond_type
C22   H4    S    
C31   Cl1   S    
C11   C13   A    
C41   C42   A    
C7    H16   S    
C19   C20   A    
C11   H18   S    
C19   H2    S    
C7    C8    A    
C41   N1    A    
C26   C27   A    
C29   C30   A    
C18   C24   A    
C5    C6    A    
C23   C29   S    
C28   C29   A    
C2    C42   A    
O9    Zn2   S    
O5    Zn2   S    
C15   C16   A    
C18   C19   A    
C32   H8    S    
C24   N1    S    
C34   O10   A    
C38   H14   S    
C28   H6    S    
O8    Zn1   S    
C35   C36   A    
C16   C17   A    
C40   N1    A    
C15   H20   S    
C34   O11   A    
C13   C14   A    
C33   N3    A    
C8    H17   S    
C20   C34   S    
C25   C32   S    
C5    C43   A    
C21   C22   A    
C35   H10   S    
C9    O3    S    
O10   Zn1   S    
O6    Zn1   S    
C36   N4    A    
O1    Zn1   S    
C2    H1    S    
C38   C39   S    
C1    O5    A    
C40   O12   S    
O7    Zn2   S    
C25   C26   A    
C33   C37   A    
C43   C44   A    
C37   C38   S    
C36   H12   S    
C38   H13   S    
C31   C32   S    
C13   H19   S    
C39   H15   S    
C12   O7    A    
C33   C39   S    
N4    Zn1   S    
C41   O2    S    
C12   C14   S    
C12   O6    A    
C1    C26   S    
C22   C24   A    
C42   C43   A    
C3    C4    A    
C32   H9    S    
O11   Zn2   S    
C25   C30   A    
C11   C17   A    
C17   N2    S    
C8    C44   A    
C31   H7    S    
C4    C5    A    
C6    C10   A    
C6    C7    A    
C10   N2    A    
C18   H22   S    
C3    H11   S    
C2    C3    A    
C9    N2    A    
N3    Zn2   S    
C10   O4    S    
C30   C31   S    
C1    O1    A    
C23   O8    A    
C40   C44   A    
C20   C21   A    
C35   N3    A    
C27   C28   A    
C14   C15   A    
C16   H21   S    
C39   Cl2   S    
C23   O9    A    
C4    C9    A    
C37   N4    A    
C27   H5    S    
C21   H3    S    
