data_mof_unit_15052.cif
_audit_creation_date              2012-12-10T17:22:12-0500
_audit_creation_method            fapswitch 2.2
_symmetry_space_group_name_H-M    P1
_symmetry_Int_Tables_number       1
_space_group_crystal_system       triclinic
_cell_length_a                    15.865015
_cell_length_b                    10.857933
_cell_length_c                    9.614005
_cell_angle_alpha                 88.701239
_cell_angle_beta                  90.060177
_cell_angle_gamma                 94.547685
_cell_volume                      1650.48214712

loop_
_atom_site_label
_atom_site_type_symbol
_atom_type_description
_atom_site_fract_x
_atom_site_fract_y
_atom_site_fract_z
_atom_type_partial_charge
C1    C     C_R   0.500378 0.261680 0.502814 0.825055
C2    C     C_R   0.449534 0.033200 0.885299 -0.045836
C3    C     C_R   0.413809 0.913931 0.867335 -0.122340
C4    C     C_R   0.340324 0.498801 0.500055 0.802470
C5    C     C_R   0.417845 0.860221 0.737865 -0.156112
C6    C     C_R   0.457443 0.926055 0.623588 0.029779
C7    C     C_R   0.479298 0.054135 0.634983 0.088701
C8    C     C_R   0.496563 0.125816 0.509677 -0.213894
C9    C     C_R   0.499962 0.065947 0.382459 -0.244156
C10   C     C_R   0.491617 0.938842 0.376854 0.576432
C11   C     C_R   0.476331 0.867469 0.498515 -0.255057
C12   C     C_3   0.945483 0.364787 0.551950 -0.528649
C13   C     C_R   0.600024 0.678994 0.146333 -0.154156
C14   C     C_R   0.626358 0.790302 0.085098 -0.190176
C15   C     C_R   0.616371 0.807201 0.945052 0.459884
C16   C     C_R   0.490393 0.735489 0.498880 0.826226
C17   C     C_R   0.596482 0.702620 0.860109 0.378011
C18   C     C_R   0.548525 0.595109 0.924339 0.044463
C19   C     C_R   0.549316 0.589917 0.074350 0.037179
C20   C     C_R   0.452359 0.414490 0.075528 0.695057
C21   C     C_R   0.453030 0.413959 0.928010 -0.170637
C22   C     C_R   0.659184 0.494646 0.500012 0.830450
C23   C     C_3   0.916294 0.491586 0.500509 -0.005037
C24   C     C_3   0.043146 0.367901 0.553826 -0.459348
C25   C     C_3   0.049423 0.521455 0.351758 0.414189
C26   C     C_3   0.951055 0.511453 0.349526 0.292176
C27   C     C_1   0.748493 0.489697 0.499710 -0.157821
C28   C     C_3   0.082684 0.495826 0.501653 0.029960
C29   C     C_3   0.680134 0.805312 0.679145 0.129396
C30   C     C_3   0.720783 0.787155 0.539056 -0.812599
C31   C     C_3   0.144785 0.762480 0.675936 0.086475
C32   C     C_3   0.192346 0.883071 0.627931 -0.747366
C33   C     C_3   0.904271 0.528433 0.810869 0.032396
C34   C     C_3   0.956697 0.601949 0.588438 0.276877
C35   C     C_3   0.885974 0.577953 0.953497 -0.634037
C36   C     C_3   0.054334 0.595738 0.602094 0.133423
C37   C     C_1   0.824004 0.488982 0.499635 0.044069
C38   C     C_1   0.174988 0.496144 0.500817 0.073072
C39   C     C_1   0.250608 0.497297 0.500215 -0.141580
C40   C     C_R   0.482482 0.102629 0.771264 -0.112243
Cu1   Cu    Cu3+1 0.499990 0.499990 0.640660 0.974119
Cu2   Cu    Cu3+1 0.500010 0.500010 0.359340 1.025837
F1    F     F_    0.497262 0.886520 0.250994 -0.674354
F2    F     F_    0.402355 0.327111 0.145577 -0.656315
F3    F     F_    0.634253 0.924185 0.894725 -0.700390
F4    F     F_    0.078923 0.438232 0.259589 -0.666749
F5    F     F_    0.922482 0.617211 0.287878 -0.699669
H1    H     H_    0.920506 0.291241 0.480532 0.205091
H2    H     H_    0.064072 0.293750 0.486851 0.246709
H3    H     H_    0.616070 0.671119 0.252734 0.219335
H4    H     H_    0.654546 0.864644 0.147407 0.206049
H5    H     H_    0.413999 0.343849 0.874529 0.157198
H6    H     H_    0.073843 0.615773 0.316035 0.166817
H7    H     H_    0.927548 0.432219 0.284729 0.156364
H8    H     H_    0.069637 0.565276 0.710231 0.104305
H9    H     H_    0.732575 0.836326 0.750371 0.197040
H10   H     H_    0.635204 0.877688 0.661980 0.198864
H11   H     H_    0.673489 0.746609 0.465063 0.228875
H12   H     H_    0.065045 0.347837 0.661422 0.182218
H13   H     H_    0.746580 0.878023 0.495557 0.212444
H14   H     H_    0.774087 0.728047 0.551829 0.270567
H15   H     H_    0.192215 0.697881 0.710552 0.132438
H16   H     H_    0.103238 0.781468 0.764932 0.172804
H17   H     H_    0.146994 0.949844 0.591997 0.257953
H18   H     H_    0.230078 0.923621 0.715401 0.202856
H19   H     H_    0.235793 0.865795 0.541196 0.247683
H20   H     H_    0.960771 0.474914 0.821032 0.141348
H21   H     H_    0.848280 0.467032 0.780687 0.166418
H22   H     H_    0.828794 0.630779 0.948862 0.243503
H23   H     H_    0.919576 0.335498 0.655310 0.191216
H24   H     H_    0.874756 0.499922 0.029595 0.212461
H25   H     H_    0.940651 0.639566 0.988877 0.270518
H26   H     H_    0.948115 0.686044 0.523191 0.206522
H27   H     H_    0.510710 0.117542 0.285457 0.208016
H28   H     H_    0.513618 0.190765 0.795969 0.166675
H29   H     H_    0.451254 0.072614 0.987838 0.173495
H30   H     H_    0.385379 0.861509 0.954739 0.164928
H31   H     H_    0.388441 0.767543 0.727744 0.153497
N1    N     N_R   0.500800 0.501210 0.147910 -0.223487
N2    N     N_R   0.500820 0.501290 0.852040 -0.203799
O1    O     O_R   0.499990 0.319640 0.618810 -0.612218
O2    O     O_3   0.095732 0.713004 0.564690 -0.587903
O3    O     O_3   0.916009 0.628835 0.715185 -0.586866
O4    O     O_R   0.500000 0.319660 0.381240 -0.530959
O5    O     O_R   0.379430 0.499990 0.618840 -0.600178
O6    O     O_R   0.379440 0.500020 0.381260 -0.516424
O7    O     O_R   0.500000 0.680340 0.618760 -0.552551
O8    O     O_R   0.500010 0.680360 0.381190 -0.545208
O9    O     O_R   0.620560 0.499980 0.618740 -0.500651
O10   O     O_R   0.620570 0.500010 0.381160 -0.616537
O11   O     O_3   0.636311 0.694327 0.730962 -0.544604

loop_
_geom_bond_atom_site_label_1
_geom_bond_atom_site_label_2
_ccdc_geom_bond_type
Cu1   O9    S    
C1    C8    S    
Cu1   Cu2   S    
C17   O11   S    
C12   H1    S    
Cu1   N2    S    
C7    C8    A    
C1    O4    A    
C12   C23   S    
C31   O2    S    
C25   H6    S    
C38   C39   T    
C4    O6    A    
C1    O1    A    
C18   C19   A    
C23   C26   S    
C14   H4    S    
C36   O2    S    
C8    C9    A    
C30   H13   S    
C16   O7    A    
C7    C40   A    
Cu2   O6    S    
C9    C10   A    
C35   H24   S    
Cu2   N1    S    
C13   C14   A    
C31   H15   S    
C26   H7    S    
C20   F2    S    
Cu1   O7    S    
C13   C19   A    
C31   H16   S    
Cu2   O4    S    
C32   H17   S    
C6    C11   A    
C4    O5    A    
C25   C26   S    
C23   C37   S    
C25   C28   S    
C29   C30   S    
C11   C16   S    
C31   C32   S    
C4    C39   S    
C28   C38   S    
C23   C34   S    
Cu1   O1    S    
C17   C18   A    
C22   O10   A    
C19   N1    A    
C33   O3    S    
C35   H22   S    
C26   F5    S    
C29   H10   S    
C35   H25   S    
C22   C27   S    
Cu2   O8    S    
C9    H27   S    
C15   F3    S    
C3    H30   S    
C29   O11   S    
C2    H29   S    
C33   H20   S    
C32   H19   S    
C24   H2    S    
C15   C17   A    
C12   H23   S    
C20   N1    A    
C10   F1    S    
C24   C28   S    
C3    C5    A    
C6    C7    A    
C29   H9    S    
Cu1   O5    S    
C12   C24   S    
C40   H28   S    
C2    C3    A    
C36   H8    S    
C5    C6    A    
C27   C37   T    
C24   H12   S    
C30   H11   S    
C21   N2    A    
C33   C35   S    
C22   O9    A    
C34   C36   S    
C10   C11   A    
C34   H26   S    
C13   H3    S    
C2    C40   A    
C20   C21   A    
C28   C36   S    
C18   N2    A    
C34   O3    S    
C30   H14   S    
C16   O8    A    
C14   C15   A    
Cu2   O10   S    
C5    H31   S    
C25   F4    S    
C21   H5    S    
C33   H21   S    
C32   H18   S    
