data_mof_unit_46245.cif
_audit_creation_date              2013-03-05T16:42:22-0500
_audit_creation_method            fapswitch 2.2
_symmetry_space_group_name_H-M    P1
_symmetry_Int_Tables_number       1
_space_group_crystal_system       triclinic
_cell_length_a                    9.879378
_cell_length_b                    10.675905
_cell_length_c                    15.445416
_cell_angle_alpha                 90.844433
_cell_angle_beta                  68.361282
_cell_angle_gamma                 89.908179
_cell_volume                      1514.03719113

loop_
_atom_site_label
_atom_site_type_symbol
_atom_site_description
_atom_site_fract_x
_atom_site_fract_y
_atom_site_fract_z
_atom_type_partial_charge
O1    O     O_R   0.385310 0.683210 0.499990 -0.615976
O2    O     O_R   0.614650 0.683240 0.500000 -0.620422
C1    C     C_R   0.497820 0.740085 0.503612 0.871291
O3    O     O_R   0.319830 0.499970 0.632240 -0.625527
O4    O     O_R   0.549170 0.500000 0.632250 -0.625098
C2    C     C_R   0.409363 0.498057 0.676040 0.844123
Zn1   Zn    Zn3+2 0.346870 0.499980 0.499990 0.985967
Zn2   Zn    Zn3+2 0.653130 0.500020 0.500010 0.999885
O5    O     O_R   0.385350 0.316760 0.500000 -0.620121
O6    O     O_R   0.614690 0.316790 0.500010 -0.584481
O7    O     O_R   0.450830 0.500000 0.367750 -0.548162
O8    O     O_R   0.680170 0.500030 0.367760 -0.574331
C3    C     C_R   0.497959 0.259955 0.503509 0.913781
C4    C     C_R   0.590585 0.493412 0.323783 0.925675
C5    C     C_R   0.357473 0.469759 0.775101 -0.052067
C6    C     C_R   0.647476 0.472122 0.222056 -0.171837
C7    C     C_R   0.204471 0.346024 0.903876 -0.203873
C8    C     C_R   0.228773 0.403010 0.818670 -0.216208
C9    C     C_R   0.456213 0.485272 0.819480 -0.240849
C10   C     C_R   0.441111 0.419506 0.899769 0.093500
C11   C     C_R   0.311344 0.351553 0.943719 0.156724
C12   C     C_R   0.550885 0.421775 0.938227 0.068693
C13   C     C_R   0.517351 0.377836 0.029406 0.063749
C14   C     C_R   0.395509 0.298677 0.066694 -0.120566
C15   C     C_R   0.292966 0.286969 0.024966 -0.222719
C16   C     C_R   0.693742 0.463454 0.888128 -0.219379
C17   C     C_R   0.793570 0.477231 0.931453 -0.208568
C18   C     C_R   0.749388 0.461095 0.027326 0.131940
C19   C     C_R   0.607763 0.415401 0.078714 -0.026338
C20   C     C_R   0.842820 0.496661 0.072687 -0.208928
C21   C     C_R   0.792239 0.502013 0.169340 -0.186975
C22   C     C_R   0.556476 0.423394 0.177246 0.259387
H1    H     H_    0.198569 0.228427 0.056890 0.170646
H2    H     H_    0.864439 0.535976 0.202756 0.199688
H3    H     H_    0.902271 0.509665 0.891080 0.143901
H4    H     H_    0.105373 0.293368 0.936536 0.150627
H5    H     H_    0.151344 0.389323 0.784808 0.154294
H6    H     H_    0.547852 0.545971 0.788063 0.140430
H7    H     H_    0.380055 0.241760 0.126552 0.205766
H8    H     H_    0.732086 0.481927 0.814593 0.138469
H9    H     H_    0.952712 0.527339 0.033364 0.162299
C23   C     C_R   0.363967 0.936366 0.522540 0.105622
C24   C     C_R   0.487538 0.871628 0.520405 -0.098335
C25   C     C_R   0.598948 0.935843 0.537806 -0.209315
H10   H     H_    0.691048 0.887104 0.543970 0.171160
C26   C     C_R   0.598363 0.065478 0.538374 -0.166532
H11   H     H_    0.689138 0.114592 0.546019 0.205716
C27   C     C_R   0.487407 0.129011 0.520405 -0.108004
C28   C     C_R   0.363951 0.064229 0.522406 0.088060
C29   C     C_3   0.281196 0.069292 0.458679 -0.407603
C30   C     C_3   0.281336 0.927460 0.458803 -0.447223
H12   H     H_    0.170788 0.110873 0.493596 0.221357
H13   H     H_    0.346309 0.108042 0.389590 0.252799
H14   H     H_    0.170970 0.887586 0.493492 0.206043
H15   H     H_    0.346435 0.884494 0.389843 0.215913
C31   C     C_R   0.910796 0.602757 0.531189 0.170934
N1    N     N_R   0.856900 0.500860 0.500610 -0.167762
C32   C     C_R   0.952272 0.403046 0.460682 0.312626
C33   C     C_R   0.094561 0.402875 0.462794 -0.115727
H16   H     H_    0.166404 0.324153 0.434081 0.219065
N2    N     N_R   0.142540 0.500820 0.500610 -0.133909
C34   C     C_R   0.053163 0.602550 0.531323 0.213586
C35   C     C_3   0.003791 0.658422 0.627037 -0.508744
C36   C     C_3   0.850417 0.659558 0.626595 -0.502274
H17   H     H_    0.017826 0.593229 0.678681 0.207512
H18   H     H_    0.048230 0.753736 0.627958 0.202477
H19   H     H_    0.775771 0.595527 0.677882 0.203522
H20   H     H_    0.806764 0.755563 0.626910 0.200021
N3    N     N_R   0.911431 0.300142 0.415418 0.226737
O9    O     O_R   0.875413 0.320949 0.344037 -0.350586
O10   O     O_R   0.947855 0.186723 0.428293 -0.448966
N4    N     N_R   0.408509 0.393773 0.231892 0.194827
O11   O     O_R   0.303382 0.468944 0.234094 -0.384098
O12   O     O_R   0.379917 0.294896 0.283543 -0.457309

loop_
_geom_bond_atom_site_label_1
_geom_bond_atom_site_label_2
_geom_bond_distance
_ccdc_geom_bond_type
C5    C8    1.401182 A    
C35   H17   1.112454 S    
C9    C10   1.393776 A    
C22   N4    1.431333 S    
C6    C21   1.400169 A    
Zn1   O7    1.918218 S    
C1    C24   1.420959 S    
C16   C17   1.387943 A    
C36   H20   1.110587 S    
C18   C19   1.421340 A    
C8    H5    1.083141 S    
C19   C22   1.416837 A    
O4    C2    1.295049 A    
O7    C4    1.295846 A    
C14   H7    1.077064 S    
C31   N1    1.364613 A    
N3    O10   1.301413 A    
O5    C3    1.285164 A    
Zn1   N2    2.015146 S    
C2    C5    1.459707 S    
C29   H12   1.111407 S    
C13   C14   1.414619 A    
C31   C36   1.489707 S    
C20   H9    1.084214 S    
C7    H4    1.083916 S    
C23   C30   1.494916 S    
C35   H18   1.110856 S    
C33   H16   1.077830 S    
N3    O9    1.299150 A    
O3    Zn1   1.959945 S    
C25   C26   1.383856 A    
C29   C30   1.514209 S    
C26   C27   1.402215 A    
C33   N2    1.359036 A    
C29   H13   1.109628 S    
C36   H19   1.106969 S    
C14   C15   1.391713 A    
O3    C2    1.296970 A    
C17   H3    1.084289 S    
C32   C33   1.418083 A    
C7    C11   1.405452 A    
O1    C1    1.286206 A    
C5    C9    1.392547 A    
C24   C25   1.403163 A    
C34   C35   1.490114 S    
C9    H6    1.078037 S    
Zn2   N1    2.016591 S    
O4    Zn2   1.918218 S    
Zn2   O8    1.959942 S    
C7    C8    1.396705 A    
C21   H2    1.083260 S    
N4    O12   1.300035 A    
C27   C28   1.393703 A    
O8    C4    1.300694 A    
C31   C34   1.407271 A    
C23   C24   1.391418 A    
C13   C19   1.425663 A    
C25   H10   1.082381 S    
Zn1   O5    1.992054 S    
C11   C15   1.393207 A    
C26   H11   1.082085 S    
C4    C6    1.474464 S    
O1    Zn1   1.993266 S    
O2    Zn2   1.992054 S    
C10   C12   1.415746 A    
N4    O11   1.301668 A    
O6    C3    1.287741 A    
C3    C27   1.422811 S    
C32   N3    1.430135 S    
C6    C22   1.416919 A    
C30   H14   1.111079 S    
C18   C20   1.399037 A    
O2    C1    1.285647 A    
C16   H8    1.077920 S    
N1    C32   1.381264 A    
C20   C21   1.388807 A    
C30   H15   1.112634 S    
N2    C34   1.362736 A    
C23   C28   1.365088 A    
C35   C36   1.517791 S    
C10   C11   1.416447 A    
Zn2   O6    1.993266 S    
C28   C29   1.495018 S    
C12   C16   1.412573 A    
C17   C18   1.394279 A    
C12   C13   1.410305 A    
C15   H1    1.084090 S    
