data_mof_unit_58342.cif
_audit_creation_date              2013-03-05T16:12:38-0500
_audit_creation_method            fapswitch 2.2
_symmetry_space_group_name_H-M    P1
_symmetry_Int_Tables_number       1
_space_group_crystal_system       triclinic
_cell_length_a                    23.648521
_cell_length_b                    21.891079
_cell_length_c                    15.038277
_cell_angle_alpha                 89.228618
_cell_angle_beta                  91.067444
_cell_angle_gamma                 89.910915
_cell_volume                      7783.12113436

loop_
_atom_site_label
_atom_site_type_symbol
_atom_site_description
_atom_site_fract_x
_atom_site_fract_y
_atom_site_fract_z
_atom_type_partial_charge
O1    O     O_R   0.060270 0.439640 0.575970 -0.555080
O2    O     O_R   0.060270 0.439640 0.424030 -0.552122
O3    O     O_R   0.060270 0.560360 0.424030 -0.556397
O4    O     O_R   0.060270 0.560360 0.575970 -0.569549
O5    O     O_R   0.560270 0.939640 0.575970 -0.554116
O6    O     O_R   0.560270 0.939640 0.424030 -0.551949
O7    O     O_R   0.560270 0.060360 0.424030 -0.551338
O8    O     O_R   0.560270 0.060360 0.575970 -0.555425
C1    C     C_R   0.077506 0.417786 0.500812 0.804244
C2    C     C_R   0.078038 0.581866 0.500295 0.797581
C3    C     C_R   0.578225 0.918049 0.501054 0.799834
C4    C     C_R   0.578075 0.081814 0.500070 0.804418
O9    O     O_R   0.939710 0.439640 0.575970 -0.576026
O10   O     O_R   0.939710 0.439640 0.424030 -0.587156
O11   O     O_R   0.939710 0.560360 0.424030 -0.572426
O12   O     O_R   0.939710 0.560360 0.575970 -0.590367
O13   O     O_R   0.439710 0.939640 0.575970 -0.581724
O14   O     O_R   0.439710 0.939640 0.424030 -0.589382
O15   O     O_R   0.439710 0.060360 0.424030 -0.568417
O16   O     O_R   0.439710 0.060360 0.575970 -0.593850
C5    C     C_R   0.917580 0.423701 0.500013 0.804963
C6    C     C_R   0.919760 0.578804 0.499318 0.809084
C7    C     C_R   0.418334 0.922649 0.499162 0.805295
C8    C     C_R   0.418904 0.078210 0.499414 0.810044
Cu1   Cu    Cu3+1 0.999990 0.500000 0.589920 0.991567
Cu2   Cu    Cu3+1 0.999990 0.500000 0.410080 0.996360
Cu3   Cu    Cu3+1 0.499990 1.000000 0.589920 0.992777
Cu4   Cu    Cu3+1 0.499990 1.000000 0.410080 1.004106
C9    C     C_3   0.794129 0.254869 0.592232 -0.154777
C10   C     C_3   0.779261 0.273217 0.399461 -0.175634
C11   C     C_3   0.801646 0.755897 0.426110 -0.175672
C12   C     C_3   0.780033 0.723458 0.611673 -0.176775
C13   C     C_3   0.296961 0.756137 0.583566 -0.163713
C14   C     C_3   0.278256 0.768435 0.391114 -0.181311
C15   C     C_3   0.300098 0.253769 0.429988 -0.176463
C16   C     C_3   0.274282 0.221538 0.612719 -0.175339
C17   C     C_3   0.230738 0.711998 0.399087 0.443788
C18   C     C_3   0.244064 0.705281 0.580037 0.406532
C19   C     C_3   0.221854 0.273628 0.610343 0.445246
C20   C     C_3   0.252280 0.309910 0.442137 0.415980
C21   C     C_3   0.726319 0.220868 0.398157 0.428961
C22   C     C_3   0.749251 0.198096 0.572740 0.390101
C23   C     C_3   0.730388 0.778243 0.609460 0.450614
C24   C     C_3   0.750342 0.808255 0.435318 0.387088
C25   C     C_1   0.118484 0.631297 0.501330 -0.003773
C26   C     C_1   0.117712 0.368414 0.502475 0.038473
C27   C     C_1   0.618892 0.130862 0.500112 0.046498
C28   C     C_1   0.619609 0.869000 0.503973 0.025347
C29   C     C_3   0.782417 0.303664 0.503871 -0.163732
C30   C     C_3   0.788338 0.701205 0.504488 -0.173867
C31   C     C_3   0.283970 0.801722 0.493556 -0.177271
C32   C     C_3   0.284040 0.199000 0.505536 -0.183465
C33   C     C_3   0.198572 0.720182 0.495856 -0.353545
C34   C     C_3   0.199972 0.281947 0.505010 -0.383702
C35   C     C_3   0.699371 0.219766 0.499210 -0.350063
C36   C     C_3   0.702429 0.781907 0.506713 -0.353930
C37   C     C_3   0.169865 0.789485 0.498241 0.371942
C38   C     C_3   0.173498 0.216276 0.469876 0.335950
C39   C     C_3   0.670108 0.286365 0.519781 0.336269
C40   C     C_3   0.675980 0.713281 0.482463 0.328549
C41   C     C_3   0.720566 0.340251 0.521129 0.344844
C42   C     C_3   0.729235 0.663262 0.473133 0.340376
C43   C     C_3   0.222839 0.839116 0.511988 0.341174
C44   C     C_3   0.224802 0.163461 0.469556 0.347012
C45   C     C_1   0.153135 0.672283 0.500561 0.396996
C46   C     C_1   0.153120 0.328234 0.503497 0.404957
C47   C     C_1   0.654039 0.171436 0.499815 0.397392
C48   C     C_1   0.655355 0.828719 0.505934 0.404431
C49   C     C_1   0.828666 0.349906 0.504377 0.113503
C50   C     C_1   0.835430 0.657098 0.501783 0.125725
C51   C     C_1   0.330439 0.847581 0.493002 0.128265
C52   C     C_1   0.331222 0.153716 0.502956 0.138938
C53   C     C_1   0.868025 0.385527 0.501505 -0.157415
C54   C     C_1   0.873705 0.620741 0.498959 -0.128793
C55   C     C_1   0.369762 0.883207 0.495573 -0.152578
C56   C     C_1   0.370842 0.118496 0.499610 -0.136706
C57   C     C_3   0.988715 0.564482 0.050563 -0.177932
C58   C     C_3   0.990299 0.562995 0.943588 -0.176076
C59   C     C_3   0.961810 0.451007 0.937115 -0.192216
C60   C     C_3   0.957467 0.452111 0.044041 -0.189458
C61   C     C_3   0.476822 0.058892 0.052585 -0.177100
C62   C     C_3   0.477708 0.061600 0.945628 -0.178941
C63   C     C_3   0.473554 0.945170 0.946506 -0.177195
C64   C     C_3   0.474766 0.942369 0.053370 -0.178820
H1    H     H_    0.944000 0.563898 0.928940 0.103328
H2    H     H_    0.942920 0.567438 0.065482 0.108324
H3    H     H_    0.921632 0.483207 0.045664 0.118541
H4    H     H_    0.922021 0.473114 0.911211 0.101697
H5    H     H_    0.432223 0.053615 0.929381 0.100015
H6    H     H_    0.432240 0.046306 0.066503 0.111290
H7    H     H_    0.429831 0.953225 0.067416 0.099944
H8    H     H_    0.429659 0.960538 0.930074 0.106354
N1    N     N_1   0.000150 0.500000 0.724970 -0.169919
N2    N     N_1   0.000150 0.500000 0.275030 -0.172757
N3    N     N_1   0.500150 1.000000 0.724970 -0.176278
N4    N     N_1   0.500150 0.000000 0.275030 -0.171301
C65   C     C_3   0.004375 0.497436 0.093019 0.018348
C66   C     C_3   0.010257 0.496924 0.906218 0.036834
C67   C     C_3   0.510196 0.999357 0.093790 0.031557
C68   C     C_3   0.509876 0.002311 0.906938 0.034674
C69   C     C_3   0.073242 0.477478 0.951491 0.019370
C70   C     C_3   0.069001 0.478909 0.065858 0.020896
C71   C     C_3   0.576212 0.001701 0.944666 0.026285
C72   C     C_3   0.576475 0.995442 0.059486 0.024986
C73   C     C_1   0.005047 0.498096 0.803401 0.062238
C74   C     C_1   0.999694 0.499393 0.196098 0.070947
C75   C     C_1   0.504257 0.000760 0.803721 0.052285
C76   C     C_1   0.504537 0.000396 0.196561 0.061880
N5    N     N_R   0.263105 0.639994 0.572445 0.152121
O17   O     O_R   0.310301 0.622242 0.538649 -0.344256
O18   O     O_R   0.230008 0.596460 0.600196 -0.321736
N6    N     N_R   0.254845 0.648407 0.392336 0.164293
O19   O     O_R   0.282814 0.633938 0.322099 -0.356924
O20   O     O_R   0.225762 0.602306 0.422045 -0.291424
N7    N     N_R   0.275636 0.366518 0.484366 0.124458
O21   O     O_R   0.324763 0.387664 0.462518 -0.333476
O22   O     O_R   0.240173 0.410055 0.501484 -0.246586
N8    N     N_R   0.236327 0.335618 0.648477 0.155184
O23   O     O_R   0.264954 0.339944 0.722552 -0.364736
O24   O     O_R   0.198132 0.378386 0.642602 -0.316333
N9    N     N_R   0.778442 0.144550 0.533636 0.122141
O25   O     O_R   0.827312 0.148366 0.495784 -0.331029
O26   O     O_R   0.755268 0.090608 0.537646 -0.234053
N10   N     N_R   0.739690 0.155070 0.374276 0.170937
O27   O     O_R   0.787723 0.133673 0.348768 -0.310345
O28   O     O_R   0.698136 0.116602 0.365347 -0.334418
N11   N     N_R   0.770940 0.869409 0.467177 0.151339
O29   O     O_R   0.817543 0.878471 0.511492 -0.357307
O30   O     O_R   0.741774 0.918569 0.447647 -0.230649
N12   N     N_R   0.751903 0.840112 0.636141 0.171546
O31   O     O_R   0.780964 0.846313 0.709583 -0.369648
O32   O     O_R   0.721234 0.888024 0.616668 -0.313224
C77   C     C_R   0.857290 0.226949 0.614715 0.195964
C78   C     C_R   0.866144 0.167586 0.655584 0.009509
C79   C     C_R   0.919578 0.141302 0.669429 -0.185161
C80   C     C_R   0.967744 0.173666 0.648715 -0.056475
C81   C     C_R   0.962205 0.233357 0.618999 -0.117135
C82   C     C_R   0.908943 0.260095 0.608083 -0.237180
H9    H     H_    0.833368 0.135633 0.668732 0.217577
H10   H     H_    0.923379 0.095036 0.695295 0.161317
H11   H     H_    0.009176 0.153404 0.658757 0.198160
H12   H     H_    0.999418 0.260631 0.607529 0.199026
H13   H     H_    0.911973 0.306326 0.588590 0.114772
C83   C     C_R   0.834475 0.242156 0.362637 0.210313
C84   C     C_R   0.888046 0.242907 0.404488 -0.093156
C85   C     C_R   0.934794 0.212197 0.371052 -0.075471
C86   C     C_R   0.930124 0.182285 0.290468 -0.080523
C87   C     C_R   0.880190 0.187634 0.240885 -0.126294
C88   C     C_R   0.835024 0.221609 0.273339 -0.069914
H14   H     H_    0.896377 0.273217 0.455534 0.111176
H15   H     H_    0.975088 0.213465 0.406328 0.196172
H16   H     H_    0.965858 0.157749 0.264528 0.153472
H17   H     H_    0.876477 0.166221 0.176610 0.113662
H18   H     H_    0.798177 0.225944 0.231462 0.161819
C89   C     C_R   0.863033 0.787591 0.425735 0.150251
C90   C     C_R   0.873246 0.838714 0.368107 -0.008827
C91   C     C_R   0.926905 0.863287 0.355322 -0.186604
C92   C     C_R   0.973702 0.837213 0.397230 -0.039189
C93   C     C_R   0.966861 0.786424 0.451749 -0.095422
C94   C     C_R   0.913347 0.761779 0.465153 -0.288878
H19   H     H_    0.840284 0.863416 0.335050 0.211917
H20   H     H_    0.932035 0.903035 0.312613 0.158082
H21   H     H_    0.015073 0.856625 0.387596 0.225658
H22   H     H_    0.003046 0.765858 0.484776 0.224483
H23   H     H_    0.913313 0.725110 0.512285 0.128719
C95   C     C_R   0.832325 0.747738 0.671977 0.130065
C96   C     C_R   0.873240 0.789498 0.643365 -0.086899
C97   C     C_R   0.915529 0.813595 0.698774 -0.112347
C98   C     C_R   0.916934 0.799248 0.788835 -0.097199
C99   C     C_R   0.875650 0.761427 0.823259 -0.149170
C100  C     C_R   0.833565 0.737729 0.767247 -0.057475
H24   H     H_    0.869124 0.810327 0.581974 0.215441
H25   H     H_    0.945731 0.845815 0.672158 0.169254
H26   H     H_    0.949117 0.818538 0.832138 0.133471
H27   H     H_    0.875328 0.751413 0.893957 0.117197
H28   H     H_    0.801333 0.711949 0.800992 0.156543
C101  C     C_R   0.357316 0.723657 0.592439 0.149733
C102  C     C_R   0.367731 0.681147 0.663571 -0.033797
C103  C     C_R   0.419360 0.650646 0.674905 -0.179381
C104  C     C_R   0.464807 0.665955 0.622077 -0.044349
C105  C     C_R   0.458686 0.712328 0.558862 -0.098702
C106  C     C_R   0.406888 0.742095 0.546445 -0.278158
H29   H     H_    0.335605 0.669196 0.709587 0.182677
H30   H     H_    0.424447 0.616138 0.726692 0.137818
H31   H     H_    0.504929 0.642667 0.631180 0.197061
H32   H     H_    0.493646 0.724658 0.517107 0.208868
H33   H     H_    0.406518 0.775291 0.493878 0.131318
C107  C     C_R   0.332007 0.739548 0.342221 0.108296
C108  C     C_R   0.368599 0.696032 0.382150 -0.093181
C109  C     C_R   0.408559 0.662429 0.335894 -0.083077
C110  C     C_R   0.411069 0.667546 0.244163 -0.111292
C111  C     C_R   0.374837 0.707679 0.199425 -0.124671
C112  C     C_R   0.336253 0.742466 0.246564 -0.043914
H34   H     H_    0.359645 0.678622 0.444968 0.218840
H35   H     H_    0.434535 0.628780 0.370844 0.172467
H36   H     H_    0.440640 0.640104 0.207755 0.138124
H37   H     H_    0.375911 0.711322 0.127589 0.125278
H38   H     H_    0.307643 0.768944 0.204653 0.149793
C113  C     C_R   0.364137 0.278511 0.432405 0.154286
C114  C     C_R   0.384234 0.316003 0.360942 -0.021849
C115  C     C_R   0.436791 0.344821 0.364554 -0.168989
C116  C     C_R   0.473444 0.333549 0.435729 0.025922
C117  C     C_R   0.459784 0.288985 0.498256 -0.089256
C118  C     C_R   0.407655 0.259281 0.493377 -0.275726
H39   H     H_    0.360068 0.323729 0.301057 0.181683
H40   H     H_    0.449021 0.375888 0.311724 0.147147
H41   H     H_    0.513229 0.357658 0.440467 0.218161
H42   H     H_    0.489186 0.277837 0.552090 0.191813
H43   H     H_    0.401449 0.226514 0.545563 0.131696
C119  C     C_R   0.325136 0.251406 0.669770 0.089263
C120  C     C_R   0.354900 0.303649 0.641384 -0.068296
C121  C     C_R   0.392873 0.335849 0.695423 -0.094990
C122  C     C_R   0.399757 0.319890 0.784435 -0.108003
C123  C     C_R   0.368834 0.271640 0.818942 -0.106638
C124  C     C_R   0.331648 0.239088 0.764050 -0.053615
H44   H     H_    0.344976 0.323718 0.579836 0.198061
H45   H     H_    0.414686 0.375347 0.668958 0.162758
H46   H     H_    0.428125 0.345596 0.827005 0.130876
H47   H     H_    0.372471 0.260253 0.889117 0.119309
H48   H     H_    0.305411 0.206880 0.799229 0.136824
C125  C     C_R   0.775951 0.331273 0.330232 0.103425
C126  C     C_R   0.826311 0.366334 0.315684 -0.109851
C127  C     C_R   0.825336 0.425872 0.280989 -0.045025
C128  C     C_R   0.775619 0.450246 0.245473 -0.041343
C129  C     C_R   0.727303 0.414561 0.243966 -0.124851
C130  C     C_R   0.727221 0.356834 0.285398 -0.011493
H49   H     H_    0.867460 0.350215 0.336979 0.120711
H50   H     H_    0.863967 0.452285 0.278569 0.147340
H51   H     H_    0.775048 0.495789 0.216510 0.147428
H52   H     H_    0.688722 0.432733 0.213972 0.152383
H53   H     H_    0.686472 0.337728 0.285168 0.232128
C131  C     C_R   0.785055 0.292311 0.683028 0.090633
C132  C     C_R   0.823618 0.339616 0.708161 -0.044942
C133  C     C_R   0.812526 0.381194 0.775421 -0.060647
C134  C     C_R   0.766671 0.373133 0.829980 -0.127593
C135  C     C_R   0.729453 0.326069 0.812836 -0.120023
C136  C     C_R   0.737169 0.288461 0.739554 -0.019419
H54   H     H_    0.859908 0.351348 0.671488 0.134527
H55   H     H_    0.840461 0.419717 0.785658 0.113837
H56   H     H_    0.759386 0.404025 0.884193 0.106781
H57   H     H_    0.692285 0.320870 0.853235 0.124176
H58   H     H_    0.702302 0.259771 0.727890 0.205473
C137  C     C_R   0.768450 0.660260 0.665796 0.099734
C138  C     C_R   0.815986 0.621220 0.687548 -0.096699
C139  C     C_R   0.811133 0.566816 0.736282 -0.100808
C140  C     C_R   0.758823 0.548068 0.766196 -0.060440
C141  C     C_R   0.711511 0.583916 0.748023 -0.077774
C142  C     C_R   0.716081 0.638649 0.699632 -0.010067
H59   H     H_    0.858400 0.634008 0.669650 0.116798
H60   H     H_    0.848320 0.539363 0.751217 0.116194
H61   H     H_    0.754936 0.506044 0.804109 0.127766
H62   H     H_    0.670697 0.569373 0.771886 0.145719
H63   H     H_    0.677172 0.662064 0.690906 0.212390
C143  C     C_R   0.806396 0.724035 0.329648 0.127396
C144  C     C_R   0.856869 0.691714 0.306598 -0.067860
C145  C     C_R   0.863027 0.662005 0.225886 -0.097309
C146  C     C_R   0.819872 0.663260 0.162524 -0.132757
C147  C     C_R   0.769422 0.692038 0.181571 -0.113179
C148  C     C_R   0.762409 0.720742 0.263339 0.029387
H64   H     H_    0.892407 0.686555 0.351304 0.133355
H65   H     H_    0.901366 0.636830 0.213459 0.145111
H66   H     H_    0.824752 0.639931 0.100103 0.111667
H67   H     H_    0.734440 0.689370 0.134391 0.118837
H68   H     H_    0.719727 0.733572 0.277121 0.181471
C149  C     C_R   0.264956 0.825633 0.324111 0.100761
C150  C     C_R   0.310661 0.866167 0.303226 -0.096628
C151  C     C_R   0.304100 0.917853 0.248316 -0.076284
C152  C     C_R   0.252445 0.930472 0.207438 -0.072234
C153  C     C_R   0.207732 0.890736 0.219963 -0.102676
C154  C     C_R   0.213879 0.839312 0.275561 -0.009664
H69   H     H_    0.352662 0.857465 0.328763 0.115839
H70   H     H_    0.339078 0.948601 0.237821 0.120540
H71   H     H_    0.247341 0.970431 0.164838 0.131346
H72   H     H_    0.167752 0.899513 0.185832 0.143969
H73   H     H_    0.176948 0.811970 0.275523 0.219101
C155  C     C_R   0.305249 0.797260 0.673801 0.120697
C156  C     C_R   0.354574 0.835024 0.682919 -0.087312
C157  C     C_R   0.360126 0.880942 0.745818 -0.041356
C158  C     C_R   0.320943 0.886419 0.812125 -0.122491
C159  C     C_R   0.276863 0.845281 0.816103 -0.137342
C160  C     C_R   0.268769 0.802169 0.749160 0.016369
H74   H     H_    0.390090 0.831235 0.640438 0.133255
H75   H     H_    0.396096 0.911376 0.744399 0.143031
H76   H     H_    0.325913 0.921137 0.862227 0.093615
H77   H     H_    0.246572 0.848969 0.868944 0.129971
H78   H     H_    0.228421 0.781783 0.756436 0.223801
C161  C     C_R   0.266424 0.157535 0.667866 0.132454
C162  C     C_R   0.315863 0.120718 0.685548 -0.124465
C163  C     C_R   0.314373 0.063931 0.729134 -0.097885
C164  C     C_R   0.263966 0.041594 0.761377 -0.050364
C165  C     C_R   0.215171 0.075863 0.750032 -0.107605
C166  C     C_R   0.216150 0.132010 0.704716 -0.005452
H79   H     H_    0.357099 0.136805 0.667389 0.115272
H80   H     H_    0.352506 0.037077 0.738107 0.122816
H81   H     H_    0.262538 0.997943 0.795585 0.139382
H82   H     H_    0.175744 0.058491 0.775687 0.146680
H83   H     H_    0.175601 0.151684 0.700187 0.222723
C167  C     C_R   0.301267 0.223098 0.332982 0.094252
C168  C     C_R   0.348048 0.184853 0.310794 -0.088547
C169  C     C_R   0.348061 0.149048 0.234860 -0.042104
C170  C     C_R   0.304820 0.154526 0.171774 -0.100620
C171  C     C_R   0.260747 0.194803 0.185915 -0.117598
C172  C     C_R   0.258167 0.227188 0.265321 -0.021333
H84   H     H_    0.384795 0.180119 0.353760 0.132513
H85   H     H_    0.382255 0.117163 0.224973 0.141632
H86   H     H_    0.305417 0.127462 0.112092 0.107527
H87   H     H_    0.226577 0.198481 0.137217 0.113318
H88   H     H_    0.219329 0.250340 0.273367 0.193977
N13   N     N_R   0.191834 0.711978 0.320600 0.124290
O33   O     O_R   0.214268 0.718993 0.242746 -0.434277
O34   O     O_R   0.148884 0.674930 0.321117 -0.348181
N14   N     N_R   0.215540 0.703668 0.666734 0.074802
O35   O     O_R   0.242003 0.679233 0.735023 -0.461665
O36   O     O_R   0.161680 0.710877 0.675147 -0.359393
N15   N     N_R   0.176898 0.254702 0.671459 0.115428
O37   O     O_R   0.193079 0.245385 0.753666 -0.440606
O38   O     O_R   0.125938 0.276571 0.661438 -0.348696
N16   N     N_R   0.231767 0.335940 0.354734 0.137971
O39   O     O_R   0.268563 0.348230 0.294154 -0.401375
O40   O     O_R   0.188461 0.372721 0.351511 -0.309986
N17   N     N_R   0.683935 0.235960 0.327239 0.109547
O41   O     O_R   0.702440 0.241115 0.246773 -0.473101
O42   O     O_R   0.633191 0.213319 0.331224 -0.313425
N18   N     N_R   0.725993 0.172310 0.657749 0.107577
O43   O     O_R   0.757148 0.170615 0.729929 -0.455244
O44   O     O_R   0.685741 0.131895 0.656294 -0.325347
N19   N     N_R   0.687758 0.767170 0.678906 0.111458
O45   O     O_R   0.706327 0.751153 0.757694 -0.450979
O46   O     O_R   0.642247 0.800653 0.679018 -0.328078
N20   N     N_R   0.724474 0.825805 0.346515 0.108144
O47   O     O_R   0.757444 0.837996 0.280471 -0.432455
O48   O     O_R   0.678262 0.858057 0.342903 -0.323096
N21   N     N_R   0.724295 0.377027 0.604310 0.135237
O49   O     O_R   0.762688 0.419643 0.608085 -0.294126
O50   O     O_R   0.680189 0.388602 0.651186 -0.273381
N22   N     N_R   0.707861 0.391011 0.457434 0.152845
O51   O     O_R   0.749140 0.427091 0.435536 -0.279640
O52   O     O_R   0.660318 0.420061 0.468284 -0.191810
N23   N     N_R   0.735635 0.637812 0.382141 0.115619
O53   O     O_R   0.692131 0.626562 0.330937 -0.292169
O54   O     O_R   0.778677 0.602060 0.368665 -0.323817
N24   N     N_R   0.718901 0.604363 0.521821 0.161392
O55   O     O_R   0.675720 0.572049 0.494966 -0.151164
O56   O     O_R   0.761831 0.570361 0.545648 -0.286786
N25   N     N_R   0.225854 0.866977 0.601874 0.132602
O57   O     O_R   0.187062 0.860738 0.661231 -0.327737
O58   O     O_R   0.260870 0.912223 0.613972 -0.291192
N26   N     N_R   0.213403 0.895433 0.456092 0.173665
O59   O     O_R   0.169541 0.928743 0.474845 -0.154452
O60   O     O_R   0.256132 0.927568 0.429488 -0.291420
N27   N     N_R   0.234248 0.134353 0.381195 0.134026
O61   O     O_R   0.275527 0.095223 0.375466 -0.304053
O62   O     O_R   0.192936 0.123989 0.325564 -0.276933
N28   N     N_R   0.209630 0.107668 0.521234 0.154756
O63   O     O_R   0.249996 0.070431 0.546341 -0.275763
O64   O     O_R   0.163585 0.079555 0.495932 -0.171304
N29   N     N_R   0.124722 0.797279 0.565107 0.206175
O65   O     O_R   0.102324 0.851569 0.570429 -0.245358
O66   O     O_R   0.088643 0.753403 0.577708 -0.399684
N30   N     N_R   0.135962 0.798914 0.414610 0.078913
O67   O     O_R   0.121755 0.853342 0.387081 -0.343724
O68   O     O_R   0.097677 0.758256 0.396415 -0.393639
N31   N     N_R   0.145834 0.222111 0.380666 0.113482
O69   O     O_R   0.134395 0.275661 0.348245 -0.401489
O70   O     O_R   0.109362 0.180177 0.357818 -0.266361
N32   N     N_R   0.123676 0.202363 0.526909 0.180772
O71   O     O_R   0.077091 0.232969 0.511742 -0.365304
O72   O     O_R   0.119703 0.156899 0.582125 -0.350912
N33   N     N_R   0.637828 0.285164 0.603891 0.119231
O73   O     O_R   0.599528 0.327383 0.613899 -0.285916
O74   O     O_R   0.626040 0.233503 0.642152 -0.433038
N34   N     N_R   0.623403 0.294939 0.452130 0.169806
O75   O     O_R   0.621655 0.335694 0.389134 -0.357650
O76   O     O_R   0.578204 0.261501 0.459940 -0.373203
N35   N     N_R   0.639620 0.712915 0.401080 0.150709
O77   O     O_R   0.626224 0.762644 0.359071 -0.416704
O78   O     O_R   0.604094 0.667849 0.391077 -0.248259
N36   N     N_R   0.634078 0.698009 0.553103 0.109273
O79   O     O_R   0.593427 0.736932 0.564836 -0.377074
O80   O     O_R   0.619294 0.642294 0.571184 -0.322221
C173  C     C_R   0.922872 0.398647 0.088111 0.103819
C174  C     C_R   0.863256 0.406968 0.097356 -0.206183
C175  C     C_R   0.825708 0.357677 0.098216 -0.122195
C176  C     C_R   0.846040 0.298463 0.094900 -0.129440
C177  C     C_R   0.903967 0.288232 0.095709 -0.127902
C178  C     C_R   0.941664 0.337038 0.093298 -0.120693
H89   H     H_    0.844286 0.452022 0.093738 0.102848
H90   H     H_    0.780572 0.365674 0.096799 0.137555
H91   H     H_    0.816914 0.260591 0.089805 0.112916
H92   H     H_    0.920167 0.242202 0.091129 0.119754
H93   H     H_    0.984160 0.322927 0.087241 0.112256
C179  C     C_R   0.951555 0.389173 0.887308 0.074870
C180  C     C_R   0.902758 0.355076 0.905550 -0.131733
C181  C     C_R   0.897072 0.294229 0.880063 -0.119012
C182  C     C_R   0.938712 0.267433 0.829909 -0.132798
C183  C     C_R   0.982467 0.303364 0.797656 -0.129197
C184  C     C_R   0.986349 0.364815 0.820354 -0.099459
H94   H     H_    0.868211 0.375921 0.938816 0.147921
H95   H     H_    0.860272 0.268150 0.899112 0.145064
H96   H     H_    0.935987 0.219594 0.813955 0.150099
H97   H     H_    0.015008 0.283398 0.757776 0.178231
H98   H     H_    0.021788 0.388787 0.793252 0.165643
C185  C     C_R   0.004176 0.620875 0.885734 0.079994
C186  C     C_R   0.974946 0.628222 0.802849 -0.170823
C187  C     C_R   0.988055 0.675184 0.743116 -0.102836
C188  C     C_R   0.028320 0.718622 0.766320 -0.037702
C189  C     C_R   0.054389 0.715964 0.849826 -0.124412
C190  C     C_R   0.041938 0.668598 0.909441 -0.143362
H99   H     H_    0.941807 0.596840 0.783416 0.126358
H100  H     H_    0.965961 0.678639 0.679524 0.131994
H101  H     H_    0.037085 0.756320 0.721655 0.197374
H102  H     H_    0.083446 0.751712 0.869480 0.150805
H103  H     H_    0.059926 0.673927 0.974538 0.146335
C191  C     C_R   0.997209 0.626680 0.096947 0.065561
C192  C     C_R   0.964367 0.677087 0.064845 -0.181590
C193  C     C_R   0.964658 0.733099 0.108080 -0.142834
C194  C     C_R   0.994965 0.739538 0.187479 -0.117151
C195  C     C_R   0.025009 0.690021 0.223217 -0.080031
C196  C     C_R   0.026763 0.634518 0.178548 -0.113868
H104  H     H_    0.937217 0.672605 0.006565 0.132633
H105  H     H_    0.939765 0.770867 0.081424 0.137948
H106  H     H_    0.994082 0.782403 0.222378 0.154211
H107  H     H_    0.045996 0.694102 0.286959 0.222440
H108  H     H_    0.050770 0.598535 0.210366 0.180039
C197  C     C_R   0.475435 0.880360 0.107287 0.094967
C198  C     C_R   0.451262 0.879690 0.192941 -0.180172
C199  C     C_R   0.460706 0.831430 0.253084 -0.112552
C200  C     C_R   0.489174 0.779578 0.226419 -0.098483
C201  C     C_R   0.504600 0.774114 0.138167 -0.193921
C202  C     C_R   0.498720 0.823884 0.079523 -0.119360
H109  H     H_    0.428165 0.918620 0.215972 0.131065
H110  H     H_    0.446831 0.834499 0.320958 0.133179
H111  H     H_    0.498419 0.743159 0.273780 0.175414
H112  H     H_    0.524190 0.732343 0.116237 0.145276
H113  H     H_    0.513194 0.815588 0.014135 0.146947
C203  C     C_R   0.465138 0.883360 0.899140 0.059605
C204  C     C_R   0.420945 0.845033 0.929265 -0.148823
C205  C     C_R   0.414402 0.785745 0.897865 -0.121920
C206  C     C_R   0.449566 0.764561 0.831933 -0.129463
C207  C     C_R   0.488948 0.803602 0.793574 -0.119962
C208  C     C_R   0.495915 0.862897 0.825318 -0.143010
H114  H     H_    0.392863 0.860177 0.980623 0.124963
H115  H     H_    0.382263 0.756180 0.925200 0.131305
H116  H     H_    0.445817 0.718087 0.810234 0.138812
H117  H     H_    0.514699 0.787676 0.739770 0.190562
H118  H     H_    0.527100 0.890501 0.792940 0.179744
C209  C     C_R   0.481229 0.123400 0.891795 0.093853
C210  C     C_R   0.456521 0.125596 0.805110 -0.180914
C211  C     C_R   0.466147 0.174323 0.746402 -0.103953
C212  C     C_R   0.496229 0.225046 0.774959 -0.083853
C213  C     C_R   0.514098 0.228375 0.863343 -0.193388
C214  C     C_R   0.507199 0.178382 0.920986 -0.119636
H119  H     H_    0.431777 0.087908 0.780853 0.129362
H120  H     H_    0.450258 0.172833 0.678591 0.125298
H121  H     H_    0.503900 0.262733 0.729476 0.169051
H122  H     H_    0.535160 0.269151 0.886747 0.142692
H123  H     H_    0.522637 0.185427 0.987048 0.147793
C215  C     C_R   0.471452 0.120857 0.100684 0.062406
C216  C     C_R   0.429213 0.162231 0.069033 -0.178374
C217  C     C_R   0.424595 0.220959 0.103440 -0.134725
C218  C     C_R   0.458700 0.238157 0.175198 -0.128030
C219  C     C_R   0.496614 0.196331 0.213612 -0.107192
C220  C     C_R   0.502626 0.138124 0.177659 -0.136083
H124  H     H_    0.400958 0.149789 0.014785 0.125991
H125  H     H_    0.393689 0.252652 0.075475 0.134089
H126  H     H_    0.454885 0.283462 0.202095 0.136700
H127  H     H_    0.521772 0.209179 0.271209 0.206707
H128  H     H_    0.533122 0.108560 0.210080 0.179676
C221  C     C_R   0.110110 0.526319 0.111963 0.026088
C222  C     C_R   0.141470 0.512958 0.191997 -0.166295
C223  C     C_R   0.189456 0.546734 0.215097 -0.031807
C224  C     C_R   0.204408 0.597307 0.163687 0.004523
C225  C     C_R   0.167931 0.618324 0.096786 -0.107826
C226  C     C_R   0.120847 0.583586 0.073302 -0.155669
H129  H     H_    0.131824 0.474198 0.234317 0.202608
H130  H     H_    0.215933 0.532327 0.270978 0.224357
H131  H     H_    0.243866 0.620623 0.175357 0.204968
H132  H     H_    0.177924 0.659288 0.059188 0.152045
H133  H     H_    0.096930 0.596863 0.016895 0.162807
C227  C     C_R   0.123071 0.519130 0.912465 0.050979
C228  C     C_R   0.179770 0.514003 0.946914 -0.168500
C229  C     C_R   0.226783 0.532976 0.899470 -0.199837
C230  C     C_R   0.219713 0.558790 0.815702 0.002238
C231  C     C_R   0.165451 0.570988 0.783357 0.002933
C232  C     C_R   0.118360 0.553213 0.831524 -0.185277
H134  H     H_    0.189562 0.496650 0.011443 0.149027
H135  H     H_    0.268920 0.526435 0.927413 0.146070
H136  H     H_    0.256396 0.570535 0.777250 0.199015
H137  H     H_    0.159080 0.593688 0.719843 0.223207
H138  H     H_    0.079724 0.567024 0.800855 0.174171
C233  C     C_R   0.091222 0.410777 0.920998 0.033266
C234  C     C_R   0.064957 0.358361 0.956120 -0.114162
C235  C     C_R   0.086726 0.299461 0.949819 -0.163207
C236  C     C_R   0.138844 0.291264 0.911836 -0.076746
C237  C     C_R   0.165246 0.340950 0.871960 -0.005272
C238  C     C_R   0.139325 0.398215 0.868492 -0.146630
H139  H     H_    0.028629 0.364453 0.993370 0.162741
H140  H     H_    0.065143 0.261288 0.980515 0.134708
H141  H     H_    0.158831 0.246768 0.914107 0.155874
H142  H     H_    0.206709 0.335624 0.845720 0.223600
H143  H     H_    0.160435 0.432538 0.829324 0.193302
C239  C     C_R   0.088935 0.415524 0.111601 0.043659
C240  C     C_R   0.055934 0.379989 0.170845 -0.178584
C241  C     C_R   0.071264 0.320422 0.195817 -0.054148
C242  C     C_R   0.121875 0.295620 0.168067 -0.039836
C243  C     C_R   0.159927 0.332403 0.123885 -0.083484
C244  C     C_R   0.144096 0.391228 0.096825 -0.088239
H144  H     H_    0.015487 0.393424 0.193733 0.150021
H145  H     H_    0.042708 0.292773 0.234859 0.158198
H146  H     H_    0.132318 0.248484 0.183426 0.156834
H147  H     H_    0.200694 0.314281 0.105831 0.122262
H148  H     H_    0.174175 0.413497 0.056754 0.118307
C245  C     C_R   0.611366 0.046532 0.110854 0.034609
C246  C     C_R   0.654572 0.032714 0.176029 -0.124505
C247  C     C_R   0.699883 0.072170 0.189432 -0.052797
C248  C     C_R   0.698267 0.130383 0.152180 -0.018226
C249  C     C_R   0.649159 0.150716 0.108658 -0.054623
C250  C     C_R   0.606659 0.108674 0.087771 -0.170148
H149  H     H_    0.657711 0.989352 0.210778 0.193998
H150  H     H_    0.736541 0.057127 0.228009 0.202739
H151  H     H_    0.735025 0.159339 0.157262 0.147947
H152  H     H_    0.646645 0.196936 0.082325 0.143211
H153  H     H_    0.574722 0.122175 0.041997 0.155356
C251  C     C_R   0.612303 0.059775 0.914756 0.035019
C252  C     C_R   0.669555 0.067614 0.945351 -0.151032
C253  C     C_R   0.700759 0.119887 0.926191 -0.103477
C254  C     C_R   0.676967 0.165279 0.873210 -0.050863
C255  C     C_R   0.626550 0.153842 0.828246 -0.034832
C256  C     C_R   0.596917 0.099799 0.843908 -0.136658
H154  H     H_    0.689516 0.038098 0.992583 0.131289
H155  H     H_    0.742023 0.126567 0.956932 0.123152
H156  H     H_    0.698983 0.207793 0.864309 0.131682
H157  H     H_    0.610154 0.186767 0.781015 0.206370
H158  H     H_    0.562578 0.091152 0.799166 0.173134
C257  C     C_R   0.607354 0.948478 0.894185 0.040674
C258  C     C_R   0.600857 0.886735 0.918007 -0.166014
C259  C     C_R   0.641580 0.842915 0.898296 -0.094461
C260  C     C_R   0.690249 0.861220 0.854985 0.005829
C261  C     C_R   0.691932 0.918449 0.814369 -0.045767
C262  C     C_R   0.648340 0.959730 0.827351 -0.150951
H159  H     H_    0.569425 0.874824 0.963644 0.157702
H160  H     H_    0.638578 0.797224 0.926204 0.142711
H161  H     H_    0.726711 0.831674 0.853901 0.194260
H162  H     H_    0.728039 0.932507 0.776304 0.217885
H163  H     H_    0.651674 0.002671 0.791805 0.190382
C263  C     C_R   0.609171 0.934976 0.091453 0.031315
C264  C     C_R   0.591855 0.897054 0.162384 -0.137540
C265  C     C_R   0.617630 0.840901 0.179942 -0.018643
C266  C     C_R   0.667032 0.825000 0.138447 -0.035978
C267  C     C_R   0.693456 0.867696 0.085375 -0.098354
C268  C     C_R   0.665569 0.922133 0.063338 -0.159795
H164  H     H_    0.558522 0.908365 0.205525 0.172702
H165  H     H_    0.599134 0.809977 0.226707 0.209595
H166  H     H_    0.685813 0.780917 0.150327 0.121368
H167  H     H_    0.734001 0.857332 0.056815 0.129930
H168  H     H_    0.686975 0.949245 0.015881 0.133497

loop_
_geom_bond_atom_site_label_1
_geom_bond_atom_site_label_2
_geom_bond_distance
_ccdc_geom_bond_type
C9    C77   1.640636 S    
C139  H60   1.082747 S    
C171  H87   1.082570 S    
Cu1   N1    2.030852 S    
N29   O65   1.304448 A    
C12   C95   1.614740 S    
C9    C22   1.661069 S    
C147  H67   1.081928 S    
C197  C198  1.418845 A    
Cu3   N3    2.030852 S    
C165  C166  1.397777 A    
C199  C200  1.386510 A    
C227  C228  1.432112 A    
C43   N25   1.490956 S    
C84   C85   1.398025 A    
N21   O49   1.303866 A    
C203  C204  1.418301 A    
C40   N36   1.500953 S    
C91   C92   1.382064 A    
C252  H154  1.057835 S    
O10   C5    1.308974 A    
C213  H122  1.082615 S    
C35   C39   1.648368 S    
C82   H13   1.052783 S    
C229  H135  1.082767 S    
C225  H132  1.082433 S    
C138  C139  1.395972 A    
C40   C42   1.676654 S    
C227  C232  1.421593 A    
C141  C142  1.398843 A    
C224  H131  1.076955 S    
C231  C232  1.392856 A    
C70   C221  1.581257 S    
C108  H34   1.039481 S    
C127  C128  1.385385 A    
C255  C256  1.395485 A    
C251  C256  1.412316 A    
C50   C54   1.206076 T    
C115  H40   1.082578 S    
C37   C43   1.671301 S    
C64   H7    1.113205 S    
C37   N29   1.491294 S    
C140  C141  1.386527 A    
C194  H106  1.081662 S    
C39   N33   1.489450 S    
C230  H136  1.080917 S    
N4    C76   1.186427 T    
C1    C26   1.438061 S    
C29   C49   1.491419 S    
C139  C140  1.385082 A    
C166  H83   1.051258 S    
C31   C51   1.489661 S    
C4    C27   1.444911 S    
C254  H156  1.075117 S    
N20   O47   1.299211 A    
C245  C250  1.403163 A    
C79   C80   1.380647 A    
C18   N14   1.479081 S    
C247  H150  1.082496 S    
C138  H59   1.079714 S    
C7    C55   1.438712 S    
O6    C3    1.308313 A    
C223  C224  1.391672 A    
N24   O55   1.304156 A    
C83   C84   1.404257 A    
C61   C67   1.631651 S    
C243  C244  1.393812 A    
C141  H62   1.082837 S    
O7    Cu4   1.955578 S    
O14   C7    1.296535 A    
C149  C154  1.428944 A    
C80   H11   1.082100 S    
C32   C52   1.492783 S    
C22   C35   1.665764 S    
C151  H70   1.079791 S    
C212  H121  1.082255 S    
C238  H143  1.077447 S    
O9    C5    1.299772 A    
O2    Cu2   1.948756 S    
C224  C225  1.386359 A    
C18   N5    1.504242 S    
C184  H98   1.073404 S    
C61   H6    1.113027 S    
C58   C185  1.565971 S    
C97   C98   1.385971 A    
C10   C29   1.714397 S    
C262  H163  1.078838 S    
C63   C68   1.630611 S    
C92   C93   1.384017 A    
C256  H158  1.063748 S    
C167  C168  1.433377 A    
C11   C30   1.702566 S    
C175  C176  1.383697 A    
C241  C242  1.387132 A    
C85   C86   1.387859 A    
C216  H124  1.082784 S    
C259  H160  1.082428 S    
C11   C143  1.623731 S    
C261  H162  1.079711 S    
C127  H50   1.082844 S    
O3    Cu2   1.955578 S    
C194  C195  1.391542 A    
C13   C18   1.676476 S    
C9    C131  1.619476 S    
C248  C249  1.391907 A    
C233  C234  1.406956 A    
C69   C233  1.595779 S    
N35   O77   1.287449 A    
C26   C46   1.213219 T    
C13   C155  1.647345 S    
C19   N8    1.517426 S    
C180  C181  1.396987 A    
C129  H52   1.082986 S    
Cu4   N4    2.030993 S    
C193  C194  1.390028 A    
C44   N28   1.486819 S    
C264  H164  1.061294 S    
C30   C50   1.474317 S    
C267  H167  1.082863 S    
C128  H51   1.082553 S    
C210  C211  1.397143 A    
C22   N18   1.504384 S    
C18   C33   1.674334 S    
C126  H49   1.076227 S    
N26   O59   1.304333 A    
C15   C20   1.682844 S    
C87   C88   1.399636 A    
N8    O24   1.300913 A    
N9    O26   1.303721 A    
C181  C182  1.385782 A    
C195  H107  1.076046 S    
C121  C122  1.385454 A    
C237  C238  1.394497 A    
C137  C142  1.426633 A    
C121  H45   1.082556 S    
C89   C90   1.429816 A    
C207  H117  1.082760 S    
C189  H102  1.082724 S    
N36   O79   1.299679 A    
C124  H48   1.079588 S    
C91   H20   1.082827 S    
C112  H38   1.078903 S    
C132  C133  1.397947 A    
C169  H85   1.081081 S    
C156  H74   1.068472 S    
C109  C110  1.384896 A    
C60   C65   1.658370 S    
C134  H56   1.082302 S    
C86   C87   1.388705 A    
C19   N15   1.474519 S    
N6    O20   1.300998 A    
C102  C103  1.397211 A    
C15   C113  1.609080 S    
C208  H118  1.073767 S    
C9    C29   1.711897 S    
C218  C219  1.392799 A    
C234  C235  1.392669 A    
C67   C76   1.554230 S    
C14   C31   1.716191 S    
C125  C126  1.436424 A    
C62   H5    1.113203 S    
C153  H72   1.083046 S    
C143  C148  1.430093 A    
C164  C165  1.382031 A    
C222  H129  1.080966 S    
N5    O18   1.303364 A    
C267  C268  1.394160 A    
C19   C34   1.664775 S    
C99   C100  1.396880 A    
N7    O21   1.297597 A    
C5    C53   1.440727 S    
N14   O35   1.300989 A    
C146  C147  1.384768 A    
C232  H138  1.057670 S    
C175  H90   1.081179 S    
N16   O40   1.301540 A    
O5    Cu3   1.958280 S    
C173  C178  1.420042 A    
O6    Cu4   1.948756 S    
C230  C231  1.388086 A    
C197  C202  1.423517 A    
C10   C21   1.698632 S    
C57   C65   1.631944 S    
C237  H142  1.070539 S    
C33   C45   1.504469 S    
C168  H84   1.077222 S    
C84   H14   1.037718 S    
C16   C32   1.711630 S    
C17   C33   1.666227 S    
C120  H44   1.041826 S    
C38   N32   1.499432 S    
C156  C157  1.394181 A    
C221  C222  1.428532 A    
N30   O67   1.297772 A    
C163  C164  1.382811 A    
C140  H61   1.080699 S    
N13   O34   1.300837 A    
C38   C44   1.674762 S    
O7    C4    1.304849 A    
C39   C41   1.679269 S    
C81   H12   1.079458 S    
C215  C216  1.418638 A    
C13   C101  1.596185 S    
O13   Cu3   1.955578 S    
C69   C70   1.725380 S    
O14   Cu4   1.957458 S    
C159  C160  1.399908 A    
C178  H93   1.056815 S    
C78   H9    1.064351 S    
N19   O46   1.301262 A    
C142  H63   1.057747 S    
N18   O43   1.300567 A    
Cu1   Cu2   2.704482 S    
C36   C48   1.511699 S    
C135  H57   1.083031 S    
N11   O30   1.304509 A    
C179  C184  1.420955 A    
C182  H96   1.079288 S    
N12   O31   1.298682 A    
C63   C64   1.607114 S    
C70   C239  1.606519 S    
O8    C4    1.305671 A    
C2    C25   1.445390 S    
C228  C229  1.393061 A    
C217  C218  1.391475 A    
O15   Cu4   1.958277 S    
C92   H21   1.078741 S    
C109  H35   1.082742 S    
C58   H1    1.112890 S    
C90   H19   1.060283 S    
N17   O41   1.297971 A    
C20   C34   1.682014 S    
C116  H41   1.081137 S    
C25   C45   1.216136 T    
C220  H128  1.074064 S    
C60   C173  1.575009 S    
C6    C54   1.423236 S    
C41   N22   1.483945 S    
C247  C248  1.385306 A    
C174  C175  1.398561 A    
C71   C72   1.730192 S    
C20   N16   1.497620 S    
C200  C201  1.389574 A    
N10   O28   1.301371 A    
C103  H30   1.082592 S    
C243  H147  1.082588 S    
C15   C167  1.614775 S    
C190  H103  1.068006 S    
C192  H104  1.082380 S    
C154  H73   1.059541 S    
C16   C19   1.682729 S    
C65   C70   1.640994 S    
C80   C81   1.380525 A    
C43   N26   1.496847 S    
C107  C112  1.444449 A    
C240  C241  1.397536 A    
C78   C79   1.398536 A    
C34   C46   1.499932 S    
C100  H28   1.079391 S    
C157  H75   1.081637 S    
C122  H46   1.082320 S    
C246  C247  1.390817 A    
C249  H152  1.082688 S    
C176  H91   1.081270 S    
C244  H148  1.056365 S    
C131  C136  1.430509 A    
C174  H89   1.083163 S    
C12   C23   1.676568 S    
N34   O76   1.302672 A    
C167  C172  1.428576 A    
C72   C263  1.595892 S    
C203  C208  1.416103 A    
C213  C214  1.398577 A    
C242  H146  1.081549 S    
C155  C156  1.436306 A    
N18   O44   1.300655 A    
N28   O63   1.301602 A    
C261  C262  1.388098 A    
C161  C166  1.432167 A    
C21   N17   1.483510 S    
C248  H151  1.078817 S    
C153  C154  1.398954 A    
O2    C1    1.302020 A    
C202  H113  1.065003 S    
C204  C205  1.394911 A    
C22   N9    1.492497 S    
N33   O74   1.295059 A    
C200  H111  1.081220 S    
Cu2   N2    2.030993 S    
C180  H94   1.070606 S    
C24   N11   1.506515 S    
C114  H39   1.068951 S    
C14   C17   1.675968 S    
C233  C238  1.425309 A    
C14   C149  1.623278 S    
C264  C265  1.391133 A    
N22   O51   1.300990 A    
C128  C129  1.385132 A    
C3    C28   1.451375 S    
C134  C135  1.379904 A    
C226  H133  1.048291 S    
C132  H54   1.058842 S    
C240  H144  1.064897 S    
C24   N20   1.503417 S    
C130  H53   1.051057 S    
C210  H119  1.076022 S    
C260  C261  1.387319 A    
N20   O48   1.300042 A    
C205  C206  1.389796 A    
C21   N10   1.523285 S    
O5    C3    1.305558 A    
C181  H95   1.082487 S    
C249  C250  1.398117 A    
N24   O56   1.300024 A    
C20   N7    1.501416 S    
C198  C199  1.396444 A    
C137  C138  1.441146 A    
C10   C83   1.583753 S    
C207  C208  1.397981 A    
C111  H37   1.082924 S    
C263  C264  1.410018 A    
C115  C116  1.384028 A    
C266  H166  1.073090 S    
N32   O71   1.303394 A    
C21   C35   1.658683 S    
C23   N19   1.482869 S    
C144  H64   1.071283 S    
C165  H82   1.083220 S    
O11   C6    1.303495 A    
C185  C186  1.421082 A    
C44   N27   1.501677 S    
N7    O22   1.300061 A    
C118  H43   1.068359 S    
N31   O69   1.289876 A    
C265  H165  1.069470 S    
C49   C53   1.216198 T    
N25   O58   1.304470 A    
C102  H29   1.067641 S    
C64   C197  1.571672 S    
C99   H27   1.082825 S    
C8    C56   1.437610 S    
C67   C72   1.661652 S    
C77   C82   1.426153 A    
N29   O66   1.300067 A    
C206  C207  1.392760 A    
C235  C236  1.380531 A    
C59   H4    1.118565 S    
O4    Cu1   1.957458 S    
C10   C125  1.632862 S    
C72   C245  1.590842 S    
N21   O50   1.296314 A    
C79   H10   1.083042 S    
C29   C41   1.692461 S    
C146  H66   1.082618 S    
C105  H32   1.079883 S    
C31   C43   1.689427 S    
C183  C184  1.395043 A    
N22   O52   1.304822 A    
C148  H68   1.071987 S    
C116  C117  1.388460 A    
C223  H130  1.081847 S    
C96   C97   1.398265 A    
C33   C37   1.662227 S    
C219  C220  1.398926 A    
C201  C202  1.397577 A    
C236  H141  1.081885 S    
C68   C71   1.658200 S    
C110  C111  1.385260 A    
C110  H36   1.082342 S    
N12   O32   1.301279 A    
C88   H18   1.068913 S    
C266  C267  1.378888 A    
C24   C36   1.673307 S    
C93   C94   1.393525 A    
C122  C123  1.386169 A    
C169  C170  1.385816 A    
C221  C226  1.400339 A    
N26   O60   1.298326 A    
O1    C1    1.305222 A    
O13   C7    1.310895 A    
C162  H79   1.076096 S    
C28   C48   1.220277 T    
C101  C106  1.428210 A    
N9    O25   1.300062 A    
C172  H88   1.058021 S    
N3    C75   1.186794 T    
C63   C203  1.548969 S    
C65   C74   1.557291 S    
C235  H140  1.082420 S    
C215  C220  1.416771 A    
C32   C44   1.687320 S    
C77   C78   1.443317 A    
C186  H99   1.081690 S    
N36   O80   1.296022 A    
N11   O29   1.294191 A    
C250  H153  1.051697 S    
C104  C105  1.386957 A    
C209  C210  1.418771 A    
C40   N35   1.482659 S    
C38   N31   1.485445 S    
C117  H42   1.082410 S    
C239  C240  1.420243 A    
C90   C91   1.394629 A    
O12   C6    1.296523 A    
C193  H105  1.082392 S    
C177  C178  1.393104 A    
C64   C67   1.622505 S    
C253  H155  1.082964 S    
C170  C171  1.385423 A    
C41   N21   1.497958 S    
C179  C180  1.404649 A    
C183  H97   1.079859 S    
C11   C89   1.610019 S    
C182  C183  1.391259 A    
N27   O62   1.296603 A    
C96   H24   1.027077 S    
O16   Cu3   1.948753 S    
C13   C31   1.693987 S    
C66   C69   1.678028 S    
N34   O75   1.292596 A    
C228  H134  1.058788 S    
C150  H69   1.074049 S    
C151  C152  1.383056 A    
C136  H58   1.050838 S    
O15   C8    1.308456 A    
C158  C159  1.380218 A    
N19   O45   1.299456 A    
N5    O17   1.296203 A    
C111  C112  1.396951 A    
C170  H86   1.082364 S    
C125  C130  1.433380 A    
C131  C132  1.430928 A    
N14   O36   1.291966 A    
C185  C190  1.420235 A    
C108  C109  1.397900 A    
C113  C114  1.432109 A    
C103  C104  1.387200 A    
C36   C40   1.670415 S    
C152  C153  1.384219 A    
C101  C102  1.426046 A    
C147  C148  1.400875 A    
C15   C32   1.689166 S    
O8    Cu3   1.957458 S    
C188  C189  1.389080 A    
C16   C161  1.631144 S    
C214  H123  1.065282 S    
C119  C124  1.445010 A    
C234  H139  1.043654 S    
C117  C118  1.395822 A    
C255  H157  1.072116 S    
O12   Cu1   1.948753 S    
C98   C99   1.384353 A    
C59   C66   1.596788 S    
C246  H149  1.079169 S    
C52   C56   1.214658 T    
C176  C177  1.387540 A    
N30   O68   1.298705 A    
C61   C62   1.609270 S    
C206  H116  1.075874 S    
N13   O33   1.301663 A    
C135  C136  1.398937 A    
C63   H8    1.113078 S    
C241  H145  1.083329 S    
C242  C243  1.381937 A    
C143  C144  1.436971 A    
C66   C73   1.548668 S    
C201  H112  1.082604 S    
C69   C227  1.605950 S    
C265  C266  1.381010 A    
C173  C174  1.430849 A    
N33   O73   1.305149 A    
C60   H3    1.087004 S    
C123  H47   1.082914 S    
C187  H100  1.082847 S    
C155  C160  1.442050 A    
C211  H120  1.081116 S    
C105  C106  1.394861 A    
C245  C246  1.431736 A    
C37   N30   1.490645 S    
N8    O23   1.297361 A    
C17   N6    1.508858 S    
C133  H55   1.082923 S    
N1    C73   1.183159 T    
N23   O53   1.299374 A    
C114  C115  1.395200 A    
N17   O42   1.301183 A    
C152  H71   1.082521 S    
C58   C66   1.631025 S    
C189  C190  1.396890 A    
C61   C215  1.551988 S    
C160  H78   1.060889 S    
C71   C257  1.586858 S    
C149  C150  1.436101 A    
C57   C58   1.610624 S    
C205  H115  1.082364 S    
C145  H65   1.080833 S    
C212  C213  1.390071 A    
C95   C100  1.446189 A    
O1    Cu1   1.958280 S    
N31   O70   1.305602 A    
O9    Cu1   1.955578 S    
C263  C268  1.435150 A    
C219  H127  1.082206 S    
C27   C47   1.217435 T    
N6    O19   1.299185 A    
C198  H109  1.076154 S    
N35   O78   1.305209 A    
C97   H25   1.082790 S    
N15   O38   1.301414 A    
C11   C24   1.676636 S    
C199  H110  1.080867 S    
C164  H81   1.079990 S    
C171  C172  1.399142 A    
O16   C8    1.298608 A    
C258  C259  1.396767 A    
C104  H31   1.081981 S    
C239  C244  1.430292 A    
C168  C169  1.393723 A    
C123  C124  1.397598 A    
O11   Cu2   1.958277 S    
C225  C226  1.392134 A    
C94   H23   1.063689 S    
C229  C230  1.380908 A    
O10   Cu2   1.957458 S    
C85   H15   1.082515 S    
C107  C108  1.406962 A    
C217  H125  1.082376 S    
C98   H26   1.082377 S    
C120  C121  1.397816 A    
N16   O39   1.297392 A    
C163  H80   1.081054 S    
C62   C209  1.570336 S    
C133  C134  1.382063 A    
C258  H159  1.051817 S    
C192  C193  1.395563 A    
C71   C251  1.596642 S    
C209  C214  1.423044 A    
C145  C146  1.383183 A    
C259  C260  1.389907 A    
C158  H76   1.082378 S    
C129  C130  1.401442 A    
C231  H137  1.078684 S    
C157  C158  1.380081 A    
C257  C262  1.428518 A    
C14   C107  1.612793 S    
C59   C179  1.572786 S    
C42   N24   1.496827 S    
C12   C30   1.704908 S    
C191  C196  1.413454 A    
C42   N23   1.494559 S    
N23   O54   1.303532 A    
C57   H2    1.112035 S    
C211  C212  1.388292 A    
N28   O64   1.304672 A    
C12   C137  1.621936 S    
C95   C96   1.401686 A    
C30   C42   1.689802 S    
C59   C60   1.613675 S    
O4    C2    1.302811 A    
C144  C145  1.394620 A    
C196  H108  1.072429 S    
C195  C196  1.397167 A    
C34   C38   1.657950 S    
C186  C187  1.395136 A    
C236  C237  1.389599 A    
N2    C74   1.187106 T    
C68   C75   1.556244 S    
C83   C88   1.422225 A    
C89   C94   1.431461 A    
C93   H22   1.076373 S    
C62   C68   1.623436 S    
C23   N12   1.504441 S    
C159  H77   1.083453 S    
C39   N34   1.497503 S    
C35   C47   1.507409 S    
C204  H114  1.082939 S    
C268  H168  1.058689 S    
C81   C82   1.394083 A    
C113  C118  1.424845 A    
C57   C191  1.549851 S    
C188  H101  1.079778 S    
C17   N13   1.482935 S    
C162  C163  1.398329 A    
C254  C255  1.384529 A    
C86   H16   1.082277 S    
N15   O37   1.300644 A    
O3    C2    1.307959 A    
C257  C258  1.403025 A    
C51   C55   1.214984 T    
N27   O61   1.302550 A    
C191  C192  1.422286 A    
C218  H126  1.080377 S    
C216  C217  1.397154 A    
C187  C188  1.389985 A    
C106  H33   1.066463 S    
C126  C127  1.397367 A    
N32   O72   1.292191 A    
C222  C223  1.396416 A    
C150  C151  1.398458 A    
C177  H92   1.080982 S    
C161  C162  1.437672 A    
C23   C36   1.670184 S    
C260  H161  1.077568 S    
C251  C252  1.433149 A    
C119  C120  1.409305 A    
C87   H17   1.082083 S    
Cu3   Cu4   2.704482 S    
C253  C254  1.378046 A    
N25   O57   1.297937 A    
C252  C253  1.392376 A    
C16   C119  1.609042 S    
N10   O27   1.294692 A    
