data_mof_unit_32422.cif
_audit_creation_date              2012-12-11T15:29:44-0500
_audit_creation_method            fapswitch 2.2
_symmetry_space_group_name_H-M    P1
_symmetry_Int_Tables_number       1
_space_group_crystal_system       triclinic
_cell_length_a                    21.47763
_cell_length_b                    7.239672
_cell_length_c                    14.707333
_cell_angle_alpha                 89.963988
_cell_angle_beta                  74.256736
_cell_angle_gamma                 89.983477
_cell_volume                      2201.07083852

loop_
_atom_site_label
_atom_site_type_symbol
_atom_type_description
_atom_site_fract_x
_atom_site_fract_y
_atom_site_fract_z
_atom_type_partial_charge
O1    O     O_R   0.464160 0.506670 0.130070 -0.536462
O2    O     O_R   0.535840 0.006670 0.869930 -0.534424
O3    O     O_R   0.589710 0.179080 0.006710 -0.549038
O4    O     O_R   0.410290 0.679080 0.993290 -0.548901
C1    C     C_R   0.616074 0.344779 0.002210 0.673605
C2    C     C_R   0.383669 0.844693 0.999272 0.680900
O5    O     O_R   0.467940 0.177220 0.138010 -0.535361
O6    O     O_R   0.532060 0.677220 0.861990 -0.536601
O7    O     O_R   0.413200 0.002810 0.002170 -0.540011
O8    O     O_R   0.586800 0.502810 0.997830 -0.538648
C3    C     C_R   0.455949 0.345385 0.174734 0.712000
C4    C     C_R   0.544143 0.845379 0.825298 0.712473
O9    O     O_3   0.482180 0.337850 0.955280 -0.376766
O10   O     O_3   0.517820 0.837850 0.044720 -0.376810
V1    V     V_3+5 0.503310 0.064600 0.008300 1.395744
V2    V     V_3+5 0.496690 0.564600 0.991700 1.391699
C5    C     C_R   0.569981 0.852133 0.722064 -0.070592
C6    C     C_R   0.430147 0.352325 0.277981 -0.069692
C7    C     C_R   0.928811 0.861699 0.277258 -0.023663
C8    C     C_R   0.071473 0.361421 0.722725 -0.021591
C9    C     C_R   0.557443 0.854128 0.561953 0.156111
C10   C     C_R   0.442792 0.354658 0.438065 0.155813
C11   C     C_R   0.529270 0.856689 0.661199 0.157602
C12   C     C_R   0.470897 0.359305 0.338760 0.158809
C13   C     C_R   0.636988 0.845927 0.685721 -0.271135
C14   C     C_R   0.363160 0.344083 0.314449 -0.276199
C15   C     C_R   0.666795 0.837966 0.587754 0.065358
C16   C     C_R   0.333460 0.335831 0.412434 0.066855
C17   C     C_R   0.626096 0.843033 0.525783 0.092844
C18   C     C_R   0.374158 0.342305 0.474366 0.093707
C19   C     C_R   0.735914 0.827457 0.549628 0.041095
C20   C     C_R   0.264403 0.323488 0.450614 0.042635
C21   C     C_R   0.763449 0.831880 0.449917 0.056771
C22   C     C_R   0.236848 0.330513 0.550239 0.058180
C23   C     C_R   0.721247 0.830794 0.391366 -0.182415
C24   C     C_R   0.278963 0.329262 0.608860 -0.186426
C25   C     C_R   0.654848 0.836162 0.428126 -0.195251
C26   C     C_R   0.345397 0.335167 0.572093 -0.194740
C27   C     C_R   0.778232 0.809522 0.607934 -0.194427
C28   C     C_R   0.222206 0.299861 0.392538 -0.198833
C29   C     C_R   0.845540 0.807832 0.571402 0.139836
C30   C     C_R   0.154913 0.294485 0.429271 0.143800
C31   C     C_R   0.873130 0.826961 0.473213 0.121284
C32   C     C_R   0.127229 0.317422 0.527237 0.121206
C33   C     C_R   0.832218 0.836383 0.411637 0.045170
C34   C     C_R   0.168111 0.335142 0.588470 0.044957
C35   C     C_R   0.941050 0.835572 0.434870 -0.159202
C36   C     C_R   0.059278 0.321245 0.565743 -0.160368
C37   C     C_R   0.968423 0.853293 0.337929 -0.187442
C38   C     C_R   0.031869 0.342098 0.662502 -0.186876
C39   C     C_R   0.861830 0.852511 0.313383 -0.201915
C40   C     C_R   0.138547 0.359130 0.686314 -0.200110
H1    H     H_    0.626531 0.835423 0.377555 0.132193
H2    H     H_    0.373717 0.334578 0.622657 0.132545
H3    H     H_    0.664383 0.848355 0.737105 0.109034
H4    H     H_    0.335608 0.346045 0.263232 0.109899
H5    H     H_    0.737552 0.822792 0.315677 0.113112
H6    H     H_    0.262371 0.318630 0.684526 0.114837
H7    H     H_    0.760332 0.792887 0.683139 0.124570
H8    H     H_    0.240295 0.279831 0.317534 0.120947
H9    H     H_    0.973798 0.829195 0.479156 0.132836
H10   H     H_    0.026524 0.307675 0.521776 0.132918
C41   C     C_3   0.231501 0.777781 0.907629 0.053122
C42   C     C_3   0.769727 0.247968 0.086208 0.039020
H11   H     H_    0.224963 0.870251 0.850279 0.122183
H12   H     H_    0.765378 0.336314 0.149755 0.131303
C43   C     C_3   0.304171 0.786761 0.906475 -0.390844
C44   C     C_3   0.700074 0.223219 0.076534 -0.377201
H13   H     H_    0.329360 0.884816 0.850271 0.130953
H14   H     H_    0.664956 0.252448 0.145864 0.125888
H15   H     H_    0.328614 0.650875 0.887683 0.155249
H16   H     H_    0.692071 0.077180 0.058676 0.161308
H17   H     H_    0.283376 0.576334 0.059271 0.149683
H18   H     H_    0.715505 0.138960 0.892725 0.137164
C45   C     C_3   0.196809 0.751337 0.092568 0.018103
C46   C     C_3   0.804074 0.285648 0.901186 0.028753
C47   C     C_3   0.213618 0.057033 0.011894 -0.441975
C48   C     C_3   0.782426 0.557400 0.009680 -0.439864
C49   C     C_3   0.187111 0.857715 0.003681 0.078326
C50   C     C_3   0.812453 0.358569 0.998639 0.084845
H19   H     H_    0.183281 0.128769 0.075525 0.155620
H20   H     H_    0.806792 0.644687 0.947962 0.156095
H21   H     H_    0.211182 0.141132 0.949577 0.155968
H22   H     H_    0.790068 0.626410 0.073427 0.152166
C51   C     C_3   0.312238 0.852144 0.002800 0.068534
C52   C     C_3   0.687384 0.352948 0.999179 0.062248
C53   C     C_3   0.270696 0.721608 0.081978 0.027464
C54   C     C_3   0.730745 0.283452 0.901806 0.027662
C55   C     C_3   0.284443 0.052164 0.018146 -0.340162
C56   C     C_3   0.708949 0.551477 0.018409 -0.331599
H23   H     H_    0.286799 0.106336 0.087808 0.149186
H24   H     H_    0.697471 0.653633 0.968869 0.159697
H25   H     H_    0.177603 0.844047 0.154411 0.139838
H26   H     H_    0.830351 0.386559 0.846931 0.131507
O11   O     O_R   0.913210 0.208550 0.002110 -0.529448
O12   O     O_R   0.086790 0.708550 0.997890 -0.530767
O13   O     O_R   0.032060 0.539960 0.861980 -0.538759
O14   O     O_R   0.967940 0.039960 0.138020 -0.538718
C57   C     C_R   0.043548 0.372294 0.825035 0.681281
C58   C     C_R   0.956687 0.872199 0.174965 0.683005
O15   O     O_R   0.910290 0.538020 0.993280 -0.546857
O16   O     O_R   0.089710 0.038020 0.006720 -0.546871
O17   O     O_R   0.964160 0.712340 0.130090 -0.534615
O18   O     O_R   0.035840 0.212340 0.869910 -0.534719
C59   C     C_R   0.883823 0.369384 0.998400 0.666990
C60   C     C_R   0.115951 0.869135 0.002809 0.667496
O19   O     O_3   0.017820 0.379210 0.044690 -0.373845
O20   O     O_3   0.982180 0.879210 0.955310 -0.373516
V3    V     V_3+5 0.996690 0.652500 0.991710 1.393101
V4    V     V_3+5 0.003310 0.152500 0.008290 1.391938
C61   C     C_3   0.216125 0.582552 0.878301 -0.808484
H27   H     H_    0.246250 0.556054 0.805257 0.195929
H28   H     H_    0.229195 0.475124 0.923381 0.207343
H29   H     H_    0.165418 0.566913 0.876299 0.228629
C62   C     C_3   0.796502 0.064340 0.112650 -0.776787
H30   H     H_    0.758222 0.990044 0.166125 0.186303
H31   H     H_    0.836233 0.091622 0.145725 0.212914
H32   H     H_    0.814334 0.971781 0.051711 0.228837
C63   C     C_3   0.157728 0.571605 0.121212 -0.789810
H33   H     H_    0.174091 0.498323 0.176838 0.200359
H34   H     H_    0.105708 0.603994 0.151940 0.214202
H35   H     H_    0.162249 0.475345 0.061795 0.230688
C64   C     C_3   0.835725 0.098859 0.865512 -0.835986
H36   H     H_    0.832721 0.077049 0.792073 0.210717
H37   H     H_    0.887773 0.095745 0.862368 0.234653
H38   H     H_    0.809935 0.982001 0.907779 0.209696
H39   H     H_    0.313960 0.146868 0.963577 0.154229
H40   H     H_    0.681716 0.595099 0.090867 0.144515
H41   H     H_    0.834579 0.859362 0.262147 0.093014
H42   H     H_    0.166010 0.377755 0.736785 0.092961
C65   C     C_3   0.285759 0.744486 0.178361 -0.836108
H43   H     H_    0.254976 0.650324 0.231529 0.220914
H44   H     H_    0.336793 0.708119 0.173127 0.220863
H45   H     H_    0.276638 0.888013 0.205048 0.213484
C66   C     C_3   0.720271 0.391478 0.816624 -0.826683
H46   H     H_    0.749531 0.328100 0.749897 0.222233
H47   H     H_    0.668813 0.386445 0.815612 0.216058
H48   H     H_    0.735310 0.537903 0.817612 0.207420
H49   H     H_    0.020571 0.858748 0.310145 0.102385
H50   H     H_    0.979696 0.342028 0.690495 0.104871
C67   C     C_3   0.886897 0.784455 0.639137 -0.815456
H51   H     H_    0.918403 0.661121 0.619142 0.212519
H52   H     H_    0.917242 0.909260 0.637440 0.212325
H53   H     H_    0.857402 0.763969 0.713160 0.204596
C68   C     C_3   0.113685 0.263267 0.362020 -0.813722
H54   H     H_    0.082854 0.139209 0.383980 0.210281
H55   H     H_    0.082680 0.385937 0.361752 0.214124
H56   H     H_    0.143289 0.239296 0.288407 0.199412
C69   C     C_3   0.515309 0.863501 0.493797 -0.813579
H57   H     H_    0.462825 0.874875 0.527787 0.228690
H58   H     H_    0.529048 0.985646 0.447071 0.216515
H59   H     H_    0.522409 0.737530 0.449420 0.216002
C70   C     C_3   0.484967 0.363069 0.506171 -0.814094
H60   H     H_    0.537478 0.373103 0.472132 0.228579
H61   H     H_    0.471486 0.485313 0.552797 0.216589
H62   H     H_    0.477604 0.237106 0.550678 0.216028
C71   C     C_3   0.456431 0.864140 0.701692 -0.803304
H63   H     H_    0.437104 0.992930 0.678655 0.206153
H64   H     H_    0.433807 0.742043 0.677913 0.209170
H65   H     H_    0.440946 0.863586 0.779779 0.183219
C72   C     C_3   0.543685 0.372156 0.298145 -0.802969
H66   H     H_    0.567272 0.249461 0.319710 0.207238
H67   H     H_    0.559226 0.378244 0.220051 0.182347
H68   H     H_    0.562054 0.500002 0.323484 0.206597

loop_
_geom_bond_atom_site_label_1
_geom_bond_atom_site_label_2
_ccdc_geom_bond_type
C66   H48   S    
C7    C58   S    
C41   H11   S    
C3    C6    S    
C71   H63   S    
O14   V4    S    
C15   C17   A    
C21   C33   A    
C61   H27   S    
O1    C3    A    
C65   H45   S    
O2    C4    A    
C68   H56   S    
C2    O7    A    
C72   H66   S    
C39   H41   S    
C66   H46   S    
C27   C29   A    
C41   C49   S    
C48   C56   S    
O5    C3    A    
C47   C55   S    
C5    C11   A    
C2    C51   S    
C6    C12   A    
C42   C44   S    
C23   C25   A    
C24   H6    S    
C69   H58   S    
C38   H50   S    
C64   H37   S    
C33   C39   A    
O15   V3    S    
C62   H30   S    
C34   C40   A    
C44   C52   S    
O20   V3    S    
C18   C26   A    
C53   C65   S    
C48   H20   S    
H17   C53   S    
C8    C38   A    
O11   C59   A    
C72   H67   S    
C36   H10   S    
C12   C72   S    
C16   C18   A    
C62   H31   S    
C6    C14   A    
C4    C5    S    
C19   C21   A    
C22   C34   A    
C9    C69   S    
C55   H23   S    
C46   C54   S    
C22   C24   A    
C44   H16   S    
C64   H36   S    
C25   H1    S    
C36   C38   A    
C57   O18   A    
O6    V2    S    
C42   C62   S    
C42   C50   S    
C30   C32   A    
C68   H55   S    
C32   C34   A    
C68   H54   S    
C63   H34   S    
C9    C11   A    
O15   C59   A    
C41   C43   S    
C43   C51   S    
C51   C53   S    
C15   C19   A    
C13   H3    S    
C47   H21   S    
C16   C20   A    
C45   C63   S    
C35   C37   A    
C52   C56   S    
C69   H59   S    
C51   C55   S    
C64   H38   S    
O3    C1    A    
C9    C17   A    
C50   C59   S    
C58   O17   A    
C49   C60   S    
C43   H13   S    
C42   H12   S    
O4    V2    S    
C29   C67   S    
C48   H22   S    
O13   V3    S    
C7    C37   A    
C56   H24   S    
C26   H2    S    
C47   H19   S    
O6    C4    A    
C62   H32   S    
C27   H7    S    
C47   C49   S    
C61   H28   S    
O1    V2    S    
C70   H62   S    
O2    V1    S    
C31   C33   A    
C1    C52   S    
C45   C53   S    
C71   H65   S    
O14   C58   A    
C37   H49   S    
O19   V4    S    
C10   C12   A    
O16   V4    S    
O4    C2    A    
C70   H61   S    
C65   H43   S    
C48   C50   S    
C72   H68   S    
O3    V1    S    
C45   H25   S    
C55   H39   S    
C63   H35   S    
C66   H47   S    
O12   C60   A    
O13   C57   A    
C10   C18   A    
C46   C64   S    
C29   C31   A    
C46   C50   S    
C54   C66   S    
C28   C30   A    
C65   H44   S    
O11   V4    S    
C14   H4    S    
C35   H9    S    
C63   H33   S    
C67   H53   S    
C46   H26   S    
C13   C15   A    
O12   V3    S    
C14   C16   A    
O17   V3    S    
C23   H5    S    
C40   H42   S    
C67   H52   S    
O7    V1    S    
C5    C13   A    
C1    O8    A    
C8    C40   A    
O8    V2    S    
C67   H51   S    
C24   C26   A    
O18   V4    S    
C8    C57   S    
C31   C35   A    
C11   C71   S    
C52   C54   S    
O5    V1    S    
C21   C23   A    
C19   C27   A    
O16   C60   A    
C61   H29   S    
C43   H15   S    
C20   C28   A    
C41   C61   S    
C7    C39   A    
C71   H64   S    
O9    V2    S    
C17   C25   A    
C28   H8    S    
C44   H14   S    
C56   H40   S    
O10   V1    S    
H18   C54   S    
C70   H60   S    
C69   H57   S    
C30   C68   S    
C45   C49   S    
C32   C36   A    
C20   C22   A    
C10   C70   S    
