data_mof_unit_43835.cif
_audit_creation_date              2012-12-10T17:19:19-0500
_audit_creation_method            fapswitch 2.2
_symmetry_space_group_name_H-M    P1
_symmetry_Int_Tables_number       1
_space_group_crystal_system       triclinic
_cell_length_a                    18.535315
_cell_length_b                    18.512923
_cell_length_c                    34.279973
_cell_angle_alpha                 90.22971
_cell_angle_beta                  90.067724
_cell_angle_gamma                 89.772915
_cell_volume                      11762.7330327

loop_
_atom_site_label
_atom_site_type_symbol
_atom_type_description
_atom_site_fract_x
_atom_site_fract_y
_atom_site_fract_z
_atom_type_partial_charge
C1    C     C_R   0.628858 0.974234 0.520223 -0.158691
C2    C     C_R   0.871032 0.473143 0.979798 -0.156672
C3    C     C_R   0.480584 0.936358 0.958703 0.057463
C4    C     C_R   0.935545 0.482334 0.041211 0.055965
C5    C     C_R   0.065696 0.506580 0.959045 0.067611
C6    C     C_R   0.480212 0.936634 0.041090 0.055518
C7    C     C_R   0.520206 0.062962 0.958941 0.054726
C8    C     C_R   0.999964 0.500069 0.644515 0.881225
C9    C     C_R   0.000038 0.499974 0.355486 0.881738
C10   C     C_R   0.499993 0.999831 0.644499 0.887092
C11   C     C_R   0.500016 0.000141 0.355500 0.886009
C12   C     C_R   0.499966 0.000055 0.144518 0.881164
C13   C     C_R   0.536207 0.126113 0.020449 -0.157657
C14   C     C_R   0.500043 0.999787 0.855488 0.881101
C15   C     C_R   0.999846 0.499842 0.144510 0.883219
C16   C     C_R   0.000158 0.499838 0.855543 0.892971
C17   C     C_R   0.860009 0.639877 0.750241 0.799543
C18   C     C_R   0.139933 0.360123 0.249851 0.796517
C19   C     C_R   0.360125 0.860150 0.749833 0.801698
C20   C     C_R   0.639798 0.140130 0.249825 0.800805
C21   C     C_R   0.139766 0.360156 0.749915 0.794060
C22   C     C_R   0.860059 0.639776 0.249866 0.794133
C23   C     C_R   0.639871 0.140032 0.750230 0.799201
C24   C     C_R   0.464772 0.873312 0.979603 -0.157646
C25   C     C_R   0.360127 0.859993 0.249797 0.799117
C26   C     C_R   0.860113 0.359948 0.250074 0.803716
C27   C     C_R   0.139869 0.640376 0.750251 0.809832
C28   C     C_R   0.360007 0.139867 0.250225 0.799995
C29   C     C_R   0.640014 0.860198 0.749720 0.800322
C30   C     C_R   0.139972 0.639921 0.250096 0.802179
C31   C     C_R   0.860056 0.360071 0.749859 0.800878
C32   C     C_R   0.640005 0.860243 0.250216 0.797594
C33   C     C_R   0.360035 0.139891 0.749911 0.796972
C34   C     C_R   0.204699 0.689721 0.677570 -0.384915
C35   C     C_R   0.871381 0.471649 0.020207 -0.158476
C36   C     C_R   0.795440 0.309238 0.322734 -0.388780
C37   C     C_R   0.301972 0.196969 0.677149 -0.387908
C38   C     C_R   0.696642 0.801229 0.322949 -0.388524
C39   C     C_R   0.795087 0.308032 0.677215 -0.389887
C40   C     C_R   0.204934 0.691877 0.322746 -0.389364
C41   C     C_R   0.695921 0.799587 0.677000 -0.389489
C42   C     C_R   0.303627 0.199846 0.322960 -0.389407
C43   C     C_R   0.192634 0.300002 0.322171 -0.381977
C44   C     C_R   0.806996 0.699549 0.677868 -0.381433
C45   C     C_R   0.305055 0.801767 0.322212 -0.382345
C46   C     C_R   0.129590 0.518394 0.980108 -0.158707
C47   C     C_R   0.695096 0.198017 0.677809 -0.382266
C48   C     C_R   0.807412 0.700797 0.322193 -0.381993
C49   C     C_R   0.191711 0.298065 0.677670 -0.383806
C50   C     C_R   0.694756 0.199882 0.322251 -0.383494
C51   C     C_R   0.307818 0.796663 0.677385 -0.385781
C52   C     C_R   0.704989 0.189908 0.177277 -0.387727
C53   C     C_R   0.296603 0.812323 0.821863 -0.378153
C54   C     C_R   0.799062 0.693631 0.177405 -0.387592
C55   C     C_R   0.206121 0.313469 0.821820 -0.381563
C56   C     C_R   0.294707 0.808953 0.177261 -0.388209
C57   C     C_R   0.464479 0.873480 0.019995 -0.159369
C58   C     C_R   0.705325 0.191430 0.822813 -0.389005
C59   C     C_R   0.200685 0.305356 0.177390 -0.388234
C60   C     C_R   0.802341 0.698742 0.822886 -0.393737
C61   C     C_R   0.692435 0.800000 0.822136 -0.382523
C62   C     C_R   0.308210 0.201341 0.177792 -0.384249
C63   C     C_R   0.807273 0.299677 0.822402 -0.382031
C64   C     C_R   0.191482 0.702007 0.177542 -0.384145
C65   C     C_R   0.308629 0.204140 0.822354 -0.387757
C66   C     C_R   0.691692 0.797826 0.177791 -0.384192
C67   C     C_R   0.177908 0.723635 0.821976 -0.407684
C68   C     C_R   0.536234 0.126034 0.980053 -0.158132
C69   C     C_R   0.808621 0.296428 0.177533 -0.385042
C70   C     C_R   0.240655 0.706026 0.642794 0.491507
C71   C     C_R   0.760732 0.290526 0.357531 0.491697
C72   C     C_R   0.279020 0.227797 0.641934 0.494116
C73   C     C_R   0.719235 0.769698 0.358044 0.493778
C74   C     C_R   0.760601 0.288218 0.642404 0.492445
C75   C     C_R   0.239426 0.711599 0.357572 0.492198
C76   C     C_R   0.718517 0.767562 0.641930 0.494141
C77   C     C_R   0.280965 0.231713 0.358061 0.494178
C78   C     C_R   0.224040 0.280541 0.357810 0.502943
C79   C     C_R   0.280394 0.773328 0.713914 0.037711
C80   C     C_R   0.775457 0.718754 0.642222 0.502664
C81   C     C_R   0.288344 0.767970 0.357502 0.501664
C82   C     C_R   0.711755 0.231784 0.642502 0.501719
C83   C     C_R   0.776066 0.720756 0.357814 0.503053
C84   C     C_R   0.222474 0.277096 0.642062 0.503914
C85   C     C_R   0.711563 0.234382 0.357498 0.501824
C86   C     C_R   0.291089 0.761010 0.642464 0.500884
C87   C     C_R   0.742359 0.205147 0.142813 0.493540
C88   C     C_R   0.255423 0.806731 0.855794 0.501220
C89   C     C_R   0.773849 0.721469 0.141913 0.500358
C90   C     C_R   0.720585 0.225574 0.285858 0.037157
C91   C     C_R   0.232310 0.287730 0.857547 0.503627
C92   C     C_R   0.257447 0.792832 0.142767 0.494022
C93   C     C_R   0.741876 0.208711 0.857384 0.493901
C94   C     C_R   0.225901 0.277145 0.141898 0.500492
C95   C     C_R   0.777802 0.728238 0.858228 0.497976
C96   C     C_R   0.722187 0.778554 0.857871 0.502355
C97   C     C_R   0.279999 0.225113 0.142094 0.501170
C98   C     C_R   0.792617 0.263450 0.857252 0.496783
C99   C     C_R   0.205814 0.738961 0.142874 0.496184
C100  C     C_R   0.283108 0.232351 0.857836 0.499667
C101  C     C_R   0.221261 0.275571 0.713899 0.034546
C102  C     C_R   0.719803 0.773557 0.142101 0.501164
C103  C     C_R   0.195395 0.762727 0.855798 0.486087
C104  C     C_R   0.794120 0.258890 0.142892 0.496435
C105  C     C_R   0.499947 0.999742 0.520633 0.031522
C106  C     C_R   0.500033 0.000086 0.479363 0.031769
C107  C     C_R   0.000068 0.500041 0.520640 0.032805
C108  C     C_R   0.000121 0.500002 0.479361 0.032944
C109  C     C_R   0.000101 0.496971 0.020716 0.030757
C110  C     C_R   0.000248 0.496036 0.979470 0.028652
C111  C     C_R   0.500225 0.999828 0.020654 0.032477
C112  C     C_R   0.371124 0.025540 0.479757 -0.159048
C113  C     C_R   0.778171 0.723828 0.285975 0.035000
C114  C     C_R   0.500321 0.999722 0.979373 0.031940
C115  C     C_3   0.330203 0.974209 0.617100 -0.793614
C116  C     C_3   0.670280 0.020989 0.382099 -0.795644
C117  C     C_3   0.006955 0.328644 0.618242 -0.794387
C118  C     C_3   0.992323 0.671384 0.381861 -0.793987
C119  C     C_3   0.670529 0.018128 0.618433 -0.796809
C120  C     C_3   0.329584 0.981890 0.381540 -0.797196
C121  C     C_3   0.992143 0.671489 0.618850 -0.796484
C122  C     C_3   0.007872 0.328574 0.381100 -0.795321
C123  C     C_3   0.828675 0.511176 0.118881 -0.796068
C124  C     C_R   0.720764 0.224667 0.714170 0.037406
C125  C     C_3   0.155309 0.580030 0.886773 -0.756861
C126  C     C_3   0.505194 0.828490 0.118294 -0.792531
C127  C     C_3   0.494205 0.171341 0.881997 -0.788077
C128  C     C_3   0.171004 0.487488 0.119315 -0.796579
C129  C     C_3   0.829217 0.524352 0.882539 -0.789982
C130  C     C_3   0.494482 0.171564 0.118838 -0.792862
C131  C     C_3   0.507337 0.828347 0.881078 -0.799917
C132  C     C_R   0.279330 0.775232 0.285837 0.037406
C133  C     C_R   0.777937 0.723235 0.714075 0.035417
C134  C     C_R   0.221856 0.276565 0.285963 0.035233
C135  C     C_R   0.277350 0.224075 0.286254 0.029915
C136  C     C_R   0.722391 0.775664 0.713727 0.030020
C137  C     C_R   0.226814 0.720044 0.286045 0.032809
C138  C     C_R   0.773229 0.279903 0.713926 0.032579
C139  C     C_R   0.722799 0.776476 0.286249 0.030057
C140  C     C_R   0.034521 0.626753 0.520477 -0.157898
C141  C     C_R   0.276450 0.222712 0.713771 0.030645
C142  C     C_R   0.773381 0.280488 0.286039 0.033085
C143  C     C_R   0.226559 0.719460 0.714083 0.032256
C144  C     C_R   0.780504 0.273324 0.214000 0.032477
C145  C     C_R   0.213785 0.734894 0.785721 0.045435
C146  C     C_R   0.721179 0.775333 0.214070 0.035766
C147  C     C_R   0.279494 0.226190 0.785930 0.036882
C148  C     C_R   0.219581 0.725870 0.214004 0.032621
C149  C     C_R   0.779947 0.274786 0.785977 0.032902
C150  C     C_R   0.278790 0.224277 0.214068 0.036003
C151  C     C_R   0.965718 0.373273 0.479530 -0.157926
C152  C     C_R   0.721782 0.776676 0.785909 0.035721
C153  C     C_R   0.777059 0.724010 0.786226 0.036060
C154  C     C_R   0.224204 0.277702 0.213872 0.034837
C155  C     C_R   0.727013 0.219938 0.786182 0.032717
C156  C     C_R   0.272874 0.780365 0.213848 0.032646
C157  C     C_R   0.226369 0.281144 0.785806 0.031781
C158  C     C_R   0.775661 0.721779 0.213888 0.034953
C159  C     C_R   0.272006 0.783873 0.785615 0.028360
C160  C     C_R   0.726969 0.219077 0.213865 0.032988
C161  C     C_R   0.304200 0.804032 0.749766 -0.080015
C162  C     C_R   0.370972 0.024909 0.520138 -0.158481
C163  C     C_R   0.696387 0.195908 0.249813 -0.078696
C164  C     C_R   0.196211 0.304343 0.749891 -0.068408
C165  C     C_R   0.804147 0.696281 0.249872 -0.070468
C166  C     C_R   0.696674 0.195658 0.750246 -0.077913
C167  C     C_R   0.303391 0.804333 0.249780 -0.077917
C168  C     C_R   0.804525 0.696833 0.750235 -0.073755
C169  C     C_R   0.195748 0.303574 0.249849 -0.071388
C170  C     C_R   0.304507 0.196758 0.250219 -0.073844
C171  C     C_R   0.695444 0.803308 0.749729 -0.074375
C172  C     C_R   0.196556 0.695706 0.250066 -0.079791
C173  C     C_R   0.628928 0.974531 0.479839 -0.158434
C174  C     C_R   0.803333 0.304454 0.749892 -0.078899
C175  C     C_R   0.695610 0.803405 0.250209 -0.072897
C176  C     C_R   0.304133 0.196588 0.749883 -0.072201
C177  C     C_R   0.803692 0.304029 0.250046 -0.080461
C178  C     C_R   0.194070 0.698886 0.750100 -0.088273
C179  C     C_R   0.435683 0.015592 0.582248 0.097465
C180  C     C_R   0.564121 0.983418 0.417756 0.098061
C181  C     C_R   0.978388 0.437537 0.582108 0.099914
C182  C     C_R   0.021569 0.562564 0.417884 0.099904
C183  C     C_R   0.563944 0.982435 0.582229 0.097874
C184  C     C_R   0.965611 0.373327 0.519922 -0.158597
C185  C     C_R   0.436126 0.017641 0.417766 0.097941
C186  C     C_R   0.021448 0.562681 0.582401 0.100231
C187  C     C_R   0.978699 0.437356 0.417606 0.099748
C188  C     C_R   0.936449 0.479892 0.082252 0.099530
C189  C     C_R   0.065593 0.506075 0.918019 0.090046
C190  C     C_R   0.477743 0.937675 0.082145 0.100426
C191  C     C_R   0.522307 0.062031 0.917877 0.100062
C192  C     C_R   0.063283 0.517385 0.082278 0.099325
C193  C     C_R   0.935353 0.484128 0.917723 0.100458
C194  C     C_R   0.522263 0.062308 0.082396 0.100195
C195  C     C_R   0.034551 0.626723 0.480083 -0.158862
C196  C     C_R   0.478398 0.937160 0.917632 0.101950
C197  C     C_R   0.499922 0.999390 0.602201 -0.081507
C198  C     C_R   0.500093 0.000458 0.397794 -0.080852
C199  C     C_R   0.999903 0.500110 0.602219 -0.081498
C200  C     C_R   0.000121 0.499956 0.397781 -0.081485
C201  C     C_R   0.999766 0.499312 0.102245 -0.081461
C202  C     C_R   0.999984 0.498754 0.897914 -0.087687
C203  C     C_R   0.499920 0.000041 0.102230 -0.082235
C204  C     C_R   0.500188 0.999649 0.897790 -0.082605
C205  C     C_R   0.564657 0.984912 0.541186 0.056567
C206  C     C_R   0.128905 0.522004 0.020456 -0.161050
C207  C     C_R   0.435356 0.015004 0.458806 0.056438
C208  C     C_R   0.019262 0.563534 0.541336 0.055597
C209  C     C_R   0.980940 0.436500 0.458669 0.055116
C210  C     C_R   0.435100 0.013961 0.541173 0.057744
C211  C     C_R   0.564790 0.985498 0.458822 0.056775
C212  C     C_R   0.980776 0.436596 0.541049 0.054629
C213  C     C_R   0.019335 0.563470 0.458949 0.054997
C214  C     C_R   0.064531 0.512567 0.041301 0.056972
C215  C     C_R   0.935119 0.483807 0.958825 0.058525
C216  C     C_R   0.520138 0.063124 0.041329 0.055197
H1    H     H_    0.158642 0.655039 0.674520 0.195918
H2    H     H_    0.854385 0.665988 0.676447 0.166159
H3    H     H_    0.638394 0.053806 0.637689 0.231869
H4    H     H_    0.344133 0.080409 0.408999 0.256939
H5    H     H_    0.307027 0.950156 0.406078 0.265304
H6    H     H_    0.361742 0.946217 0.362291 0.231939
H7    H     H_    0.284389 0.004624 0.364132 0.244219
H8    H     H_    0.089667 0.650264 0.591686 0.256257
H9    H     H_    0.961556 0.695925 0.594298 0.265212
H10   H     H_    0.017618 0.715327 0.636184 0.243149
H11   H     H_    0.954884 0.641936 0.638219 0.228583
H12   H     H_    0.910501 0.349774 0.408392 0.256310
H13   H     H_    0.337952 0.849170 0.324155 0.169877
H14   H     H_    0.038500 0.304071 0.405617 0.265235
H15   H     H_    0.045086 0.358150 0.361720 0.228219
H16   H     H_    0.982330 0.284782 0.363761 0.243489
H17   H     H_    0.847234 0.413801 0.090710 0.253790
H18   H     H_    0.803947 0.542125 0.094572 0.268000
H19   H     H_    0.859437 0.548009 0.138121 0.230420
H20   H     H_    0.785037 0.486410 0.136439 0.242973
H21   H     H_    0.171925 0.475599 0.906782 0.239013
H22   H     H_    0.175248 0.608515 0.913199 0.265629
H23   H     H_    0.110068 0.611173 0.874131 0.251961
H24   H     H_    0.662245 0.150579 0.675899 0.169714
H25   H     H_    0.199585 0.576587 0.865058 0.237441
H26   H     H_    0.408124 0.851237 0.090933 0.253640
H27   H     H_    0.535178 0.803180 0.093717 0.266526
H28   H     H_    0.478944 0.785333 0.135565 0.242621
H29   H     H_    0.543148 0.857496 0.137718 0.228084
H30   H     H_    0.591697 0.148582 0.908901 0.253654
H31   H     H_    0.464904 0.196842 0.906755 0.267686
H32   H     H_    0.455702 0.142295 0.862900 0.228501
H33   H     H_    0.520106 0.214357 0.864472 0.242702
H34   H     H_    0.152498 0.583720 0.090408 0.253995
H35   H     H_    0.854600 0.666942 0.323630 0.165995
H36   H     H_    0.195992 0.455787 0.095266 0.267912
H37   H     H_    0.140188 0.451208 0.138643 0.230968
H38   H     H_    0.214459 0.512929 0.136887 0.242830
H39   H     H_    0.842490 0.423542 0.907536 0.250534
H40   H     H_    0.806635 0.554588 0.907809 0.271934
H41   H     H_    0.784068 0.503806 0.864356 0.242278
H42   H     H_    0.862222 0.560681 0.864395 0.234323
H43   H     H_    0.591706 0.148918 0.091670 0.254267
H44   H     H_    0.464505 0.196675 0.094269 0.267196
H45   H     H_    0.520584 0.214868 0.136288 0.242611
H46   H     H_    0.145014 0.332614 0.676241 0.165322
H47   H     H_    0.456571 0.142552 0.138099 0.228012
H48   H     H_    0.410054 0.849554 0.908434 0.254057
H49   H     H_    0.537913 0.803709 0.905574 0.268074
H50   H     H_    0.544586 0.857893 0.861699 0.229221
H51   H     H_    0.481698 0.784647 0.863715 0.241765
H52   H     H_    0.661708 0.152628 0.324266 0.170459
H53   H     H_    0.341993 0.842961 0.674921 0.173349
H54   H     H_    0.659137 0.154932 0.174179 0.195695
H55   H     H_    0.347501 0.839833 0.824743 0.187986
H56   H     H_    0.836557 0.649406 0.175527 0.171065
H57   H     H_    0.839989 0.345805 0.325827 0.197324
H58   H     H_    0.170589 0.359699 0.822987 0.172912
H59   H     H_    0.340334 0.844165 0.174196 0.195255
H60   H     H_    0.660293 0.155479 0.825885 0.195749
H61   H     H_    0.163088 0.349469 0.175506 0.171253
H62   H     H_    0.840984 0.655783 0.825128 0.175696
H63   H     H_    0.645644 0.834377 0.823563 0.166992
H64   H     H_    0.353987 0.165609 0.176285 0.167894
H65   H     H_    0.840164 0.347276 0.824927 0.188082
H66   H     H_    0.158170 0.654773 0.174787 0.191983
H67   H     H_    0.352197 0.165791 0.824159 0.170258
H68   H     H_    0.339957 0.153081 0.674676 0.191919
H69   H     H_    0.645939 0.833588 0.176271 0.167873
H70   H     H_    0.135100 0.686332 0.825683 0.198156
H71   H     H_    0.842062 0.343499 0.174738 0.192017
H72   H     H_    0.680256 0.966704 0.534590 0.164943
H73   H     H_    0.319740 0.033114 0.465384 0.165032
H74   H     H_    0.045439 0.677546 0.534922 0.164401
H75   H     H_    0.954853 0.322463 0.465091 0.164950
H76   H     H_    0.319464 0.032066 0.534392 0.164828
H77   H     H_    0.680383 0.967209 0.465541 0.164879
H78   H     H_    0.954653 0.322564 0.534156 0.165146
H79   H     H_    0.658535 0.844952 0.325611 0.193563
H80   H     H_    0.045491 0.677496 0.465856 0.164904
H81   H     H_    0.179931 0.530996 0.034945 0.163137
H82   H     H_    0.819495 0.466773 0.965441 0.162877
H83   H     H_    0.547773 0.176772 0.034881 0.164125
H84   H     H_    0.453541 0.822546 0.965209 0.161890
H85   H     H_    0.820165 0.463926 0.034621 0.163307
H86   H     H_    0.180857 0.526306 0.965813 0.160642
H87   H     H_    0.452948 0.822879 0.034264 0.163520
H88   H     H_    0.547846 0.176633 0.965803 0.164483
H89   H     H_    0.108318 0.734694 0.883348 0.327641
H90   H     H_    0.839213 0.345047 0.674139 0.197047
H91   H     H_    0.873655 0.302376 0.115064 0.329819
H92   H     H_    0.336840 0.163073 0.888973 0.326570
H93   H     H_    0.662756 0.841434 0.111748 0.326137
H94   H     H_    0.870260 0.310273 0.885404 0.328815
H95   H     H_    0.126111 0.695102 0.115098 0.330292
H96   H     H_    0.664193 0.846543 0.887850 0.326377
H97   H     H_    0.337060 0.156904 0.111741 0.326224
H98   H     H_    0.155710 0.330511 0.111113 0.326950
H99   H     H_    0.851641 0.680087 0.888996 0.326365
H100  H     H_    0.296620 0.874446 0.114877 0.329454
H101  H     H_    0.160693 0.655001 0.325818 0.196980
H102  H     H_    0.703720 0.126894 0.885502 0.329032
H103  H     H_    0.844094 0.667881 0.111146 0.326931
H104  H     H_    0.169818 0.351137 0.887811 0.321546
H105  H     H_    0.703110 0.122964 0.115037 0.329687
H106  H     H_    0.304367 0.885319 0.881900 0.331740
H107  H     H_    0.641982 0.178727 0.387166 0.327176
H108  H     H_    0.361709 0.814791 0.612451 0.327107
H109  H     H_    0.834727 0.653449 0.387664 0.326365
H110  H     H_    0.164202 0.344428 0.612020 0.326377
H111  H     H_    0.357659 0.824575 0.387157 0.327291
H112  H     H_    0.657673 0.843132 0.674282 0.193946
H113  H     H_    0.642342 0.175227 0.612895 0.327375
H114  H     H_    0.165240 0.348077 0.387653 0.326496
H115  H     H_    0.834464 0.651310 0.612430 0.326483
H116  H     H_    0.638162 0.805821 0.612352 0.327985
H117  H     H_    0.361540 0.193837 0.387574 0.328238
H118  H     H_    0.797312 0.370012 0.613755 0.328848
H119  H     H_    0.202377 0.629937 0.386213 0.328829
H120  H     H_    0.359198 0.188875 0.612465 0.327789
H121  H     H_    0.638668 0.807931 0.387488 0.328173
H122  H     H_    0.201299 0.624002 0.614953 0.329842
H123  H     H_    0.341873 0.156284 0.325628 0.193894
H124  H     H_    0.797996 0.372739 0.386037 0.329203
H125  H     H_    0.341599 0.074884 0.592002 0.255952
H126  H     H_    0.308549 0.943599 0.591748 0.265149
H127  H     H_    0.284433 0.994175 0.635076 0.243426
H128  H     H_    0.363621 0.938092 0.635355 0.234157
H129  H     H_    0.656812 0.921751 0.408515 0.256445
H130  H     H_    0.692482 0.052462 0.406997 0.265711
H131  H     H_    0.637716 0.056729 0.363189 0.232561
H132  H     H_    0.715717 0.999127 0.364513 0.243769
H133  H     H_    0.909776 0.350311 0.590806 0.255938
H134  H     H_    0.145406 0.333794 0.323582 0.165969
H135  H     H_    0.037383 0.303811 0.593682 0.264995
H136  H     H_    0.981151 0.285103 0.635428 0.243607
H137  H     H_    0.044406 0.358068 0.637746 0.227823
H138  H     H_    0.089816 0.650061 0.409069 0.255683
H139  H     H_    0.961828 0.695909 0.406488 0.264864
H140  H     H_    0.954968 0.641862 0.362349 0.228096
H141  H     H_    0.017829 0.715160 0.364718 0.243538
H142  H     H_    0.655860 0.919529 0.591045 0.256344
H143  H     H_    0.693079 0.049840 0.593884 0.265627
H144  H     H_    0.715726 0.995373 0.635832 0.244081
N1    N     N_2   0.372700 0.034620 0.604010 -0.321906
N2    N     N_2   0.131215 0.508337 0.896371 -0.334360
N3    N     N_2   0.450879 0.877590 0.103666 -0.317136
N4    N     N_2   0.548791 0.122239 0.896321 -0.317701
N5    N     N_2   0.124282 0.542926 0.103721 -0.319325
N6    N     N_2   0.872739 0.464560 0.895831 -0.324957
N7    N     N_2   0.548939 0.122514 0.104184 -0.317823
N8    N     N_2   0.452349 0.876642 0.895861 -0.319665
N9    N     N_2   0.626525 0.962198 0.396077 -0.320566
N10   N     N_2   0.952141 0.377151 0.603601 -0.316394
N11   N     N_2   0.047444 0.623080 0.396367 -0.316645
N12   N     N_2   0.626076 0.960158 0.603816 -0.319893
N13   N     N_2   0.373985 0.039893 0.396179 -0.319662
N14   N     N_2   0.047297 0.623234 0.604201 -0.317416
N15   N     N_2   0.952782 0.376824 0.395817 -0.317111
N16   N     N_2   0.875414 0.455151 0.103753 -0.319410
O1    O     O_3   0.000000 0.500000 0.750000 -0.492888
O2    O     O_R   0.060740 0.500000 0.337440 -0.647039
O3    O     O_R   0.500000 0.939260 0.662560 -0.650604
O4    O     O_R   0.500000 0.060740 0.337440 -0.649924
O5    O     O_R   0.560740 0.000000 0.162560 -0.646823
O6    O     O_R   0.439260 0.000000 0.837440 -0.647494
O7    O     O_R   1.000000 0.560740 0.162560 -0.647687
O8    O     O_R   0.000000 0.439260 0.837440 -0.638553
O9    O     O_R   0.439260 0.000000 0.162560 -0.646818
O10   O     O_R   0.560740 0.000000 0.837440 -0.646835
O11   O     O_R   1.000000 0.439260 0.162560 -0.648747
O12   O     O_3   0.000000 0.500000 0.250000 -0.494380
O13   O     O_R   0.000000 0.560740 0.837440 -0.667064
O14   O     O_R   0.853850 0.585450 0.727070 -0.638951
O15   O     O_R   0.146150 0.414550 0.272930 -0.639765
O16   O     O_R   0.414550 0.853850 0.727070 -0.644908
O17   O     O_R   0.585450 0.146150 0.272930 -0.642263
O18   O     O_R   0.146150 0.414550 0.727070 -0.640616
O19   O     O_R   0.853850 0.585450 0.272930 -0.639908
O20   O     O_R   0.585450 0.146150 0.727070 -0.640899
O21   O     O_R   0.414550 0.853850 0.272930 -0.641169
O22   O     O_R   0.853850 0.414550 0.272930 -0.641409
O23   O     O_3   0.500000 0.000000 0.750000 -0.494024
O24   O     O_R   0.146150 0.585450 0.727070 -0.637992
O25   O     O_R   0.414550 0.146150 0.272930 -0.641538
O26   O     O_R   0.585450 0.853850 0.727070 -0.641933
O27   O     O_R   0.146150 0.585450 0.272930 -0.641978
O28   O     O_R   0.853850 0.414550 0.727070 -0.642261
O29   O     O_R   0.585450 0.853850 0.272930 -0.640821
O30   O     O_R   0.414550 0.146150 0.727070 -0.639872
O31   O     O_R   0.353850 0.085450 0.227070 -0.639831
O32   O     O_R   0.646150 0.914550 0.772930 -0.639875
O33   O     O_R   0.914550 0.353850 0.227070 -0.640236
O34   O     O_3   0.500000 0.000000 0.250000 -0.494120
O35   O     O_R   0.085450 0.646150 0.772930 -0.652595
O36   O     O_R   0.646150 0.914550 0.227070 -0.639955
O37   O     O_R   0.353850 0.085450 0.772930 -0.640292
O38   O     O_R   0.085450 0.646150 0.227070 -0.639166
O39   O     O_R   0.914550 0.353850 0.772930 -0.639728
O40   O     O_R   0.353850 0.914550 0.772930 -0.638411
O41   O     O_R   0.646150 0.085450 0.227070 -0.640970
O42   O     O_R   0.914550 0.646150 0.772930 -0.645593
O43   O     O_R   0.085450 0.353850 0.227070 -0.642679
O44   O     O_R   0.646150 0.085450 0.772930 -0.641692
O45   O     O_R   0.060740 0.500000 0.662560 -0.647255
O46   O     O_R   0.353850 0.914550 0.227070 -0.641469
O47   O     O_R   0.085450 0.353850 0.772930 -0.637000
O48   O     O_R   0.914550 0.646150 0.227070 -0.641960
O49   O     O_3   0.154675 0.758728 0.889418 -0.697660
O50   O     O_3   0.830264 0.273488 0.108696 -0.707480
O51   O     O_3   0.307644 0.207303 0.893347 -0.699090
O52   O     O_3   0.695117 0.799669 0.106840 -0.698565
O53   O     O_3   0.827640 0.280278 0.891609 -0.707747
O54   O     O_3   0.169586 0.723692 0.108684 -0.708722
O55   O     O_3   0.697830 0.805961 0.892998 -0.698395
O56   O     O_R   0.939260 0.500000 0.337440 -0.646937
O57   O     O_3   0.304649 0.198576 0.106835 -0.698419
O58   O     O_3   0.198821 0.299868 0.106459 -0.698941
O59   O     O_3   0.807013 0.708426 0.893683 -0.699424
O60   O     O_3   0.270318 0.829381 0.108522 -0.708790
O61   O     O_3   0.729061 0.172559 0.891757 -0.708535
O62   O     O_3   0.800874 0.698317 0.106479 -0.699307
O63   O     O_3   0.209269 0.316041 0.892730 -0.701134
O64   O     O_3   0.729450 0.167873 0.108625 -0.708759
O65   O     O_3   0.271860 0.845167 0.889140 -0.708974
O66   O     O_3   0.680622 0.214306 0.392411 -0.697776
O67   O     O_R   0.500000 0.060740 0.662560 -0.649852
O68   O     O_3   0.323064 0.779072 0.607490 -0.696332
O69   O     O_3   0.799440 0.692628 0.392881 -0.698726
O70   O     O_3   0.198971 0.304743 0.606910 -0.698926
O71   O     O_3   0.319163 0.788949 0.392420 -0.698494
O72   O     O_3   0.680907 0.210761 0.607601 -0.698392
O73   O     O_3   0.200629 0.309047 0.392875 -0.698679
O74   O     O_3   0.798878 0.690149 0.607181 -0.698595
O75   O     O_3   0.685648 0.783184 0.606852 -0.708630
O76   O     O_3   0.313869 0.216042 0.393118 -0.708962
O77   O     O_3   0.774156 0.323086 0.607734 -0.708428
O78   O     O_R   0.500000 0.939260 0.337440 -0.649382
O79   O     O_3   0.225742 0.676758 0.392236 -0.708485
O80   O     O_3   0.311433 0.210820 0.606895 -0.710138
O81   O     O_3   0.686346 0.785805 0.393073 -0.709499
O82   O     O_3   0.226571 0.669514 0.608507 -0.708507
O83   O     O_3   0.774437 0.326147 0.392132 -0.708780
O84   O     O_R   0.939260 0.500000 0.662560 -0.647040
Zn1   Zn    Zn3+2 1.000000 0.586740 0.782740 0.952766
Zn2   Zn    Zn3+2 0.500000 0.913260 0.717260 0.965285
Zn3   Zn    Zn3+2 0.913260 0.500000 0.282740 0.966974
Zn4   Zn    Zn3+2 0.086740 0.500000 0.717260 0.969478
Zn5   Zn    Zn3+2 0.500000 0.913260 0.282740 0.966743
Zn6   Zn    Zn3+2 0.500000 0.086740 0.717260 0.967550
Zn7   Zn    Zn3+2 0.086740 0.500000 0.282740 0.967140
Zn8   Zn    Zn3+2 0.913260 0.500000 0.717260 0.967891
Zn9   Zn    Zn3+2 1.000000 0.413260 0.217260 0.966661
Zn10  Zn    Zn3+2 0.413260 0.000000 0.782740 0.967697
Zn11  Zn    Zn3+2 0.586740 0.000000 0.217260 0.967184
Zn12  Zn    Zn3+2 1.000000 0.413260 0.782740 0.977324
Zn13  Zn    Zn3+2 0.000000 0.586740 0.217260 0.966681
Zn14  Zn    Zn3+2 0.586740 0.000000 0.782740 0.967143
Zn15  Zn    Zn3+2 0.413260 0.000000 0.217260 0.967359
Zn16  Zn    Zn3+2 0.500000 0.086740 0.282740 0.966751

loop_
_geom_bond_atom_site_label_1
_geom_bond_atom_site_label_2
_ccdc_geom_bond_type
C195  H80   S    
C185  C207  A    
O26   Zn2   S    
C27   O24   A    
O20   Zn6   S    
C151  C184  A    
O12   Zn7   S    
O37   Zn10  S    
C183  C197  A    
C62   H64   S    
H94   O53   S    
C88   O65   S    
O29   Zn5   S    
C63   C98   A    
H48   N8    S    
C24   H84   S    
C142  C177  A    
C131  H51   S    
H120  O80   S    
C121  H9    S    
C104  O50   S    
C23   O44   A    
C143  C178  A    
C192  C214  A    
C36   C142  A    
C60   C153  A    
C117  H136  S    
O6    Zn10  S    
C7    C68   A    
C50   C90   A    
C25   O21   A    
H43   N7    S    
C53   H55   S    
C134  C169  A    
O32   Zn14  S    
C138  C174  A    
C159  C161  A    
C91   C100  A    
C65   C147  A    
C130  H47   S    
C9    C200  S    
H21   N2    S    
C206  C214  A    
C122  N15   S    
H103  O62   S    
O47   Zn12  S    
C79   C161  A    
O27   Zn7   S    
C9    O2    A    
C58   H60   S    
C34   C143  A    
C53   C159  A    
O14   Zn8   S    
C183  N12   S    
C118  H141  S    
C160  C163  A    
C115  N1    S    
C15   O11   A    
C17   O14   A    
C147  C176  A    
C107  C212  A    
C162  C210  A    
C94   C97   A    
C132  C137  A    
C20   C163  S    
C105  C210  A    
C127  H33   S    
H17   N16   S    
C91   O63   S    
C129  H40   S    
C117  N10   S    
O36   Zn11  S    
C37   H68   S    
C72   C84   A    
C28   O31   A    
O23   Zn10  S    
H124  O83   S    
C28   C170  S    
C77   O76   S    
C115  H128  S    
C33   O30   A    
C41   H112  S    
C153  C168  A    
C126  H28   S    
C186  C199  A    
O7    Zn13  S    
O44   Zn14  S    
C120  H6    S    
O39   Zn12  S    
C62   C150  A    
H91   O50   S    
C45   C81   A    
O34   Zn11  S    
C130  H44   S    
C49   H46   S    
C84   O70   S    
C131  H49   S    
C129  N6    S    
H100  O60   S    
C5    C46   A    
C121  H11   S    
C186  C208  A    
C187  C200  A    
C4    C188  A    
H99   O59   S    
C149  C155  A    
C5    C189  A    
C100  O51   S    
C113  C165  A    
O43   Zn9   S    
C150  C170  A    
C21   O18   A    
O38   Zn13  S    
C16   O13   A    
O17   Zn16  S    
C127  H32   S    
C66   C146  A    
C130  H45   S    
C180  C198  A    
C12   O9    A    
C123  H20   S    
H34   N5    S    
C60   C95   A    
C64   H66   S    
C45   C132  A    
C12   O5    A    
C73   C83   A    
C1    H72   S    
C125  H22   S    
C158  C165  A    
C41   C76   A    
C52   C160  A    
O16   Zn2   S    
C4    C109  A    
O4    Zn16  S    
C118  H139  S    
C6    C111  A    
C97   O57   S    
C27   C178  S    
C119  H143  S    
C56   C156  A    
O33   Zn9   S    
C10   O67   A    
H138  N11   S    
C61   C96   A    
C67   C103  A    
C18   O15   A    
C69   C144  A    
C122  H15   S    
C16   O8    A    
C1    C173  A    
C31   O28   A    
C49   C84   A    
C95   O59   S    
H117  O76   S    
C129  H41   S    
C145  C159  A    
C193  N6    S    
C12   C203  S    
C144  C160  A    
O13   Zn1   S    
C123  H18   S    
C13   H83   S    
O12   Zn13  S    
C135  C170  A    
C85   O66   S    
C33   C176  S    
C82   O72   S    
C128  N5    S    
H104  O63   S    
C83   O69   S    
C64   C99   A    
C79   C143  A    
C187  C209  A    
C115  H126  S    
C24   C57   A    
C14   C204  S    
C67   C145  A    
C128  H38   S    
C107  C108  A    
C113  C139  A    
H118  O77   S    
C21   O47   A    
H107  O66   S    
C89   O62   S    
O41   Zn11  S    
C39   C138  A    
C64   C148  A    
C116  H131  S    
C112  H73   S    
C117  H137  S    
C3    C24   A    
H125  N1    S    
H92   O51   S    
C15   C201  S    
C193  C215  A    
C32   C175  S    
H129  N9    S    
C17   O42   A    
O56   Zn3   S    
C65   H67   S    
C109  C214  A    
C196  N8    S    
C133  C168  A    
H109  O69   S    
H122  O82   S    
C26   O22   A    
C173  H77   S    
C182  C213  A    
C62   C97   A    
C192  C201  A    
O84   Zn8   S    
C29   C171  S    
C71   O83   S    
C157  C164  A    
C30   C172  S    
C28   O25   A    
O42   Zn1   S    
C183  C205  A    
O31   Zn15  S    
C196  C204  A    
C181  C199  A    
C10   C197  S    
C126  H27   S    
C9    O56   A    
C94   O58   S    
C26   C177  S    
C46   C206  A    
C55   H58   S    
C190  N3    S    
C92   O60   S    
C93   O61   S    
C32   O29   A    
C108  C213  A    
C112  C207  A    
C3    C114  A    
C36   C71   A    
C134  C135  A    
C146  C158  A    
C189  C202  A    
C48   C83   A    
C179  N1    S    
C182  N11   S    
C11   C198  S    
H12   N15   S    
H102  O61   S    
C126  N3    S    
C106  C211  A    
O46   Zn15  S    
C39   C74   A    
C102  O52   S    
C140  C195  A    
C51   C79   A    
C117  H135  S    
H142  N12   S    
C140  H74   S    
C8    O84   A    
C152  C153  A    
C42   C77   A    
C87   O64   S    
O1    Zn4   S    
C19   O16   A    
C206  H81   S    
C92   C99   A    
C126  H29   S    
C13   C68   A    
C147  C157  A    
C2    C35   A    
C76   O75   S    
C72   O80   S    
C18   O43   A    
C132  C167  A    
C77   C78   A    
C43   C78   A    
C179  C210  A    
C192  N5    S    
C37   C141  A    
C181  C212  A    
O30   Zn6   S    
C7    C114  A    
C124  C138  A    
C58   C93   A    
C188  N16   S    
C67   H70   S    
C162  H76   S    
O28   Zn8   S    
C194  C216  A    
C16   C202  S    
O23   Zn2   S    
C116  H132  S    
C35   H85   S    
C149  C174  A    
C19   C161  S    
C30   O38   A    
O78   Zn5   S    
C137  C172  A    
C55   C91   A    
C50   C85   A    
C42   H123  S    
C145  C178  A    
C141  C176  A    
C38   C139  A    
C59   C94   A    
C25   O46   A    
C80   O74   S    
C34   C70   A    
C68   H88   S    
C4    C35   A    
C115  H127  S    
C2    C215  A    
C21   C164  S    
C60   H62   S    
C29   O32   A    
C61   H63   S    
C6    C57   A    
C7    C191  A    
C173  C211  A    
C74   C82   A    
C20   O41   A    
C140  C208  A    
C51   C86   A    
H8    N14   S    
C59   C154  A    
C52   C87   A    
C50   H52   S    
C34   H1    S    
C116  H130  S    
C76   C80   A    
C44   C80   A    
C39   H90   S    
C182  C200  A    
C111  C216  A    
C120  N13   S    
C184  H78   S    
C106  C207  A    
H96   O55   S    
C17   C168  S    
C31   O39   A    
C193  C202  A    
C154  C169  A    
C42   C135  A    
C70   O82   S    
C43   C134  A    
O1    Zn12  S    
H116  O75   S    
C194  N7    S    
C11   O4    A    
O40   Zn10  S    
C146  C175  A    
C44   H2    S    
C107  C208  A    
H26   N3    S    
C123  H19   S    
C19   O40   A    
C69   H71   S    
C59   H61   S    
C127  H31   S    
C191  C204  A    
O21   Zn5   S    
C36   H57   S    
C43   H134  S    
H110  O70   S    
C18   C169  S    
C118  H140  S    
C116  N9    S    
C101  C164  A    
C65   C100  A    
O35   Zn1   S    
C105  C205  A    
C125  N2    S    
C122  H16   S    
C105  C106  A    
C3    C196  A    
C40   C75   A    
C90   C163  A    
C22   O48   A    
C48   H35   S    
C110  C215  A    
C15   O7    A    
C109  C110  A    
H97   O57   S    
O5    Zn11  S    
C47   C124  A    
O25   Zn16  S    
C54   C89   A    
C111  C114  A    
C151  H75   S    
H133  N10   S    
C195  C213  A    
H113  O72   S    
C121  H10   S    
C87   C104  A    
C55   C157  A    
C144  C177  A    
C185  N13   S    
C5    C110  A    
C37   C72   A    
C29   O26   A    
C187  N15   S    
C148  C156  A    
H111  O71   S    
C57   H87   S    
C73   O81   S    
C22   O19   A    
C48   C113  A    
O23   Zn14  S    
H105  O64   S    
C20   O17   A    
O15   Zn7   S    
C120  H5    S    
C189  N2    S    
C89   C102  A    
O11   Zn9   S    
C119  N12   S    
C66   C102  A    
C139  C175  A    
C95   C96   A    
O1    Zn1   S    
C108  C209  A    
C131  H50   S    
C25   C167  S    
C128  H36   S    
C13   C216  A    
C78   O73   S    
C190  C203  A    
C47   C82   A    
C155  C166  A    
C188  C201  A    
C14   O10   A    
O1    Zn8   S    
O10   Zn14  S    
C63   C149  A    
H93   O52   S    
C71   C85   A    
C22   C165  S    
C101  C141  A    
C133  C136  A    
C136  C171  A    
C125  H25   S    
C75   O79   S    
O48   Zn13  S    
C1    C205  A    
C125  H23   S    
C191  N4    S    
C11   O78   A    
C180  N9    S    
C40   C137  A    
C119  H3    S    
C99   O54   S    
C45   H13   S    
C119  H144  S    
C2    H82   S    
C52   H54   S    
O45   Zn4   S    
C184  C212  A    
O23   Zn6   S    
C122  H14   S    
H119  O79   S    
C8    O45   A    
C186  N14   S    
H39   N6    S    
C129  H42   S    
C103  O49   S    
C152  C171  A    
O18   Zn4   S    
C75   C81   A    
C26   O33   A    
H121  O81   S    
C179  C197  A    
C156  C167  A    
O3    Zn2   S    
C180  C211  A    
O34   Zn5   S    
C46   H86   S    
H95   O54   S    
C86   O68   S    
C96   O55   S    
C54   C158  A    
C23   C166  S    
C54   H56   S    
C6    C190  A    
C56   H59   S    
C128  H37   S    
C30   O27   A    
H98   O58   S    
C90   C142  A    
O22   Zn3   S    
C181  N10   S    
O19   Zn3   S    
O8    Zn12  S    
C124  C166  A    
C120  H7    S    
C51   H53   S    
C38   H79   S    
C185  C198  A    
C130  N7    S    
O34   Zn16  S    
C70   C86   A    
C88   C103  A    
C63   H65   S    
C69   C104  A    
C44   C133  A    
C81   O71   S    
C151  C209  A    
C32   O36   A    
C66   H69   S    
C14   O6    A    
C74   O77   S    
H4    N13   S    
O12   Zn9   S    
C112  C162  A    
C131  N8    S    
O34   Zn15  S    
O9    Zn15  S    
H89   O49   S    
C127  N4    S    
C194  C203  A    
C121  N14   S    
C148  C172  A    
C33   O37   A    
C53   C88   A    
C27   O35   A    
C123  N16   S    
C61   C152  A    
H114  O73   S    
C58   C155  A    
C47   H24   S    
H115  O74   S    
H30   N4    S    
C23   O20   A    
C56   C92   A    
O67   Zn6   S    
H108  O68   S    
O12   Zn3   S    
C10   O3    A    
C150  C154  A    
H106  O65   S    
C98   O53   S    
O2    Zn7   S    
C8    C199  S    
C118  N11   S    
C93   C98   A    
C31   C174  S    
C41   C136  A    
C40   H101  S    
C49   C101  A    
O24   Zn4   S    
C38   C73   A    
