data_mof_unit_55955.cif
_audit_creation_date              2013-03-05T15:50:09-0500
_audit_creation_method            fapswitch 2.2
_symmetry_space_group_name_H-M    P1
_symmetry_Int_Tables_number       1
_space_group_crystal_system       triclinic
_cell_length_a                    12.143603
_cell_length_b                    12.816863
_cell_length_c                    15.342465
_cell_angle_alpha                 85.652961
_cell_angle_beta                  115.549539
_cell_angle_gamma                 94.342375
_cell_volume                      2145.77887104

loop_
_atom_site_label
_atom_site_type_symbol
_atom_site_description
_atom_site_fract_x
_atom_site_fract_y
_atom_site_fract_z
_atom_type_partial_charge
O1    O     O_R   0.580150 0.341050 0.504560 -0.525874
O2    O     O_R   0.419850 0.658950 0.495440 -0.529398
O3    O     O_R   0.388090 0.353760 0.493600 -0.630607
O4    O     O_R   0.611910 0.646240 0.506400 -0.629595
C1    C     C_R   0.475906 0.300147 0.496870 0.928466
C2    C     C_R   0.523459 0.699968 0.501526 0.926503
O5    O     O_R   0.650890 0.490020 0.640860 -0.532350
O6    O     O_R   0.349110 0.509980 0.359140 -0.534154
O7    O     O_R   0.458830 0.502730 0.629890 -0.652657
O8    O     O_R   0.541170 0.497270 0.370110 -0.650011
C3    C     C_R   0.576824 0.496602 0.680978 0.899378
C4    C     C_R   0.423316 0.504907 0.318811 0.906249
Zn1   Zn    Zn3+2 0.628240 0.491510 0.507320 1.081961
Zn2   Zn    Zn3+2 0.371760 0.508490 0.492680 1.080816
C5    C     C_R   0.627626 0.505966 0.786524 -0.175376
C6    C     C_R   0.378004 0.522478 0.213012 -0.170046
C7    C     C_R   0.788802 0.493790 0.949771 -0.126875
C8    C     C_R   0.237597 0.596584 0.057300 -0.140583
C9    C     C_R   0.750614 0.487734 0.850345 0.304718
C10   C     C_R   0.260650 0.557467 0.151142 0.293395
C11   C     C_R   0.549344 0.537279 0.823791 -0.170615
C12   C     C_R   0.463897 0.518791 0.176163 -0.206761
C13   C     C_R   0.590251 0.554328 0.922054 0.061464
C14   C     C_R   0.447175 0.568564 0.087512 0.051648
C15   C     C_R   0.708816 0.523309 0.986928 -0.100467
C16   C     C_R   0.330507 0.604685 0.025180 -0.090487
C17   C     C_R   0.510543 0.590298 0.957766 -0.130464
C18   C     C_R   0.541975 0.574341 0.057055 -0.128663
C19   C     C_R   0.666149 0.559082 0.121893 0.361258
C20   C     C_R   0.399304 0.639824 0.898330 0.348619
C21   C     C_R   0.746145 0.525304 0.087359 0.308581
C22   C     C_R   0.308871 0.645257 0.931564 0.292802
H1    H     H_    0.545966 0.477448 0.218789 0.238133
H2    H     H_    0.454146 0.545724 0.775465 0.226203
H3    H     H_    0.882890 0.478069 0.997293 0.222795
H4    H     H_    0.145916 0.618782 0.009469 0.220248
C23   C     C_R   0.537732 0.811605 0.499336 -0.126544
C24   C     C_R   0.460764 0.188625 0.496827 -0.135341
C25   C     C_R   0.429171 0.031053 0.579181 -0.102512
C26   C     C_R   0.567184 0.968664 0.415213 -0.097657
C27   C     C_R   0.418623 0.137600 0.560832 -0.214831
C28   C     C_R   0.577148 0.861911 0.433421 -0.222995
C29   C     C_R   0.507223 0.133835 0.445313 0.279961
C30   C     C_R   0.493023 0.866902 0.551458 0.286536
C31   C     C_R   0.518151 0.025928 0.463445 0.008120
C32   C     C_R   0.479738 0.974300 0.531855 0.001656
H5    H     H_    0.609609 0.817727 0.392346 0.189923
H6    H     H_    0.384630 0.181239 0.601225 0.197965
H7    H     H_    0.400253 0.994585 0.632274 0.213867
H8    H     H_    0.594968 0.004892 0.361389 0.210286
N1    N     N_R   0.799120 0.480200 0.517090 -0.187886
N2    N     N_R   0.200880 0.519800 0.482910 -0.187509
C33   C     C_R   0.022100 0.621823 0.433456 0.420932
C34   C     C_R   0.979584 0.379928 0.569428 0.361733
C35   C     C_R   0.136217 0.603782 0.432522 0.467839
C36   C     C_R   0.864612 0.397269 0.569002 0.448368
C37   C     C_R   0.151756 0.446186 0.528797 0.544400
C38   C     C_R   0.849007 0.554663 0.472566 0.577078
C39   C     C_R   0.033224 0.456095 0.524919 -0.191909
C40   C     C_R   0.967910 0.545153 0.477050 -0.173291
N3    N     N_R   0.860342 0.484200 0.155004 0.253421
O9    O     O_R   0.927424 0.532155 0.233769 -0.287372
O10   O     O_R   0.884266 0.388761 0.147927 -0.323568
N4    N     N_R   0.196484 0.693654 0.869937 0.243825
O11   O     O_R   0.138817 0.670733 0.779522 -0.272701
O12   O     O_R   0.159002 0.769123 0.900987 -0.336250
O13   O     O_3   0.817017 0.332712 0.621639 -0.684133
H9    H     H_    0.884940 0.300082 0.677658 0.362329
O14   O     O_3   0.183649 0.668621 0.379932 -0.690960
H10   H     H_    0.115983 0.703279 0.325300 0.367637
O15   O     O_3   0.963746 0.713640 0.393087 -0.641000
H11   H     H_    0.026186 0.770762 0.399810 0.346866
O16   O     O_3   0.038724 0.288750 0.611129 -0.651533
H12   H     H_    0.976807 0.231367 0.605137 0.355650
N5    N     N_R   0.162717 0.549948 0.179959 0.225801
O17   O     O_R   0.137685 0.461365 0.216400 -0.283075
O18   O     O_R   0.083630 0.622666 0.151010 -0.367253
N6    N     N_R   0.838023 0.462193 0.816688 0.215673
O19   O     O_R   0.878788 0.534598 0.772396 -0.318094
O20   O     O_R   0.898798 0.377850 0.851615 -0.357581
O21   O     O_3   0.713053 0.580605 0.218414 -0.698326
H13   H     H_    0.664811 0.636180 0.224797 0.352526
O22   O     O_3   0.381882 0.694350 0.812777 -0.668221
H14   H     H_    0.463092 0.721642 0.818537 0.385014
N7    N     N_R   0.463209 0.813187 0.624686 0.193861
O23   O     O_R   0.545514 0.759103 0.694288 -0.416231
O24   O     O_R   0.350064 0.802885 0.612416 -0.341943
N8    N     N_R   0.545384 0.188700 0.376861 0.198313
O25   O     O_R   0.468991 0.245729 0.305786 -0.379816
O26   O     O_R   0.660160 0.193861 0.393487 -0.360646
O27   O     O_3   0.785345 0.640973 0.423530 -0.665782
H15   H     H_    0.697913 0.622760 0.400926 0.355858
O28   O     O_3   0.216008 0.360625 0.579292 -0.669184
H16   H     H_    0.303205 0.377900 0.599698 0.360457

loop_
_geom_bond_atom_site_label_1
_geom_bond_atom_site_label_2
_geom_bond_distance
_ccdc_geom_bond_type
C15   C21   1.407875 A    
C16   C22   1.408674 A    
O28   H16   0.978432 S    
O16   H12   0.990760 S    
C21   N3    1.436684 S    
C8    C16   1.407383 A    
O7    Zn2   1.903499 S    
O21   H13   0.991669 S    
C25   C27   1.377549 A    
N7    O23   1.300713 A    
C5    C9    1.414459 A    
O4    Zn1   2.006321 S    
O1    C1    1.292780 A    
C29   N8    1.439004 S    
C18   C19   1.422287 A    
C14   C16   1.414071 A    
N6    O20   1.300884 A    
C37   C39   1.429770 A    
C38   C40   1.429739 A    
C20   O22   1.378352 S    
N1    C36   1.360120 A    
C23   C28   1.392657 A    
N3    O10   1.301394 A    
Zn1   N1    2.030632 S    
C3    C5    1.474378 S    
Zn2   N2    2.030634 S    
C4    C6    1.476895 S    
O6    Zn2   1.944865 S    
C13   C17   1.418798 A    
C38   O27   1.374417 S    
N3    O9    1.299751 A    
N2    C35   1.360550 A    
O6    C4    1.301942 A    
N7    O24   1.301502 A    
C39   C40   1.406750 A    
C37   O28   1.375115 S    
C1    C24   1.427290 S    
C17   C20   1.427869 A    
O2    C2    1.293855 A    
C33   C40   1.424124 A    
C30   C32   1.392936 A    
C34   C39   1.424761 A    
C33   C35   1.428361 A    
C26   C31   1.403347 A    
C34   C36   1.427465 A    
O13   H9    0.990052 S    
C22   N4    1.437912 S    
C24   C27   1.392600 A    
O4    C2    1.291682 A    
O27   H15   0.979371 S    
N6    O19   1.301169 A    
C11   H2    1.079495 S    
C31   C32   1.423859 A    
C10   N5    1.431377 S    
N4    O12   1.301273 A    
C9    N6    1.432329 S    
O5    C3    1.300706 A    
N5    O17   1.300819 A    
C19   O21   1.379877 S    
C34   O16   1.381366 S    
N5    O18   1.301205 A    
O22   H14   0.989945 S    
O5    Zn1   1.944865 S    
C6    C10   1.413664 A    
C2    C23   1.427817 S    
N1    C38   1.383860 A    
C29   C31   1.394782 A    
C35   O14   1.378467 S    
O3    Zn2   2.006319 S    
O8    C4    1.309655 A    
C25   C32   1.402031 A    
C25   H7    1.081431 S    
N8    O26   1.301540 A    
O7    C3    1.308657 A    
C12   C14   1.395710 A    
O1    Zn1   1.970321 S    
C30   N7    1.436383 S    
C33   O15   1.381241 S    
C12   H1    1.080259 S    
C6    C12   1.389233 A    
C14   C18   1.412443 A    
O3    C1    1.292868 A    
O8    Zn1   1.903501 S    
C36   O13   1.378321 S    
C7    C15   1.406261 A    
N4    O11   1.301411 A    
C23   C30   1.398296 A    
C11   C13   1.398157 A    
C24   C29   1.401712 A    
C19   C21   1.397948 A    
C20   C22   1.403854 A    
C26   H8    1.081603 S    
C26   C28   1.379386 A    
C7    C9    1.396553 A    
C27   H6    1.084192 S    
C8    C10   1.402432 A    
C28   H5    1.084175 S    
C13   C15   1.418563 A    
O14   H10   0.989857 S    
O2    Zn2   1.970321 S    
N2    C37   1.384924 A    
C5    C11   1.397535 A    
O15   H11   0.990708 S    
N8    O25   1.301244 A    
C17   C18   1.403969 A    
C7    H3    1.082438 S    
C8    H4    1.081928 S    
