data_mof_unit_42414.cif
_audit_creation_date              2013-03-05T15:58:18-0500
_audit_creation_method            fapswitch 2.2
_symmetry_space_group_name_H-M    P1
_symmetry_Int_Tables_number       1
_space_group_crystal_system       triclinic
_cell_length_a                    12.68179
_cell_length_b                    13.168881
_cell_length_c                    15.183423
_cell_angle_alpha                 85.192496
_cell_angle_beta                  99.027545
_cell_angle_gamma                 97.396319
_cell_volume                      2478.21703371

loop_
_atom_site_label
_atom_site_type_symbol
_atom_site_description
_atom_site_fract_x
_atom_site_fract_y
_atom_site_fract_z
_atom_type_partial_charge
O1    O     O_R   0.374950 0.371210 0.521360 -0.573776
O2    O     O_R   0.542050 0.338030 0.492790 -0.562099
C1    C     C_R   0.446941 0.308467 0.517739 0.928505
O3    O     O_R   0.368720 0.526070 0.390200 -0.561361
O4    O     O_R   0.535820 0.492890 0.361630 -0.598665
C2    C     C_R   0.437406 0.518714 0.335022 0.913408
Zn1   Zn    Zn3+2 0.388420 0.522150 0.519080 1.021530
Zn2   Zn    Zn3+2 0.611580 0.477850 0.480920 1.001888
O5    O     O_R   0.457950 0.661970 0.507210 -0.615783
O6    O     O_R   0.625050 0.628790 0.478640 -0.638015
O7    O     O_R   0.464180 0.507110 0.638370 -0.622562
O8    O     O_R   0.631280 0.473930 0.609800 -0.643815
C3    C     C_R   0.556870 0.691986 0.489477 0.874220
C4    C     C_R   0.565434 0.490243 0.664637 0.833528
C5    C     C_R   0.410858 0.557209 0.240403 -0.131976
C6    C     C_R   0.611215 0.499631 0.759131 -0.071289
C7    C     C_R   0.314526 0.661074 0.120005 -0.056147
C8    C     C_R   0.323732 0.614266 0.207862 -0.063638
C9    C     C_R   0.485410 0.547809 0.184524 -0.208417
C10   C     C_R   0.485202 0.602164 0.101842 0.073439
C11   C     C_R   0.396690 0.656746 0.066376 0.056803
C12   C     C_R   0.567645 0.594371 0.050222 0.018040
C13   C     C_R   0.542949 0.609480 0.957446 0.047009
C14   C     C_R   0.460999 0.670907 0.922638 -0.214794
C15   C     C_R   0.394316 0.701816 0.977885 -0.043877
C16   C     C_R   0.673149 0.573096 0.086930 -0.054693
C17   C     C_R   0.741255 0.541805 0.031683 -0.068089
C18   C     C_R   0.702190 0.528187 0.939551 0.048525
C19   C     C_R   0.601986 0.564310 0.902895 0.087704
C20   C     C_R   0.757485 0.480958 0.881657 0.009989
C21   C     C_R   0.711739 0.468376 0.792719 -0.178385
C22   C     C_R   0.557444 0.546998 0.814171 -0.208210
H1    H     H_    0.478135 0.567080 0.787900 0.166559
H2    H     H_    0.754521 0.432385 0.749578 0.177942
H3    H     H_    0.544870 0.496142 0.206066 0.217747
H4    H     H_    0.453001 0.700743 0.853636 0.174543
C23   C     C_R   0.733343 0.948486 0.499780 0.289394
C24   C     C_R   0.593918 0.802377 0.486368 -0.149756
C25   C     C_R   0.310517 0.155490 0.531837 -0.163439
C26   C     C_R   0.276493 0.063063 0.490583 0.217756
C27   C     C_R   0.354644 0.008522 0.465360 0.190451
C28   C     C_R   0.465146 0.035575 0.500653 -0.017560
C29   C     C_R   0.496147 0.131548 0.536179 0.029113
C30   C     C_R   0.545756 0.971145 0.500737 0.054833
C31   C     C_R   0.656367 0.008656 0.519794 -0.067984
C32   C     C_R   0.684910 0.102294 0.561491 0.329987
C33   C     C_R   0.604048 0.160199 0.572196 -0.170004
C34   C     C_R   0.517895 0.866915 0.493032 -0.150920
C35   C     C_R   0.701031 0.845269 0.480287 -0.130009
C36   C     C_R   0.418080 0.197635 0.535421 -0.235685
H5    H     H_    0.436242 0.834612 0.497684 0.198022
H6    H     H_    0.626002 0.228175 0.609713 0.167167
C37   C     C_R   0.143624 0.650622 0.624780 0.235266
N1    N     N_R   0.239390 0.551900 0.544730 -0.181668
C38   C     C_R   0.759516 0.394022 0.382444 0.467707
C39   C     C_R   0.851599 0.400360 0.342313 -0.225206
C40   C     C_R   0.945586 0.453169 0.382309 -0.119850
C41   C     C_R   0.950080 0.492884 0.466204 0.087308
C42   C     C_R   0.852473 0.499975 0.496430 0.146032
C43   C     C_R   0.047501 0.530984 0.517537 -0.132353
C44   C     C_R   0.045611 0.598273 0.585688 -0.098731
C45   C     C_R   0.945621 0.610105 0.611851 0.308187
C46   C     C_R   0.851419 0.561882 0.566233 -0.262384
C47   C     C_R   0.146670 0.500024 0.505910 0.365225
C48   C     C_R   0.239856 0.626732 0.601870 -0.054031
N2    N     N_R   0.759950 0.448600 0.455730 -0.174461
H7    H     H_    0.014231 0.461774 0.347240 0.202843
H8    H     H_    0.850530 0.364098 0.280680 0.202226
H9    H     H_    0.778129 0.576593 0.585667 0.223728
C49   C     C_1   0.330662 0.783520 0.942666 0.281726
N3    N     N_1   0.280793 0.849891 0.914684 -0.076389
C50   C     C_1   0.858786 0.440073 0.909455 0.248435
N4    N     N_1   0.939870 0.406888 0.930652 -0.118843
C51   C     C_1   0.776563 0.787963 0.449435 0.354326
N5    N     N_1   0.837470 0.743534 0.423830 -0.138241
N6    N     N_R   0.792559 0.134245 0.602729 0.233853
O9    O     O_R   0.831284 0.230588 0.596407 -0.344930
O10   O     O_R   0.843192 0.071922 0.660481 -0.301713
N7    N     N_R   0.841456 0.993135 0.493208 0.235637
O11   O     O_R   0.859067 0.077320 0.443688 -0.273893
O12   O     O_R   0.922388 0.949236 0.536058 -0.231863
C52   C     C_1   0.243135 0.195079 0.585911 0.412815
N8    N     N_1   0.190740 0.225199 0.631631 -0.084890
N9    N     N_R   0.324967 0.939420 0.394516 0.210083
O13   O     O_R   0.378638 0.949441 0.327329 -0.344500
O14   O     O_R   0.250546 0.862280 0.399437 -0.343066
N10   N     N_R   0.163848 0.029728 0.468746 0.252527
O15   O     O_R   0.097702 0.095455 0.435043 -0.247128
O16   O     O_R   0.125552 0.936640 0.491725 -0.250045
C53   C     C_1   0.339921 0.681765 0.640268 0.344129
N11   N     N_1   0.419350 0.727149 0.671569 -0.222068
N12   N     N_R   0.937395 0.660750 0.690145 0.242577
O17   O     O_R   0.866714 0.725018 0.686404 -0.340774
O18   O     O_R   0.981319 0.625240 0.767985 -0.340653
N13   N     N_R   0.146671 0.732323 0.682361 0.235862
O19   O     O_R   0.101806 0.814441 0.652721 -0.250770
O20   O     O_R   0.201641 0.728203 0.762133 -0.381078
N14   N     N_R   0.149998 0.405294 0.466213 0.192103
O21   O     O_R   0.198414 0.404364 0.397117 -0.368331
O22   O     O_R   0.085205 0.324753 0.486256 -0.329733
N15   N     N_R   0.664888 0.333007 0.343607 0.227959
O23   O     O_R   0.635411 0.246199 0.385067 -0.340765
O24   O     O_R   0.635118 0.343164 0.257704 -0.419888
C54   C     C_1   0.849988 0.525507 0.071804 0.216954
N16   N     N_1   0.936479 0.513171 0.104843 -0.165416
C55   C     C_1   0.216957 0.707013 0.085274 0.214679
N17   N     N_1   0.138645 0.743043 0.058290 -0.107087
C56   C     C_1   0.242895 0.625804 0.263103 0.313077
N18   N     N_1   0.178208 0.635517 0.306734 -0.136450
C57   C     C_1   0.717415 0.597986 0.177907 0.202199
N19   N     N_1   0.752723 0.618101 0.250192 -0.177420

loop_
_geom_bond_atom_site_label_1
_geom_bond_atom_site_label_2
_geom_bond_distance
_ccdc_geom_bond_type
C5    C8    1.417652 A    
N10   O15   1.301038 A    
Zn2   N2    2.066931 S    
N15   O23   1.298481 A    
C37   N13   1.435204 S    
C27   C28   1.430267 A    
N13   O19   1.300827 A    
C38   C39   1.389834 A    
C32   N6    1.435550 S    
C53   N11   1.157620 T    
N1    C48   1.365303 A    
C31   C32   1.412953 A    
C39   C40   1.379605 A    
C6    C21   1.396620 A    
C5    C9    1.388706 A    
C23   N7    1.435623 S    
C16   C17   1.412934 A    
C14   H4    1.081771 S    
C13   C19   1.411471 A    
C26   N10   1.434461 S    
C18   C19   1.428355 A    
N6    O10   1.301222 A    
C19   C22   1.401908 A    
C42   N2    1.361805 A    
C20   C21   1.398018 A    
O7    C4    1.324809 A    
C55   N17   1.157733 T    
C41   C43   1.410451 A    
C17   C54   1.452338 S    
C56   N18   1.157566 T    
O5    C3    1.327763 A    
C57   N19   1.157240 T    
C2    C5    1.484698 S    
C37   C44   1.410311 A    
N9    O13   1.301363 A    
C34   H5    1.078303 S    
C46   H9    1.063239 S    
C45   N12   1.434780 S    
C13   C14   1.409320 A    
C49   N3    1.157659 T    
C37   C48   1.399921 A    
C16   C57   1.454597 S    
C24   C34   1.384933 A    
C47   N14   1.438350 S    
N15   O24   1.300338 A    
C28   C30   1.409859 A    
C40   H7    1.078948 S    
O3    Zn1   1.930614 S    
C54   N16   1.157879 T    
C1    C36   1.471020 S    
C12   C13   1.397364 A    
C48   C53   1.441304 S    
C51   N5    1.157068 T    
C14   C15   1.397480 A    
O3    C2    1.316953 A    
C25   C26   1.402768 A    
N7    O12   1.300423 A    
C41   C42   1.402430 A    
C39   H8    1.083142 S    
C27   N9    1.440705 S    
C7    C11   1.428763 A    
C43   C44   1.422489 A    
O1    C1    1.317889 A    
Zn1   O7    1.919801 S    
C45   C46   1.388862 A    
C23   C35   1.410337 A    
Zn2   O8    1.930614 S    
N12   O18   1.301393 A    
C7    C8    1.415936 A    
C21   H2    1.085285 S    
N6    O9    1.301559 A    
C3    C24   1.468297 S    
C26   C27   1.411856 A    
C10   C12   1.419930 A    
C52   N8    1.157372 T    
N14   O22   1.301052 A    
N10   O16   1.299440 A    
C4    C6    1.469929 S    
C28   C29   1.400948 A    
C23   C31   1.416253 A    
C38   N2    1.373274 A    
C24   C35   1.416275 A    
C30   C31   1.419011 A    
Zn1   O5    1.943325 S    
C11   C15   1.420099 A    
C32   C33   1.390648 A    
O1    Zn1   1.970856 S    
O2    Zn2   1.943325 S    
C25   C52   1.443157 S    
N9    O14   1.300319 A    
C50   N4    1.157675 T    
O6    C3    1.311545 A    
O4    Zn2   1.919801 S    
C20   C50   1.445083 S    
N13   O20   1.299879 A    
C29   C36   1.397950 A    
C33   H6    1.083901 S    
C6    C22   1.388597 A    
C38   N15   1.429172 S    
C42   C46   1.392895 A    
C43   C47   1.411661 A    
C22   H1    1.079596 S    
C9    C10   1.391844 A    
C18   C20   1.431301 A    
O2    C1    1.321983 A    
O8    C4    1.315698 A    
C9    H3    1.075130 S    
C7    C55   1.452446 S    
C40   C41   1.407336 A    
O4    C2    1.328368 A    
N1    C47   1.356438 A    
N12   O17   1.301647 A    
C44   C45   1.417515 A    
C8    C56   1.452177 S    
N7    O11   1.301339 A    
C25   C36   1.399483 A    
C10   C11   1.421184 A    
Zn2   O6    1.970855 S    
N14   O21   1.297700 A    
C12   C16   1.419728 A    
C17   C18   1.426931 A    
C35   C51   1.446604 S    
C15   C49   1.444636 S    
Zn1   N1    2.079505 S    
C29   C33   1.407378 A    
C30   C34   1.382621 A    
