data_mof_unit_60627.cif
_audit_creation_date              2012-12-10T18:39:03-0500
_audit_creation_method            fapswitch 2.2
_symmetry_space_group_name_H-M    P1
_symmetry_Int_Tables_number       1
_space_group_crystal_system       monoclinic
_cell_length_a                    10.646612
_cell_length_b                    11.569779
_cell_length_c                    10.784956
_cell_angle_alpha                 90.0
_cell_angle_beta                  90.0
_cell_angle_gamma                 89.999967
_cell_volume                      1328.47953365

loop_
_atom_site_label
_atom_site_type_symbol
_atom_type_description
_atom_site_fract_x
_atom_site_fract_y
_atom_site_fract_z
_atom_type_partial_charge
C1    C     C_R   0.500000 0.281199 0.500000 0.990571
C2    C     C_R   0.500000 0.718805 0.500000 0.896518
C3    C     C_1   0.500000 0.161098 0.500000 -0.058395
C4    C     C_3   0.072587 0.423027 0.619944 0.235797
C5    C     C_3   0.072587 0.423027 0.380056 0.235797
C6    C     C_3   0.927413 0.423027 0.619944 0.235797
C7    C     C_3   0.927413 0.423027 0.380056 0.235796
C8    C     C_1   0.500000 0.059197 0.500000 0.077331
C9    C     C_3   0.071873 0.610661 0.500000 -0.568793
C10   C     C_3   0.928127 0.610661 0.500000 -0.568793
C11   C     C_3   0.121566 0.484676 0.500000 -0.142965
C12   C     C_3   0.878434 0.484676 0.500000 -0.142964
C13   C     C_1   0.500000 0.838948 0.500000 -0.155336
C14   C     C_1   0.500000 0.940864 0.500000 0.045626
C15   C     C_R   0.257523 0.492084 0.500000 0.963123
C16   C     C_R   0.742478 0.492084 0.500000 0.963122
C17   C     C_1   0.500000 0.499990 0.069779 0.081277
C18   C     C_1   0.500000 0.499990 0.930221 0.081277
Cl1   Cl    Cl    0.143214 0.283643 0.646984 -0.442508
Cl2   Cl    Cl    0.143214 0.283644 0.353016 -0.442508
Cl3   Cl    Cl    0.856786 0.283643 0.646984 -0.442508
Cl4   Cl    Cl    0.856786 0.283644 0.353016 -0.442508
H1    H     H_    0.102637 0.475352 0.701470 0.103004
H2    H     H_    0.102637 0.475352 0.298530 0.103004
H3    H     H_    0.897363 0.475352 0.701470 0.103004
H4    H     H_    0.897363 0.475352 0.298529 0.103004
H5    H     H_    0.106544 0.658125 0.583107 0.221335
H6    H     H_    0.106544 0.658125 0.416893 0.221334
H7    H     H_    0.893456 0.658125 0.583107 0.221334
H8    H     H_    0.893456 0.658125 0.416893 0.221334
N1    N     N_1   0.500000 0.500010 0.180630 -0.069174
N2    N     N_1   0.500000 0.500010 0.819370 -0.069174
O1    O     O_R   0.500000 0.334450 0.602530 -0.586828
O2    O     O_R   0.500000 0.334450 0.397470 -0.586828
O3    O     O_R   0.314800 0.499980 0.602530 -0.616461
O4    O     O_R   0.314800 0.499980 0.397470 -0.616460
O5    O     O_R   0.685200 0.499980 0.602530 -0.616460
O6    O     O_R   0.685200 0.499980 0.397470 -0.616460
O7    O     O_R   0.500000 0.665550 0.602530 -0.614114
O8    O     O_R   0.500000 0.665550 0.397470 -0.614114
Zn1   Zn    Zn3+2 0.500000 0.500000 0.636920 1.036983
Zn2   Zn    Zn3+2 0.500000 0.500000 0.363080 1.036984

loop_
_geom_bond_atom_site_label_1
_geom_bond_atom_site_label_2
_ccdc_geom_bond_type
N2    Zn1   S    
C5    C11   S    
N1    Zn2   S    
C7    Cl4   S    
C4    Cl1   S    
C9    C10   S    
C10   H8    S    
O4    Zn2   S    
O2    Zn2   S    
C16   O5    A    
O1    Zn1   S    
O8    Zn2   S    
C17   C18   S    
C1    O1    A    
O7    Zn1   S    
C5    Cl2   S    
C13   C14   T    
C4    C11   S    
C6    C12   S    
C9    C11   S    
C10   H7    S    
C5    H2    S    
C7    H4    S    
C17   N1    T    
C10   C12   S    
C15   O3    A    
C1    O2    A    
O6    Zn2   S    
O5    Zn1   S    
C7    C12   S    
O3    Zn1   S    
C6    H3    S    
C18   N2    T    
C2    O8    A    
C15   O4    A    
C2    C13   S    
C9    H5    S    
C4    C6    S    
C3    C8    T    
C5    C7    S    
C4    H1    S    
C8    C14   S    
C6    Cl3   S    
C11   C15   S    
C2    O7    A    
C12   C16   S    
C9    H6    S    
C16   O6    A    
C1    C3    S    
