data_mof_unit_40341.cif
_audit_creation_date              2013-03-05T15:48:18-0500
_audit_creation_method            fapswitch 2.2
_symmetry_space_group_name_H-M    P1
_symmetry_Int_Tables_number       1
_space_group_crystal_system       triclinic
_cell_length_a                    21.14237
_cell_length_b                    7.239123
_cell_length_c                    18.261167
_cell_angle_alpha                 89.985553
_cell_angle_beta                  93.436072
_cell_angle_gamma                 89.987254
_cell_volume                      2789.88749052

loop_
_atom_site_label
_atom_site_type_symbol
_atom_site_description
_atom_site_fract_x
_atom_site_fract_y
_atom_site_fract_z
_atom_type_partial_charge
O1    O     O_R   0.448880 0.506250 0.415280 -0.577825
O2    O     O_R   0.551120 0.006250 0.584720 -0.579308
O3    O     O_R   0.434830 0.174000 0.557310 -0.562035
O4    O     O_R   0.565170 0.674000 0.442690 -0.562117
C1    C     C_R   0.416980 0.344579 0.579640 0.922044
C2    C     C_R   0.583022 0.844579 0.420361 0.922360
O5    O     O_R   0.441680 0.176440 0.414130 -0.577394
O6    O     O_R   0.558320 0.676440 0.585870 -0.577223
O7    O     O_R   0.558020 0.007570 0.440520 -0.563448
O8    O     O_R   0.441980 0.507570 0.559480 -0.562479
C3    C     C_R   0.428023 0.344872 0.388330 0.898373
C4    C     C_R   0.571995 0.844763 0.611669 0.898225
O9    O     O_3   0.538160 0.339670 0.508820 -0.272580
O10   O     O_3   0.461840 0.839670 0.491180 -0.271098
V1    V     V_3+5 0.492920 0.064260 0.498360 1.163754
V2    V     V_3+5 0.507080 0.564260 0.501640 1.164282
C5    C     C_R   0.878127 0.977943 0.686842 0.350986
C6    C     C_R   0.122588 0.490387 0.312569 0.353322
H1    H     H_    0.965157 0.005360 0.753287 0.159583
H2    H     H_    0.035433 0.515302 0.246223 0.159051
H3    H     H_    0.793668 0.994764 0.569655 0.184504
H4    H     H_    0.204618 0.465770 0.431779 0.185484
C7    C     C_R   0.887541 0.942651 0.819411 -0.139704
C8    C     C_R   0.112455 0.442916 0.180608 -0.138715
C9    C     C_R   0.583385 0.809017 0.745644 -0.157142
C10   C     C_R   0.417187 0.318993 0.253950 -0.158118
C11   C     C_R   0.618588 0.802827 0.812323 -0.097067
C12   C     C_R   0.382344 0.319358 0.186978 -0.096377
C13   C     C_R   0.683639 0.835535 0.815787 -0.183530
C14   C     C_R   0.317196 0.350582 0.183584 -0.182576
C15   C     C_R   0.715654 0.876746 0.751862 0.121095
C16   C     C_R   0.284657 0.382467 0.247932 0.121265
C17   C     C_R   0.678817 0.885097 0.683466 0.103969
C18   C     C_R   0.321074 0.383501 0.316683 0.103318
C19   C     C_R   0.782864 0.908804 0.753628 0.074081
C20   C     C_R   0.217416 0.413905 0.246170 0.073846
C21   C     C_R   0.811786 0.946782 0.686618 -0.015017
C22   C     C_R   0.188496 0.451945 0.313160 -0.015360
C23   C     C_R   0.773811 0.958349 0.620896 -0.119892
C24   C     C_R   0.225507 0.446864 0.379703 -0.111908
C25   C     C_R   0.708957 0.926913 0.619257 -0.227091
C26   C     C_R   0.290280 0.413886 0.381425 -0.222875
C27   C     C_R   0.822370 0.906117 0.819673 -0.233960
C28   C     C_R   0.177771 0.408533 0.180262 -0.233566
C29   C     C_R   0.914668 0.979232 0.753300 -0.244048
C30   C     C_R   0.085595 0.483997 0.246481 -0.245171
C31   C     C_R   0.612402 0.850241 0.680840 -0.164988
C32   C     C_R   0.387651 0.351429 0.319164 -0.163336
H5    H     H_    0.804021 0.879754 0.872430 0.104993
H6    H     H_    0.195989 0.379143 0.127679 0.105228
H7    H     H_    0.533003 0.780648 0.744506 0.109191
H8    H     H_    0.467741 0.293397 0.254941 0.108843
H9    H     H_    0.707401 0.826315 0.869458 0.113098
H10   H     H_    0.293872 0.349758 0.129548 0.112627
H11   H     H_    0.595260 0.770825 0.861968 0.116619
H12   H     H_    0.406107 0.294958 0.136979 0.116475
H13   H     H_    0.682411 0.936625 0.566809 0.118675
H14   H     H_    0.316190 0.412314 0.434410 0.115255
C33   C     C_1   0.864631 0.938945 0.132230 -0.296410
C34   C     C_1   0.135368 0.438939 0.867769 -0.296199
C35   C     C_1   0.821828 0.924889 0.176053 0.076337
C36   C     C_1   0.178171 0.424883 0.823947 0.076240
C37   C     C_1   0.771304 0.905762 0.228226 0.013337
C38   C     C_1   0.228696 0.405761 0.771774 0.012763
C39   C     C_1   0.728748 0.889123 0.272235 0.010795
C40   C     C_1   0.271252 0.389127 0.727765 0.010100
C41   C     C_1   0.678185 0.869993 0.324356 0.070543
C42   C     C_1   0.321816 0.370001 0.675644 0.070289
C43   C     C_1   0.635319 0.855937 0.368092 -0.300218
C44   C     C_1   0.364683 0.355942 0.631908 -0.299960
O11   O     O_R   0.058070 0.289240 0.940580 -0.564404
O12   O     O_R   0.941930 0.789240 0.059420 -0.564711
O13   O     O_R   0.058330 0.616740 0.085880 -0.581333
O14   O     O_R   0.941670 0.116740 0.914120 -0.580519
C45   C     C_R   0.071995 0.448765 0.111773 0.928862
C46   C     C_R   0.927989 0.948802 0.888242 0.928862
O15   O     O_R   0.065180 0.619040 0.942700 -0.566197
O16   O     O_R   0.934820 0.119040 0.057300 -0.565889
O17   O     O_R   0.948870 0.787780 0.915270 -0.576827
O18   O     O_R   0.051130 0.287780 0.084730 -0.576455
C47   C     C_R   0.083162 0.450326 0.920168 0.937670
C48   C     C_R   0.916838 0.950327 0.079832 0.937111
O19   O     O_3   0.961870 0.453310 0.991210 -0.275891
O20   O     O_3   0.038130 0.953310 0.008790 -0.275984
V3    V     V_3+5 0.007070 0.728770 0.001630 1.166807
V4    V     V_3+5 0.992930 0.228770 0.998370 1.167839
N1    N     N_R   0.909565 0.006005 0.620114 0.235385
O21   O     O_R   0.903023 0.885404 0.567371 -0.348898
O22   O     O_R   0.953789 0.130453 0.617588 -0.339304
N2    N     N_R   0.092529 0.541658 0.378099 0.236555
O23   O     O_R   0.114756 0.678804 0.417873 -0.367038
O24   O     O_R   0.036720 0.476587 0.390104 -0.327856

loop_
_geom_bond_atom_site_label_1
_geom_bond_atom_site_label_2
_geom_bond_distance
_ccdc_geom_bond_type
C2    C43   1.505604 S    
C40   C42   1.479813 S    
N1    O21   1.301345 A    
C37   C39   1.247625 T    
C7    C29   1.392632 A    
C11   C13   1.393312 A    
O1    C3    1.332644 A    
C33   C48   1.505741 S    
C7    C46   1.477978 S    
O2    C4    1.333055 A    
C26   H14   1.082977 S    
C2    O7    1.352920 A    
O12   V3    1.837447 S    
C12   H12   1.082721 S    
C23   C25   1.388520 A    
O5    C3    1.332398 A    
C14   H10   1.076386 S    
O14   C46   1.330046 A    
C16   C20   1.438157 A    
C19   C21   1.427043 A    
C5    C29   1.399058 A    
C11   H11   1.082745 S    
C7    C27   1.403375 A    
C34   C36   1.247607 T    
C35   C37   1.479840 S    
C36   C38   1.479844 S    
C39   C41   1.479808 S    
C18   C26   1.400856 A    
O18   V4    1.987856 S    
C15   C17   1.433023 A    
C14   C16   1.415731 A    
C19   C27   1.425417 A    
C45   O18   1.330794 A    
C9    C31   1.397408 A    
C10   C32   1.397325 A    
O16   V4    1.859286 S    
O5    V1    1.999550 S    
O15   V3    1.859284 S    
O6    V2    2.000064 S    
C13   C15   1.415795 A    
O13   C45   1.329985 A    
C3    C32   1.482175 S    
C4    C31   1.482432 S    
C6    C30   1.399007 A    
C33   C35   1.247603 T    
C6    N2    1.436983 S    
O20   V3    1.755214 S    
O4    C2    1.360867 A    
C27   H5    1.076952 S    
C41   C43   1.247552 T    
C38   C40   1.247630 T    
O4    V2    1.859251 S    
C9    H7    1.083840 S    
C1    C44   1.505603 S    
C10   H8    1.083810 S    
O11   V4    1.837465 S    
C34   C47   1.505747 S    
O16   C48   1.350636 A    
N2    O24   1.301315 A    
H3    C23   1.080895 S    
O15   C47   1.350668 A    
O6    C4    1.332081 A    
H4    C24   1.080981 S    
O19   V4    1.754884 S    
O1    V2    1.986313 S    
C5    C21   1.420459 A    
O14   V4    2.000102 S    
O2    V1    1.986031 S    
O13   V3    1.999587 S    
N1    O22   1.301337 A    
C17   C31   1.424697 A    
C15   C19   1.438312 A    
C20   C28   1.425381 A    
C18   C32   1.424584 A    
C20   C22   1.426871 A    
O17   V3    1.987571 S    
O3    V1    1.859248 S    
C28   H6    1.077079 S    
C5    N1    1.436972 S    
O3    C1    1.360899 A    
H1    C29   1.084138 S    
C8    C45   1.478061 S    
C9    C11   1.389222 A    
C10   C12   1.389372 A    
C8    C30   1.392832 A    
C12   C14   1.393462 A    
C6    C22   1.420300 A    
C17   C25   1.400723 A    
C1    O8    1.352954 A    
C21   C23   1.405855 A    
O8    V2    1.831040 S    
C22   C24   1.405774 A    
N2    O23   1.301429 A    
C13   H9    1.076268 S    
C8    C28   1.403504 A    
C24   C26   1.388555 A    
O7    V1    1.831024 S    
O12   C48   1.343087 A    
C25   H13   1.082953 S    
C46   O17   1.330642 A    
C42   C44   1.247556 T    
O9    V2    1.755393 S    
O10   V1    1.755725 S    
H2    C30   1.084159 S    
C16   C18   1.432897 A    
O11   C47   1.343118 A    
