data_mof_unit_45339.cif
_audit_creation_date              2012-10-26T21:25:52-0400
_audit_creation_method            fapswitch 2.2
_symmetry_space_group_name_H-M    P1
_symmetry_Int_Tables_number       1
_space_group_crystal_system       triclinic
_cell_length_a                    10.922716
_cell_length_b                    10.887613
_cell_length_c                    12.715721
_cell_angle_alpha                 91.859514
_cell_angle_beta                  90.909389
_cell_angle_gamma                 90.073342
_cell_volume                      1511.19371899

loop_
_atom_site_label
_atom_site_type_symbol
_atom_type_description
_atom_site_fract_x
_atom_site_fract_y
_atom_site_fract_z
_atom_type_partial_charge
C1    C     C_R   0.261895 0.499280 0.502300 0.539995
C2    C     C_R   0.841136 0.606525 0.252404 -0.093421
C3    C     C_R   0.115617 0.502969 0.705758 -0.044263
C4    C     C_R   0.884382 0.497030 0.294242 -0.044269
C5    C     C_R   0.098435 0.606115 0.772636 -0.095807
C6    C     C_R   0.901559 0.393877 0.227370 -0.095795
C7    C     C_R   0.119986 0.599383 0.880804 0.254522
C8    C     C_R   0.879998 0.400597 0.119203 0.254536
C9    C     C_R   0.160575 0.488637 0.923277 0.310999
C10   C     C_R   0.839405 0.511339 0.076725 0.310993
C11   C     C_R   0.934355 0.503297 0.592340 -0.138930
C12   C     C_R   0.738104 0.500722 0.497700 0.540006
C13   C     C_R   0.065644 0.496711 0.407659 -0.138934
C14   C     C_R   0.871665 0.501235 0.495193 -0.005631
C15   C     C_R   0.128334 0.498772 0.504807 -0.005631
C16   C     C_R   0.502320 0.261941 0.501462 0.541045
C17   C     C_R   0.497675 0.738059 0.498538 0.541035
C18   C     C_R   0.938695 0.497811 0.401326 -0.021808
C19   C     C_R   0.061305 0.502196 0.598673 -0.021808
C20   C     C_2   0.478391 0.457056 0.032077 -0.144273
C21   C     C_2   0.521600 0.542948 0.967923 -0.144260
C22   C     C_1   0.520183 0.528212 0.852500 0.198824
C23   C     C_R   0.496165 0.871732 0.496752 -0.001138
C24   C     C_1   0.479813 0.471791 0.147499 0.198807
C25   C     C_R   0.721871 0.246611 0.798297 -0.037062
C26   C     C_R   0.278131 0.753323 0.201724 -0.037076
C27   C     C_R   0.685334 0.190865 0.702348 -0.057872
C28   C     C_R   0.314669 0.809081 0.297668 -0.057845
C29   C     C_R   0.575613 0.123443 0.694993 0.042650
C30   C     C_R   0.424360 0.876557 0.305006 0.042652
C31   C     C_R   0.505613 0.108753 0.785430 -0.065800
C32   C     C_R   0.494320 0.891298 0.214552 -0.065800
C33   C     C_R   0.543230 0.163424 0.881361 -0.098975
C34   C     C_R   0.503820 0.128268 0.503247 -0.001137
C35   C     C_R   0.456701 0.836618 0.118625 -0.098931
C36   C     C_R   0.650270 0.233571 0.887493 -0.057611
C37   C     C_R   0.349697 0.766409 0.112513 -0.057602
C38   C     C_R   0.530904 0.936292 0.589605 -0.139759
C39   C     C_R   0.469078 0.063708 0.410395 -0.139758
C40   C     C_R   0.464165 0.936428 0.405877 -0.031966
C41   C     C_R   0.535816 0.063572 0.594122 -0.031980
C42   C     C_R   0.181441 0.385955 0.855832 0.255935
C43   C     C_R   0.818541 0.614028 0.144164 0.255954
C44   C     C_R   0.158857 0.393470 0.747591 -0.093436
Cl1   Cl    Cl    0.082926 0.727818 0.961532 -0.482023
Cl2   Cl    Cl    0.917045 0.272149 0.038484 -0.482030
Cl3   Cl    Cl    0.177200 0.476259 0.060552 -0.555537
Cl4   Cl    Cl    0.822773 0.523703 0.939450 -0.555529
Cl5   Cl    Cl    0.225862 0.243659 0.905523 -0.535988
Cl6   Cl    Cl    0.774098 0.756316 0.094467 -0.535955
Cu1   Cu    Cu3+1 0.492140 0.492110 0.395880 1.012800
Cu2   Cu    Cu3+1 0.507860 0.507890 0.604120 1.012815
H1    H     H_    0.677052 0.277875 0.961538 0.177268
H2    H     H_    0.194367 0.700178 0.196738 0.188842
H3    H     H_    0.741460 0.201231 0.633706 0.107374
H4    H     H_    0.258571 0.798675 0.366323 0.107370
H5    H     H_    0.421776 0.055427 0.781400 0.153049
H6    H     H_    0.578131 0.944667 0.218566 0.153017
H7    H     H_    0.489086 0.151891 0.950904 0.157450
H8    H     H_    0.510817 0.848187 0.049071 0.157423
H9    H     H_    0.557206 0.887459 0.659444 0.155465
H10   H     H_    0.442775 0.112543 0.340558 0.155455
H11   H     H_    0.168450 0.312223 0.696912 0.154382
H12   H     H_    0.322917 0.722093 0.038473 0.177263
H13   H     H_    0.831544 0.687777 0.303078 0.154390
H14   H     H_    0.060926 0.689706 0.741278 0.170268
H15   H     H_    0.939072 0.310288 0.258733 0.170270
H16   H     H_    0.884373 0.504575 0.665430 0.180154
H17   H     H_    0.115626 0.495431 0.334570 0.180141
H18   H     H_    0.560149 0.627067 0.002121 0.179917
H19   H     H_    0.439837 0.372940 0.997878 0.179888
H20   H     H_    0.805663 0.299708 0.803300 0.188868
N1    N     N_1   0.480320 0.480250 0.239400 -0.175467
N2    N     N_1   0.519680 0.519750 0.760600 -0.175458
O1    O     O_R   0.313000 0.493330 0.412070 -0.501425
O2    O     O_R   0.687000 0.506670 0.587930 -0.501408
O3    O     O_R   0.326280 0.506660 0.587930 -0.498123
O4    O     O_R   0.673720 0.493340 0.412070 -0.498120
O5    O     O_R   0.493370 0.312980 0.412070 -0.504120
O6    O     O_R   0.506630 0.687020 0.587930 -0.504122
O7    O     O_R   0.506650 0.326310 0.587930 -0.493967
O8    O     O_R   0.493350 0.673690 0.412070 -0.493974

loop_
_geom_bond_atom_site_label_1
_geom_bond_atom_site_label_2
_ccdc_geom_bond_type
C27   C29   A    
C1    O3    A    
C14   C18   A    
C32   H6    S    
C2    H13   S    
C28   H4    S    
C15   C19   A    
C11   C19   A    
C9    C42   A    
C17   C23   S    
C13   C18   A    
C7    Cl1   S    
C35   C37   A    
Cu1   O1    S    
Cu2   N2    S    
C11   C14   A    
C27   H3    S    
C24   N1    T    
C23   C40   A    
C33   C36   A    
C17   O8    A    
C36   H1    S    
C16   C34   S    
C20   C24   S    
C12   O4    A    
C31   C33   A    
C20   H19   S    
C3    C19   S    
C1    C15   S    
C38   H9    S    
C4    C18   S    
C33   H7    S    
C21   C22   S    
C34   C41   A    
C42   C44   A    
C26   H2    S    
Cu1   O5    S    
C44   H11   S    
C3    C44   A    
Cu1   Cu2   S    
C1    O1    A    
C32   C35   A    
C38   C41   A    
C4    C6    A    
C39   C40   A    
C5    C7    A    
C6    C8    A    
C42   Cl5   S    
Cu2   O2    S    
C17   O6    A    
C34   C39   A    
C35   H8    S    
C2    C4    A    
C2    C43   A    
C30   C40   S    
C43   Cl6   S    
C25   H20   S    
Cu1   O8    S    
C6    H15   S    
C12   C14   S    
C9    Cl3   S    
C12   O2    A    
C10   Cl4   S    
C22   N2    T    
Cu2   O3    S    
C37   H12   S    
C11   H16   S    
C7    C9    A    
C39   H10   S    
C29   C41   S    
C10   C43   A    
Cu1   N1    S    
C5    H14   S    
C3    C5    A    
C26   C37   A    
C25   C27   A    
C23   C38   A    
C26   C28   A    
C21   H18   S    
C16   O5    A    
C31   H5    S    
C13   C15   A    
Cu1   O4    S    
C29   C31   A    
C30   C32   A    
C13   H17   S    
C28   C30   A    
C16   O7    A    
Cu2   O7    S    
C8    Cl2   S    
C25   C36   A    
C20   C21   D    
C8    C10   A    
Cu2   O6    S    
