data_mof_unit_61723.cif
_audit_creation_date              2012-12-10T17:48:57-0500
_audit_creation_method            fapswitch 2.2
_symmetry_space_group_name_H-M    P1
_symmetry_Int_Tables_number       1
_space_group_crystal_system       triclinic
_cell_length_a                    23.554522
_cell_length_b                    23.540806
_cell_length_c                    38.617415
_cell_angle_alpha                 90.011331
_cell_angle_beta                  90.001447
_cell_angle_gamma                 89.947533
_cell_volume                      21413.0549894

loop_
_atom_site_label
_atom_site_type_symbol
_atom_type_description
_atom_site_fract_x
_atom_site_fract_y
_atom_site_fract_z
_atom_type_partial_charge
C1    C     C_R   0.499979 0.109489 0.500019 0.903084
C2    C     C_R   0.999594 0.500002 0.394465 -0.328066
C3    C     C_R   0.475177 0.046212 0.840079 0.046765
C4    C     C_R   0.046160 0.475459 0.159838 0.050410
C5    C     C_R   0.486589 0.050602 0.160619 0.034041
C6    C     C_R   0.954883 0.527122 0.159825 0.048198
C7    C     C_R   0.513415 0.949469 0.160618 0.034052
C8    C     C_R   0.499982 0.000030 0.323191 -0.081703
C9    C     C_R   0.999162 0.500128 0.322190 -0.079567
C10   C     C_R   0.500004 0.999979 0.677747 -0.079541
C11   C     C_R   0.999976 0.500042 0.678571 -0.116034
C12   C     C_R   0.999968 0.500035 0.823191 -0.081678
C13   C     C_R   0.500003 0.999993 0.605484 -0.326266
C14   C     C_R   0.499990 0.999967 0.822200 -0.079119
C15   C     C_R   0.000615 0.501445 0.177729 -0.086680
C16   C     C_R   0.499999 0.000040 0.178571 -0.116045
C17   C     C_3   0.536481 0.136353 0.390054 0.034279
C18   C     C_3   0.586491 0.119133 0.413128 -0.339570
C19   C     C_3   0.636459 0.159697 0.408764 -0.945983
C20   C     C_3   0.107655 0.424323 0.401402 0.103747
C21   C     C_3   0.134789 0.375427 0.421475 -0.308697
C22   C     C_3   0.198054 0.385530 0.427289 -0.962036
C23   C     C_3   0.463524 0.863664 0.390002 0.034254
C24   C     C_R   0.999994 0.500020 0.606006 -0.328639
C25   C     C_3   0.413544 0.880843 0.413113 -0.339494
C26   C     C_3   0.363581 0.840271 0.408748 -0.946000
C27   C     C_3   0.891760 0.575794 0.402285 0.105421
C28   C     C_3   0.864816 0.625304 0.421904 -0.308480
C29   C     C_3   0.801581 0.615470 0.427991 -0.962000
C30   C     C_3   0.572671 0.890067 0.598007 0.105137
C31   C     C_3   0.622314 0.860695 0.579889 -0.310596
C32   C     C_3   0.610655 0.797572 0.574444 -0.960715
C33   C     C_3   0.902471 0.600730 0.609371 0.049981
C34   C     C_3   0.874097 0.587549 0.574780 -0.288648
C35   C     C_R   0.999995 0.500011 0.895097 -0.304851
C36   C     C_3   0.810383 0.599257 0.576157 -0.969500
C37   C     C_3   0.427337 0.109925 0.598050 0.104983
C38   C     C_3   0.377773 0.139249 0.579829 -0.310566
C39   C     C_3   0.389413 0.202379 0.574415 -0.960742
C40   C     C_3   0.097535 0.399344 0.609386 0.050054
C41   C     C_3   0.125918 0.412532 0.574802 -0.288747
C42   C     C_3   0.189639 0.400864 0.576194 -0.969554
C43   C     C_3   0.036542 0.636342 0.890053 0.034263
C44   C     C_3   0.086542 0.619112 0.913132 -0.339592
C45   C     C_3   0.136527 0.659654 0.908764 -0.945872
C46   C     C_R   0.499993 0.999983 0.894473 -0.328333
C47   C     C_3   0.607752 0.924117 0.902099 0.105832
C48   C     C_3   0.634661 0.874650 0.921764 -0.308404
C49   C     C_3   0.697881 0.884510 0.927900 -0.962020
C50   C     C_3   0.963442 0.363685 0.889997 0.034363
C51   C     C_3   0.913476 0.380878 0.913116 -0.339443
C52   C     C_3   0.863488 0.340338 0.908744 -0.945867
C53   C     C_3   0.392229 0.075839 0.902107 0.105764
C54   C     C_3   0.365313 0.125316 0.921771 -0.308387
C55   C     C_3   0.302095 0.115450 0.927906 -0.961702
C56   C     C_3   0.068325 0.388965 0.097805 0.113942
C57   C     C_R   0.000025 0.500237 0.105461 -0.330381
C58   C     C_3   0.120057 0.352504 0.089084 -0.320590
C59   C     C_3   0.103260 0.291155 0.081547 -0.957366
C60   C     C_3   0.402466 0.100712 0.109380 0.049971
C61   C     C_3   0.374082 0.087519 0.074793 -0.288448
C62   C     C_3   0.310365 0.099207 0.076181 -0.969792
C63   C     C_3   0.927908 0.610770 0.097915 0.104250
C64   C     C_3   0.878365 0.640226 0.079750 -0.310625
C65   C     C_3   0.890038 0.703382 0.074476 -0.960816
C66   C     C_3   0.597538 0.899331 0.109376 0.049981
C67   C     C_3   0.625911 0.912502 0.074787 -0.288643
C68   C     C_R   0.500001 0.000018 0.106006 -0.328645
C69   C     C_3   0.689628 0.900811 0.076168 -0.969511
C70   C     C_3   0.460591 0.101647 0.322411 -0.378631
C71   C     C_3   0.399418 0.090764 0.311101 -0.840699
C72   C     C_3   0.047917 0.402472 0.320636 -0.347294
C73   C     C_3   0.102928 0.416067 0.301221 -0.882763
C74   C     C_3   0.539370 0.898412 0.322360 -0.378596
C75   C     C_3   0.600542 0.909294 0.311052 -0.840716
C76   C     C_3   0.949909 0.597531 0.320991 -0.348754
C77   C     C_3   0.894522 0.583735 0.302041 -0.884550
C78   C     C_3   0.596260 0.948582 0.679104 -0.348154
C79   C     C_R   0.499988 0.000048 0.216146 0.316478
C80   C     C_3   0.581416 0.893483 0.698096 -0.883051
C81   C     C_3   0.977525 0.606781 0.679639 -0.349568
C82   C     C_3   0.029291 0.645149 0.675703 -0.802103
C83   C     C_3   0.403754 0.051387 0.679122 -0.348197
C84   C     C_3   0.418612 0.106473 0.698138 -0.883081
C85   C     C_3   0.022442 0.393306 0.679640 -0.349569
C86   C     C_3   0.970680 0.354932 0.675699 -0.802091
C87   C     C_3   0.960631 0.601673 0.822415 -0.378617
C88   C     C_3   0.899452 0.590820 0.811105 -0.840687
C89   C     C_3   0.549284 0.902599 0.820806 -0.348355
C90   C     C_R   0.000391 0.501032 0.215231 0.355187
C91   C     C_3   0.604746 0.916365 0.801935 -0.884021
C92   C     C_3   0.039300 0.398395 0.822357 -0.378614
C93   C     C_3   0.100474 0.409246 0.811041 -0.840540
C94   C     C_3   0.450687 0.097331 0.820815 -0.348347
C95   C     C_3   0.395224 0.083552 0.801943 -0.884018
C96   C     C_3   0.097345 0.450971 0.178968 -0.342541
C97   C     C_3   0.084528 0.394065 0.196361 -0.881450
C98   C     C_3   0.477540 0.106777 0.179640 -0.349573
C99   C     C_3   0.529306 0.145146 0.175705 -0.802105
C100  C     C_3   0.904345 0.552822 0.179058 -0.347805
C101  C     C_R   0.499997 0.999965 0.784707 0.358141
C102  C     C_3   0.919348 0.607903 0.198034 -0.882793
C103  C     C_3   0.522472 0.893305 0.179639 -0.349524
C104  C     C_3   0.470713 0.854926 0.175700 -0.802197
C105  C     C_R   0.890500 0.499981 0.499705 0.877570
C106  C     C_R   0.999961 0.500049 0.785650 0.349424
C107  C     C_R   0.999966 0.500052 0.716146 0.316466
C108  C     C_R   0.500004 0.999971 0.715238 0.358428
C109  C     C_R   0.999514 0.500494 0.284699 0.361888
C110  C     C_R   0.499980 0.000042 0.285650 0.349434
C111  C     C_R   0.391851 0.500001 0.499999 0.883276
C112  C     C_R   0.500010 0.391855 0.499986 0.883872
C113  C     C_R   0.608149 0.499994 0.500000 0.883272
C114  C     C_R   0.499990 0.608145 0.499992 0.883885
C115  C     C_R   0.891851 0.000005 1.000000 0.883266
C116  C     C_R   0.500021 0.890510 0.500019 0.902933
C117  C     C_R   0.000012 0.891855 0.999986 0.883857
C118  C     C_R   0.108149 0.999995 0.000000 0.883241
C119  C     C_R   0.999993 0.108144 0.999995 0.883848
C120  C     C_R   0.499999 0.999999 0.432592 1.040635
C121  C     C_R   0.999933 0.499998 0.432373 0.943917
C122  C     C_R   0.500001 0.999999 0.567605 0.940685
C123  C     C_R   0.999999 0.500006 0.567806 0.943670
C124  C     C_R   0.999999 0.499999 0.932592 1.040252
C125  C     C_R   0.499999 0.999995 0.932376 0.942931
C126  C     C_R   0.999995 0.499994 0.067600 0.935767
C127  C     C_R   0.109500 0.500016 0.499693 0.878391
C128  C     C_R   0.500000 0.000005 0.067806 0.943685
C129  C     C_1   0.500025 0.169955 0.499740 -0.190852
C130  C     C_1   0.830032 0.499831 0.499785 -0.194005
C131  C     C_1   0.499974 0.830045 0.499748 -0.190944
C132  C     C_1   0.169968 0.500151 0.499760 -0.193667
C133  C     C_1   0.000028 0.669955 0.999729 -0.190831
C134  C     C_1   0.330032 0.999833 0.999782 -0.194092
C135  C     C_1   0.999989 0.330042 0.999788 -0.192963
C136  C     C_1   0.669968 0.000166 0.999781 -0.194088
C137  C     C_1   0.500138 0.220884 0.499616 -0.005222
C138  C     C_R   0.999980 0.609490 0.000014 0.902785
C139  C     C_1   0.779109 0.499669 0.499887 -0.013268
C140  C     C_1   0.499860 0.779115 0.499630 -0.005247
C141  C     C_1   0.220891 0.500298 0.499857 -0.012896
C142  C     C_1   0.000147 0.720884 0.999600 -0.005328
C143  C     C_1   0.279109 0.999674 0.999882 -0.013148
C144  C     C_1   0.999890 0.279113 0.999699 -0.005223
C145  C     C_1   0.720891 0.000325 0.999880 -0.013144
C146  C     C_1   0.500124 0.280414 0.499738 0.005513
C147  C     C_1   0.719583 0.499761 0.499964 0.005709
C148  C     C_1   0.499874 0.719586 0.499757 0.005525
C149  C     C_R   0.390500 0.999981 0.999703 0.877791
C150  C     C_1   0.280417 0.500208 0.499944 0.005703
C151  C     C_1   0.000133 0.780413 0.999728 0.005258
C152  C     C_1   0.219583 0.999766 0.999961 0.005830
C153  C     C_1   0.999900 0.219584 0.999807 0.005940
C154  C     C_1   0.780417 0.000233 0.999958 0.005839
C155  C     C_1   0.500069 0.331354 0.499901 -0.182644
C156  C     C_1   0.668652 0.499885 0.499996 -0.180749
C157  C     C_1   0.499931 0.668646 0.499918 -0.182632
C158  C     C_1   0.331348 0.500095 0.499988 -0.180813
C159  C     C_1   0.000075 0.831353 0.999897 -0.182577
C160  C     C_R   0.000021 0.390510 0.999993 0.897320
C161  C     C_1   0.168652 0.999888 0.999995 -0.180760
C162  C     C_1   0.999946 0.168645 0.999938 -0.182258
C163  C     C_1   0.831348 0.000111 0.999993 -0.180757
C164  C     C_R   0.492682 0.051466 0.377349 0.381924
C165  C     C_R   0.025604 0.454985 0.376327 0.364047
C166  C     C_R   0.507306 0.948562 0.377325 0.381881
C167  C     C_R   0.973220 0.545006 0.376514 0.363969
C168  C     C_R   0.544304 0.972653 0.623509 0.363763
C169  C     C_R   0.981914 0.548830 0.624279 0.408096
C170  C     C_R   0.455703 0.027328 0.623518 0.363806
C171  C     C_R   0.609500 0.000018 0.999704 0.877811
C172  C     C_R   0.018070 0.451224 0.624282 0.408098
C173  C     C_R   0.992706 0.551474 0.877351 0.381897
C174  C     C_R   0.526218 0.954979 0.876429 0.364106
C175  C     C_R   0.007270 0.448560 0.877324 0.381929
C176  C     C_R   0.473762 0.044976 0.876432 0.364127
C177  C     C_R   0.044218 0.472871 0.123557 0.368392
C178  C     C_R   0.481922 0.048826 0.124281 0.408095
C179  C     C_R   0.956067 0.528192 0.123454 0.364614
C180  C     C_R   0.518083 0.951222 0.124281 0.408094
C181  C     C_R   0.485425 0.050336 0.341190 0.041601
C182  C     C_R   0.499997 0.000009 0.395097 -0.304911
C183  C     C_R   0.023855 0.453735 0.339978 0.044643
C184  C     C_R   0.514547 0.949713 0.341165 0.041609
C185  C     C_R   0.974466 0.546344 0.340160 0.046373
C186  C     C_R   0.545644 0.974110 0.659862 0.046421
C187  C     C_R   0.986573 0.550605 0.660618 0.034036
C188  C     C_R   0.454364 0.025857 0.659871 0.046400
C189  C     C_R   0.013393 0.449470 0.660619 0.034041
C190  C     C_R   0.985441 0.550348 0.841191 0.041605
C191  C     C_R   0.524799 0.953727 0.840076 0.046759
C192  C     C_R   0.014507 0.449709 0.841163 0.041558
H1    H     H_    0.524311 0.180749 0.396427 0.177080
H2    H     H_    0.113294 0.370903 0.446951 0.238305
H3    H     H_    0.937804 0.634441 0.122075 0.140164
H4    H     H_    0.871022 0.619822 0.054178 0.237176
H5    H     H_    0.839270 0.635397 0.095605 0.223112
H6    H     H_    0.894213 0.725089 0.099891 0.263693
H7    H     H_    0.854310 0.723017 0.060022 0.269494
H8    H     H_    0.929700 0.709498 0.059468 0.271991
H9    H     H_    0.607485 0.854636 0.116391 0.161186
H10   H     H_    0.616698 0.926871 0.129864 0.113922
H11   H     H_    0.606615 0.885786 0.054195 0.249557
H12   H     H_    0.618995 0.957973 0.068459 0.204686
H13   H     H_    0.129199 0.335201 0.406783 0.222929
H14   H     H_    0.710224 0.928694 0.095673 0.267278
H15   H     H_    0.708814 0.909381 0.050463 0.277186
H16   H     H_    0.697738 0.855665 0.082929 0.262238
H17   H     H_    0.397056 0.056092 0.291771 0.266849
H18   H     H_    0.372930 0.079411 0.333872 0.266858
H19   H     H_    0.381726 0.129836 0.299122 0.241282
H20   H     H_    0.459432 0.139805 0.339211 0.229480
H21   H     H_    0.487033 0.113101 0.299683 0.203773
H22   H     H_    0.094144 0.439263 0.276856 0.274624
H23   H     H_    0.132007 0.441862 0.317425 0.253206
H24   H     H_    0.220743 0.387100 0.402092 0.264605
H25   H     H_    0.124766 0.375860 0.294194 0.247039
H26   H     H_    0.056940 0.366805 0.338611 0.239672
H27   H     H_    0.015898 0.385662 0.302218 0.208816
H28   H     H_    0.602903 0.943980 0.291740 0.266844
H29   H     H_    0.627036 0.920628 0.333827 0.266866
H30   H     H_    0.618226 0.870229 0.299052 0.241276
H31   H     H_    0.540528 0.860241 0.339140 0.229471
H32   H     H_    0.512922 0.886975 0.299628 0.203769
H33   H     H_    0.902614 0.558766 0.278256 0.273229
H34   H     H_    0.865106 0.559555 0.318907 0.253240
H35   H     H_    0.216012 0.350333 0.442993 0.269532
H36   H     H_    0.873386 0.623875 0.294140 0.248204
H37   H     H_    0.941173 0.633224 0.339006 0.240269
H38   H     H_    0.981462 0.614378 0.302297 0.208468
H39   H     H_    0.556533 0.902094 0.721836 0.273237
H40   H     H_    0.556792 0.864410 0.681247 0.253362
H41   H     H_    0.621124 0.871655 0.706079 0.247556
H42   H     H_    0.631793 0.939129 0.661121 0.239837
H43   H     H_    0.613645 0.979884 0.697789 0.208115
H44   H     H_    0.067628 0.623814 0.686284 0.259381
H45   H     H_    0.036574 0.655605 0.648019 0.279351
H46   H     H_    0.204912 0.426100 0.441278 0.271719
H47   H     H_    0.022282 0.685317 0.690170 0.234484
H48   H     H_    0.939535 0.629407 0.670011 0.192740
H49   H     H_    0.968982 0.600920 0.707623 0.204061
H50   H     H_    0.443462 0.097839 0.721887 0.273254
H51   H     H_    0.443276 0.135532 0.681310 0.253351
H52   H     H_    0.378910 0.128326 0.706110 0.247565
H53   H     H_    0.368224 0.060857 0.661142 0.239843
H54   H     H_    0.386362 0.020080 0.697793 0.208131
H55   H     H_    0.932339 0.376271 0.686276 0.259385
H56   H     H_    0.963403 0.344460 0.648013 0.279345
H57   H     H_    0.475712 0.819262 0.396335 0.177075
H58   H     H_    0.977689 0.314773 0.690165 0.234485
H59   H     H_    0.060435 0.370677 0.670015 0.192765
H60   H     H_    0.030980 0.399186 0.707625 0.204062
H61   H     H_    0.897075 0.556152 0.791772 0.266836
H62   H     H_    0.872960 0.579475 0.833875 0.266863
H63   H     H_    0.881778 0.629902 0.799128 0.241294
H64   H     H_    0.959489 0.639830 0.839216 0.229493
H65   H     H_    0.987078 0.613117 0.799688 0.203784
H66   H     H_    0.596756 0.941385 0.778165 0.273348
H67   H     H_    0.634143 0.940494 0.818844 0.253168
H68   H     H_    0.449497 0.863433 0.362444 0.130589
H69   H     H_    0.625862 0.876218 0.794020 0.248066
H70   H     H_    0.557885 0.866787 0.838751 0.240181
H71   H     H_    0.517727 0.885939 0.802046 0.208435
H72   H     H_    0.102846 0.443926 0.791726 0.266813
H73   H     H_    0.126980 0.420572 0.833812 0.266923
H74   H     H_    0.118136 0.370170 0.799042 0.241288
H75   H     H_    0.040444 0.360225 0.839138 0.229506
H76   H     H_    0.012839 0.386970 0.799628 0.203782
H77   H     H_    0.403211 0.058508 0.778177 0.273348
H78   H     H_    0.365824 0.059444 0.818853 0.253170
H79   H     H_    0.427193 0.880208 0.440517 0.249033
H80   H     H_    0.374113 0.123695 0.794022 0.248085
H81   H     H_    0.442085 0.133149 0.838762 0.240202
H82   H     H_    0.482240 0.113986 0.802055 0.208433
H83   H     H_    0.051915 0.398605 0.216814 0.273327
H84   H     H_    0.069766 0.362461 0.177112 0.255911
H85   H     H_    0.123812 0.377525 0.208663 0.247251
H86   H     H_    0.133767 0.444521 0.161141 0.238899
H87   H     H_    0.112815 0.481660 0.198617 0.205737
H88   H     H_    0.567644 0.123810 0.186285 0.259379
H89   H     H_    0.536589 0.155601 0.148020 0.279353
H90   H     H_    0.399339 0.924469 0.406377 0.222525
H91   H     H_    0.522297 0.185314 0.190170 0.234473
H92   H     H_    0.439550 0.129404 0.170012 0.192749
H93   H     H_    0.468997 0.100915 0.207624 0.204057
H94   H     H_    0.943887 0.599204 0.221895 0.273622
H95   H     H_    0.944359 0.636735 0.181247 0.253310
H96   H     H_    0.879702 0.630035 0.205823 0.247382
H97   H     H_    0.868841 0.562349 0.161069 0.239465
H98   H     H_    0.886882 0.521598 0.197757 0.208210
H99   H     H_    0.432371 0.876261 0.186279 0.259382
H100  H     H_    0.463434 0.844452 0.148015 0.279350
H101  H     H_    0.348551 0.840521 0.381482 0.264357
H102  H     H_    0.477727 0.814768 0.190167 0.234460
H103  H     H_    0.560466 0.870680 0.170012 0.192740
H104  H     H_    0.531014 0.899186 0.207623 0.204053
H105  H     H_    0.550470 0.136620 0.362490 0.130610
H106  H     H_    0.328112 0.853915 0.425775 0.269309
H107  H     H_    0.376221 0.796407 0.416061 0.266787
H108  H     H_    0.889168 0.537020 0.418748 0.121221
H109  H     H_    0.867253 0.568501 0.378103 0.140416
H110  H     H_    0.886508 0.630560 0.447267 0.237421
H111  H     H_    0.870335 0.665083 0.406765 0.223080
H112  H     H_    0.778706 0.613205 0.402875 0.264625
H113  H     H_    0.783788 0.651145 0.443368 0.269421
H114  H     H_    0.794767 0.575328 0.442420 0.271962
H115  H     H_    0.534976 0.888609 0.580614 0.120402
H116  H     H_    0.572884 0.119740 0.440539 0.249077
H117  H     H_    0.562770 0.866405 0.622161 0.139749
H118  H     H_    0.629811 0.881230 0.554377 0.237158
H119  H     H_    0.661313 0.865435 0.595843 0.222849
H120  H     H_    0.606172 0.775751 0.599798 0.263661
H121  H     H_    0.646534 0.777978 0.560106 0.269413
H122  H     H_    0.571165 0.791559 0.559249 0.271985
H123  H     H_    0.892536 0.645432 0.616387 0.161187
H124  H     H_    0.883303 0.573205 0.629856 0.113929
H125  H     H_    0.893402 0.614249 0.554190 0.249547
H126  H     H_    0.881001 0.542072 0.568451 0.204704
H127  H     H_    0.600674 0.075511 0.406355 0.222516
H128  H     H_    0.789778 0.571390 0.595659 0.267284
H129  H     H_    0.791197 0.590679 0.550450 0.277197
H130  H     H_    0.802284 0.644409 0.582920 0.262233
H131  H     H_    0.465126 0.111404 0.580734 0.120255
H132  H     H_    0.437086 0.133605 0.622226 0.139926
H133  H     H_    0.370437 0.118697 0.554301 0.237259
H134  H     H_    0.338686 0.134485 0.595699 0.222876
H135  H     H_    0.393693 0.224221 0.599781 0.263664
H136  H     H_    0.353622 0.221931 0.559978 0.269447
H137  H     H_    0.429009 0.208419 0.559328 0.271938
H138  H     H_    0.651449 0.159475 0.381490 0.264369
H139  H     H_    0.107487 0.354648 0.616396 0.161183
H140  H     H_    0.116683 0.426879 0.629880 0.113929
H141  H     H_    0.106641 0.385812 0.554205 0.249537
H142  H     H_    0.118989 0.458002 0.568475 0.204652
H143  H     H_    0.210216 0.428751 0.595704 0.267288
H144  H     H_    0.208834 0.409447 0.550493 0.277168
H145  H     H_    0.197762 0.355720 0.582954 0.262256
H146  H     H_    0.024388 0.680744 0.896420 0.177093
H147  H     H_    0.050535 0.636594 0.862490 0.130629
H148  H     H_    0.072932 0.619734 0.940543 0.248986
H149  H     H_    0.671948 0.146023 0.425763 0.269304
H150  H     H_    0.100709 0.575481 0.906366 0.222551
H151  H     H_    0.151520 0.659415 0.881491 0.264390
H152  H     H_    0.172009 0.645973 0.925767 0.269324
H153  H     H_    0.123926 0.703521 0.916106 0.266771
H154  H     H_    0.610396 0.962941 0.918524 0.121070
H155  H     H_    0.632254 0.931309 0.877911 0.140368
H156  H     H_    0.612917 0.869442 0.947112 0.237523
H157  H     H_    0.629179 0.834841 0.906641 0.223040
H158  H     H_    0.720808 0.886756 0.902802 0.264623
H159  H     H_    0.715653 0.848856 0.943297 0.269429
H160  H     H_    0.623841 0.203556 0.416113 0.266791
H161  H     H_    0.704652 0.924669 0.942330 0.271907
H162  H     H_    0.975609 0.319274 0.896322 0.177124
H163  H     H_    0.949407 0.363474 0.862441 0.130549
H164  H     H_    0.927130 0.380216 0.940520 0.249291
H165  H     H_    0.899295 0.424516 0.906392 0.222514
H166  H     H_    0.848453 0.340615 0.881479 0.264350
H167  H     H_    0.828031 0.353990 0.925777 0.269327
H168  H     H_    0.876104 0.296461 0.916045 0.266823
H169  H     H_    0.389595 0.037027 0.918535 0.121074
H170  H     H_    0.367724 0.068622 0.877921 0.140360
H171  H     H_    0.110696 0.463652 0.417359 0.120727
H172  H     H_    0.387057 0.130547 0.947119 0.237545
H173  H     H_    0.370787 0.165115 0.906646 0.223098
H174  H     H_    0.279167 0.113183 0.902808 0.264598
H175  H     H_    0.284318 0.151112 0.943302 0.269605
H176  H     H_    0.295331 0.075301 0.942337 0.271860
H177  H     H_    0.039527 0.389892 0.075007 0.133502
H178  H     H_    0.045264 0.368794 0.119792 0.124796
H179  H     H_    0.141909 0.370490 0.066052 0.233689
H180  H     H_    0.150129 0.353119 0.111272 0.222588
H181  H     H_    0.082651 0.271880 0.104590 0.263609
H182  H     H_    0.131725 0.430650 0.376952 0.141879
H183  H     H_    0.141734 0.266031 0.075059 0.268444
H184  H     H_    0.073566 0.289393 0.059281 0.273147
H185  H     H_    0.392524 0.145413 0.116395 0.161173
H186  H     H_    0.383310 0.073188 0.129870 0.113934
H187  H     H_    0.393370 0.114225 0.054200 0.249570
H188  H     H_    0.380998 0.042045 0.068463 0.204654
H189  H     H_    0.289777 0.071333 0.095686 0.267294
H190  H     H_    0.291171 0.090624 0.050478 0.277245
H191  H     H_    0.302254 0.144357 0.082946 0.262050
H192  H     H_    0.965645 0.612107 0.080551 0.120440
N1    N     N_R   0.540382 0.029038 0.268088 -0.195559
N2    N     N_R   0.535514 0.034790 0.767156 -0.193208
N3    N     N_R   0.959553 0.471068 0.768076 -0.195555
N4    N     N_R   0.464485 0.965142 0.767141 -0.193214
N5    N     N_R   0.035525 0.535882 0.233056 -0.193283
N6    N     N_R   0.540570 0.028792 0.233731 -0.181523
N7    N     N_R   0.964802 0.465938 0.232526 -0.194984
N8    N     N_R   0.459401 0.971302 0.233718 -0.181519
N9    N     N_R   0.035034 0.535670 0.267407 -0.192636
N10   N     N_R   0.459580 0.971050 0.268075 -0.195569
N11   N     N_R   0.964463 0.465567 0.266875 -0.192923
N12   N     N_R   0.535614 0.034694 0.732804 -0.193175
N13   N     N_R   0.040556 0.528786 0.733730 -0.181513
N14   N     N_R   0.464392 0.965244 0.732789 -0.193186
N15   N     N_R   0.959372 0.471318 0.733719 -0.181508
N16   N     N_R   0.040370 0.529034 0.768087 -0.195544
O1    O     O_R   0.546640 0.082440 0.499910 -0.635671
O2    O     O_R   0.417560 0.046640 0.999910 -0.638589
O3    O     O_R   0.953360 0.417560 0.999910 -0.635414
O4    O     O_R   0.582440 0.953360 0.999910 -0.638621
O5    O     O_R   0.046640 0.417560 0.000090 -0.604704
O6    O     O_R   0.417560 0.953360 0.000090 -0.610447
O7    O     O_R   0.953360 0.582440 0.000090 -0.608889
O8    O     O_R   0.582440 0.046640 0.000090 -0.610423
O9    O     O_R   0.546640 0.999670 0.448980 -0.627312
O10   O     O_R   0.000330 0.546640 0.448980 -0.583071
O11   O     O_R   0.453360 0.000330 0.448980 -0.627327
O12   O     O_R   0.917560 0.546640 0.499910 -0.638598
O13   O     O_R   0.999670 0.453360 0.448980 -0.583033
O14   O     O_R   0.546640 0.000330 0.551020 -0.584385
O15   O     O_R   0.000330 0.453360 0.551020 -0.581748
O16   O     O_R   0.453360 0.999670 0.551020 -0.584379
O17   O     O_R   0.999670 0.546640 0.551020 -0.581780
O18   O     O_R   0.046640 0.499670 0.948980 -0.627163
O19   O     O_R   0.500330 0.046640 0.948980 -0.583095
O20   O     O_R   0.953360 0.500330 0.948980 -0.627419
O21   O     O_R   0.499670 0.953360 0.948980 -0.583118
O22   O     O_R   0.046640 0.500330 0.051020 -0.586342
O23   O     O_R   0.453360 0.917560 0.499910 -0.635634
O24   O     O_R   0.500330 0.953360 0.051020 -0.581761
O25   O     O_R   0.953360 0.499670 0.051020 -0.583351
O26   O     O_R   0.499670 0.046640 0.051020 -0.581750
O27   O     O_R   0.418280 0.499620 0.470400 -0.609712
O28   O     O_R   0.500380 0.418280 0.470400 -0.609975
O29   O     O_R   0.581720 0.500380 0.470400 -0.609713
O30   O     O_R   0.499620 0.581720 0.470400 -0.609958
O31   O     O_R   0.418280 0.500380 0.529600 -0.608724
O32   O     O_R   0.500380 0.581720 0.529600 -0.608962
O33   O     O_R   0.581720 0.499620 0.529600 -0.608721
O34   O     O_R   0.082440 0.453360 0.499910 -0.638768
O35   O     O_R   0.499620 0.418280 0.529600 -0.608950
O36   O     O_R   0.918280 0.999620 0.970400 -0.609696
O37   O     O_R   0.000380 0.918280 0.970400 -0.609952
O38   O     O_R   0.081720 0.000380 0.970400 -0.609678
O39   O     O_R   0.999620 0.081720 0.970400 -0.609982
O40   O     O_R   0.918280 0.000380 0.029600 -0.608722
O41   O     O_R   0.000380 0.081720 0.029600 -0.608803
O42   O     O_R   0.081720 0.999620 0.029600 -0.608749
O43   O     O_R   0.999620 0.918280 0.029600 -0.608994
O44   O     O_3   0.488214 0.101588 0.396105 -0.640392
O45   O     O_R   0.546640 0.917560 0.500090 -0.608900
O46   O     O_3   0.050453 0.410519 0.394314 -0.624999
O47   O     O_3   0.511792 0.898430 0.396057 -0.640383
O48   O     O_3   0.948787 0.589539 0.394662 -0.625121
O49   O     O_3   0.588076 0.946775 0.605435 -0.625138
O50   O     O_3   0.962383 0.596025 0.606318 -0.610301
O51   O     O_3   0.411932 0.053213 0.605451 -0.625131
O52   O     O_3   0.037622 0.404024 0.606325 -0.610296
O53   O     O_3   0.988262 0.601597 0.896107 -0.640425
O54   O     O_3   0.550714 0.910387 0.894485 -0.625122
O55   O     O_3   0.011728 0.398425 0.896055 -0.640257
O56   O     O_R   0.917560 0.453360 0.500090 -0.610499
O57   O     O_3   0.449263 0.089574 0.894492 -0.625097
O58   O     O_3   0.086817 0.444614 0.105771 -0.624887
O59   O     O_3   0.462378 0.096017 0.106321 -0.610294
O60   O     O_3   0.912372 0.554106 0.105341 -0.624872
O61   O     O_3   0.537625 0.904020 0.106321 -0.610299
O62   O     O_R   0.453360 0.082440 0.500090 -0.608975
O63   O     O_R   0.082440 0.546640 0.500090 -0.610548
O64   O     O_R   0.046640 0.582440 0.999910 -0.635750
Zn1   Zn    Zn3+2 0.562320 0.000000 0.500000 0.974601
Zn2   Zn    Zn3+2 0.500000 0.500000 0.538280 0.973345
Zn3   Zn    Zn3+2 1.000000 0.000000 0.961720 0.970227
Zn4   Zn    Zn3+2 0.000000 0.000000 0.038280 0.973427
Zn5   Zn    Zn3+2 0.000000 0.562320 0.500000 0.975801
Zn6   Zn    Zn3+2 0.437680 0.000000 0.500000 0.974545
Zn7   Zn    Zn3+2 0.000000 0.437680 0.500000 0.975703
Zn8   Zn    Zn3+2 0.062320 0.500000 0.000000 0.979457
Zn9   Zn    Zn3+2 0.500000 0.062320 0.000000 0.975741
Zn10  Zn    Zn3+2 0.937680 0.500000 0.000000 0.974719
Zn11  Zn    Zn3+2 0.500000 0.937680 0.000000 0.975635
Zn12  Zn    Zn3+2 0.500000 0.500000 0.461720 0.970118

loop_
_geom_bond_atom_site_label_1
_geom_bond_atom_site_label_2
_ccdc_geom_bond_type
C104  H100  S    
C119  O41   A    
C6    C179  A    
C117  C159  S    
C4    C177  A    
C103  H104  S    
C49   H159  S    
C60   H186  S    
C175  O55   S    
C69   H14   S    
C35   C124  S    
C33   H124  S    
C1    C129  S    
C168  O49   S    
C47   H154  S    
C85   C189  S    
C167  C185  A    
O29   Zn12  S    
C52   H168  S    
C59   H183  S    
C131  C140  T    
C134  C143  T    
C65   H7    S    
O2    Zn9   S    
C19   H138  S    
C44   H148  S    
C112  C155  S    
C46   C174  A    
C26   H101  S    
C78   C186  S    
C21   H2    S    
C51   H165  S    
C68   C128  S    
C54   H172  S    
C174  C191  A    
C77   H34   S    
C21   C22   S    
C90   N7    A    
C70   H21   S    
C37   H131  S    
O40   Zn4   S    
C39   H137  S    
C31   H118  S    
C12   C192  A    
C51   C52   S    
C165  C183  A    
C137  C146  S    
C166  C184  A    
C169  C187  A    
N8    N10   A    
C48   H156  S    
C93   H74   S    
C74   H31   S    
C142  C151  S    
C43   C44   S    
C38   H134  S    
C114  C157  S    
C42   H144  S    
C37   C38   S    
C27   H108  S    
C70   C181  S    
C136  C171  S    
C32   H122  S    
O41   Zn4   S    
C84   H52   S    
C97   H83   S    
C2    C165  A    
C50   H163  S    
C111  O31   A    
C99   H89   S    
C87   H64   S    
C71   H19   S    
C76   H38   S    
C62   H191  S    
C117  O37   A    
C18   H127  S    
C109  N9    A    
C2    C121  S    
O20   Zn10  S    
O17   Zn5   S    
C69   H16   S    
C63   H192  S    
C72   C73   S    
C56   H177  S    
C88   H61   S    
C12   C106  S    
C72   H26   S    
C115  O36   A    
C81   H48   S    
C35   C175  A    
C59   H181  S    
O3    Zn10  S    
O45   Zn1   S    
C125  O19   A    
C44   H150  S    
O38   Zn3   S    
O32   Zn2   S    
C26   H107  S    
C124  O18   A    
C115  C163  S    
C106  N3    A    
C174  O54   S    
C67   H11   S    
C48   H157  S    
C92   H76   S    
C3    C176  A    
C129  C137  T    
C20   C21   S    
C77   H36   S    
C98   C99   S    
C117  O43   A    
C91   H66   S    
C90   N5    A    
O23   Zn6   S    
C120  C182  S    
O22   Zn8   S    
C8    C181  A    
C86   H55   S    
C70   H20   S    
C60   O59   S    
C10   C108  S    
C166  C182  A    
C87   H65   S    
C94   H81   S    
C95   H80   S    
C53   C54   S    
N7    N11   A    
C133  C142  T    
O34   Zn7   S    
C32   H121  S    
C111  C158  S    
C58   H179  S    
C78   C80   S    
C74   C184  S    
O39   Zn3   S    
O63   Zn5   S    
O31   Zn2   S    
C102  H96   S    
C79   N6    A    
C97   H85   S    
C164  C181  A    
C47   H155  S    
C77   H33   S    
C31   C32   S    
C71   H17   S    
C62   H189  S    
C100  H98   S    
C169  O50   S    
C89   H71   S    
C89   C91   S    
O27   Zn12  S    
C91   H69   S    
C40   H139  S    
C109  N11   A    
C66   C67   S    
O64   Zn8   S    
C126  O25   A    
C4    C96   S    
C82   H47   S    
C66   H9    S    
C112  O28   A    
C80   H40   S    
O10   Zn5   S    
C120  O9    A    
O4    Zn11  S    
C141  C150  S    
C33   C34   S    
C88   H63   S    
N4    N14   A    
C17   H105  S    
C168  C186  A    
C18   H116  S    
C35   C173  A    
C175  C192  A    
C128  O24   A    
C43   H146  S    
C13   C168  A    
C31   H119  S    
C25   C26   S    
C134  C149  S    
C32   H120  S    
C24   C123  S    
C19   H160  S    
C124  O20   A    
C6    C100  S    
O36   Zn3   S    
C28   H111  S    
C24   C169  A    
C8    C110  S    
C55   H176  S    
C83   C84   S    
C78   H42   S    
C149  O2    A    
C83   H53   S    
C23   O47   S    
C17   C18   S    
C118  O42   A    
C167  O48   S    
C25   H79   S    
C61   H188  S    
C145  C154  S    
C45   H151  S    
C23   H68   S    
C85   H59   S    
C87   C190  S    
C41   H141  S    
C36   H130  S    
C83   C188  S    
C56   O58   S    
O19   Zn9   S    
C103  C104  S    
C95   H78   S    
C132  C141  T    
C127  O63   A    
C54   C55   S    
C40   C41   S    
C53   H170  S    
C105  O56   A    
C7    C16   A    
C39   H136  S    
C116  O23   A    
C103  H103  S    
C105  C130  S    
C49   H158  S    
O37   Zn3   S    
C20   H171  S    
C101  N2    A    
C102  H94   S    
O5    Zn8   S    
C33   H123  S    
C121  O13   A    
C57   C177  A    
C64   H4    S    
C10   C186  A    
C56   C58   S    
C7    C180  A    
C34   C36   S    
C29   H114  S    
C118  O38   A    
C61   C62   S    
C24   C172  A    
C30   H117  S    
C5    C178  A    
C91   H67   S    
C63   O60   S    
C29   H112  S    
C65   H6    S    
C66   H10   S    
C40   H140  S    
C110  N10   A    
C170  C188  A    
C108  N12   A    
C149  O6    A    
C34   H125  S    
C53   O57   S    
C160  O5    A    
C54   H173  S    
C87   C88   S    
N5    N9    A    
C82   H44   S    
C41   C42   S    
C46   C125  S    
N2    N12   A    
C165  O46   S    
C43   O53   S    
O18   Zn8   S    
C112  O35   A    
C28   C29   S    
C33   O50   S    
C22   H24   S    
C55   H174  S    
C30   C31   S    
C98   H92   S    
C172  O52   S    
C93   H73   S    
C104  H102  S    
C82   H45   S    
C74   H32   S    
C173  C190  A    
O56   Zn7   S    
C113  O29   A    
C18   C19   S    
C40   O52   S    
C81   H49   S    
C127  O34   A    
C176  O57   S    
C146  C155  T    
C75   H30   S    
C19   H149  S    
O6    Zn11  S    
C106  N16   A    
C70   C71   S    
C138  O7    A    
C98   H93   S    
C93   H72   S    
O62   Zn6   S    
C104  H99   S    
C133  C138  S    
C64   H5    S    
C130  C139  T    
C119  C162  S    
O1    Zn1   S    
C9    C109  S    
C60   H185  S    
C69   H15   S    
O15   Zn7   S    
C101  N4    A    
C105  O12   A    
C179  O60   S    
N13   N16   A    
C57   C179  A    
C56   H178  S    
C177  O58   S    
C14   C101  S    
C88   H62   S    
C58   C59   S    
C85   C86   S    
C60   C61   S    
C11   C189  A    
O33   Zn2   S    
C113  O33   A    
C30   H115  S    
C52   H167  S    
C59   H184  S    
C9    C183  A    
C65   H8    S    
C43   H147  S    
C1    O1    A    
O16   Zn6   S    
O8    Zn9   S    
C20   H182  S    
C50   C51   S    
C147  C156  T    
C126  O22   A    
C3    C14   A    
C143  C152  S    
C122  O16   A    
C170  O51   S    
C63   H3    S    
O30   Zn12  S    
C113  C156  S    
C37   H132  S    
N3    N15   A    
C44   C45   S    
C110  N1    A    
C166  O47   S    
C86   H56   S    
C135  C160  S    
C150  C158  T    
C96   H87   S    
C80   H41   S    
C171  O8    A    
C72   C183  S    
C94   H82   S    
C47   O54   S    
C172  C189  A    
C153  C162  T    
C16   C79   S    
C64   C65   S    
C114  O32   A    
C38   H133  S    
C42   H143  S    
C23   H57   S    
C36   H128  S    
C58   H180  S    
C38   C39   S    
C42   H145  S    
C75   H28   S    
C68   C178  A    
C92   C93   S    
C41   H142  S    
C151  C159  T    
C84   H51   S    
C12   C190  A    
C94   C95   S    
C97   H84   S    
C50   H162  S    
C164  C182  A    
C121  O10   A    
C173  O53   S    
C76   H37   S    
C62   H190  S    
C138  O64   A    
C73   H23   S    
C89   H70   S    
C25   H90   S    
C92   C192  S    
C22   H46   S    
C86   H58   S    
C125  O21   A    
C118  C161  S    
O42   Zn4   S    
C17   H1    S    
C116  O45   A    
C140  C148  S    
C81   C82   S    
C122  O14   A    
C119  O39   A    
C128  O26   A    
C1    O62   A    
C116  C131  S    
O35   Zn2   S    
C139  C147  S    
C100  H97   S    
C11   C187  A    
O12   Zn5   S    
C9    C185  A    
O9    Zn1   S    
C27   O48   S    
C107  N15   A    
C180  O61   S    
C51   H164  S    
C26   H106  S    
C21   H13   S    
C144  C153  S    
C127  C132  S    
C5    C16   A    
C67   H12   S    
C55   H175  S    
C6    C15   A    
C92   H75   S    
C78   H43   S    
C50   O55   S    
C136  C145  T    
O28   Zn12  S    
C148  C157  T    
O26   Zn9   S    
C8    C184  A    
O14   Zn1   S    
C23   C25   S    
C123  O15   A    
C108  N14   A    
C95   H77   S    
C111  O27   A    
O7    Zn10  S    
C74   C75   S    
C49   H161  S    
C53   H169  S    
C154  C163  T    
C114  O30   A    
C76   C77   S    
C57   C126  S    
C39   H135  S    
C22   H35   S    
C68   C180  A    
C63   C64   S    
C67   C69   S    
C102  H95   S    
O11   Zn6   S    
C99   H88   S    
C10   C188  A    
C47   C48   S    
C71   H18   S    
C28   H110  S    
C96   C97   S    
C100  C102  S    
C115  O40   A    
C89   C191  S    
C73   H25   S    
C29   H113  S    
O43   Zn4   S    
C79   N8    A    
C52   H166  S    
C14   C191  A    
C37   O51   S    
C135  C144  T    
C11   C107  S    
C123  O17   A    
C46   C176  A    
C30   O49   S    
C80   H39   S    
C34   H126  S    
C72   H27   S    
C48   C49   S    
C76   C185  S    
C152  C161  T    
C84   H50   S    
C13   C170  A    
C107  N13   A    
C45   H153  S    
C61   H187  S    
C96   H86   S    
C27   H109  S    
C4    C15   A    
C160  O3    A    
C178  O59   S    
C15   C90   S    
C20   O46   S    
C13   C122  S    
O13   Zn7   S    
C83   H54   S    
O25   Zn10  S    
C3    C94   S    
C120  O11   A    
O24   Zn11  S    
C73   H22   S    
C164  O44   S    
O21   Zn11  S    
N1    N6    A    
C45   H152  S    
C5    C98   S    
C75   H29   S    
C85   H60   S    
C27   C28   S    
C66   O61   S    
C36   H129  S    
C7    C103  S    
C171  O4    A    
C17   O44   S    
C2    C167  A    
C81   C187  S    
C99   H91   S    
