data_mof_unit_25033.cif
_audit_creation_date              2012-12-10T16:56:33-0500
_audit_creation_method            fapswitch 2.2
_symmetry_space_group_name_H-M    P1
_symmetry_Int_Tables_number       1
_space_group_crystal_system       triclinic
_cell_length_a                    7.957277
_cell_length_b                    8.546168
_cell_length_c                    15.682639
_cell_angle_alpha                 93.730813
_cell_angle_beta                  84.041546
_cell_angle_gamma                 93.20744
_cell_volume                      1057.17487165

loop_
_atom_site_label
_atom_site_type_symbol
_atom_type_description
_atom_site_fract_x
_atom_site_fract_y
_atom_site_fract_z
_atom_type_partial_charge
C1    C     C_R   0.544621 0.793866 0.498289 0.942332
C2    C     C_3   0.406015 0.375462 0.028961 -0.153789
C3    C     C_1   0.497586 0.500866 0.750892 -0.127918
C4    C     C_1   0.502424 0.499391 0.249111 -0.114589
C5    C     C_3   0.339728 0.508745 0.981353 -0.161798
C6    C     C_3   0.660269 0.491783 0.018656 -0.161579
C7    C     C_3   0.498374 0.500665 0.917379 0.198185
C8    C     C_3   0.501622 0.499861 0.082631 0.197228
C9    C     C_1   0.497328 0.500928 0.826390 -0.068481
C10   C     C_1   0.502675 0.499491 0.173618 -0.064774
C11   C     C_R   0.455366 0.206146 0.501840 0.941826
C12   C     C_R   0.499257 0.500517 0.661667 0.885242
C13   C     C_R   0.500748 0.499543 0.338334 0.881185
C14   C     C_2   0.567865 0.957575 0.498844 -0.346364
C15   C     C_2   0.432063 0.042464 0.501590 -0.307958
C16   C     C_3   0.435348 0.633144 0.036834 -0.163105
C17   C     C_3   0.564648 0.367385 0.963179 -0.161101
C18   C     C_3   0.593983 0.625066 0.971047 -0.159150
H1    H     H_    0.670668 0.727091 0.945148 0.144036
H2    H     H_    0.134944 0.741031 0.678547 0.350682
H3    H     H_    0.329329 0.273434 0.054857 0.145004
H4    H     H_    0.382635 0.741755 0.069157 0.142363
H5    H     H_    0.617361 0.258773 0.930857 0.144011
H6    H     H_    0.791270 0.484847 0.036073 0.140266
H7    H     H_    0.208729 0.515681 0.963933 0.137718
H8    H     H_    0.696467 0.007763 0.497671 0.249387
H9    H     H_    0.303413 0.992295 0.502910 0.264433
H10   H     H_    0.878248 0.091741 0.356724 0.363180
N1    N     N_2   0.950320 0.457950 0.477300 0.116860
N2    N     N_2   0.049680 0.542050 0.522700 0.085319
O1    O     O_R   0.389250 0.738570 0.505570 -0.576051
O2    O     O_2   0.011589 0.166598 0.505298 -0.277666
O3    O     O_3   0.849366 0.201515 0.373488 -0.538503
O4    O     O_2   0.987930 0.833323 0.494500 -0.266063
O5    O     O_2   0.836607 0.725605 0.624332 -0.310521
O6    O     O_3   0.150059 0.800763 0.626011 -0.523512
O7    O     O_R   0.610750 0.261430 0.494430 -0.576152
O8    O     O_R   0.678390 0.711630 0.491020 -0.558674
O9    O     O_R   0.321610 0.288370 0.508980 -0.551222
O10   O     O_R   0.355460 0.513480 0.630490 -0.636286
O11   O     O_R   0.644540 0.486520 0.369510 -0.595301
O12   O     O_R   0.644600 0.486540 0.615950 -0.580333
O13   O     O_R   0.355400 0.513460 0.384050 -0.582181
O14   O     O_2   0.162812 0.275429 0.375290 -0.304561
S1    S     S_3+6 0.001791 0.273516 0.433833 0.141370
S2    S     S_3+6 0.997990 0.726636 0.565999 0.140239
Zn1   Zn    Zn3+2 0.306940 0.517990 0.509710 1.118345
Zn2   Zn    Zn3+2 0.693060 0.482010 0.490290 1.138422

loop_
_geom_bond_atom_site_label_1
_geom_bond_atom_site_label_2
_ccdc_geom_bond_type
C12   O10   A    
O10   Zn1   S    
C12   O12   A    
C11   O7    A    
O6    S2    S    
N1    N2    D    
C3    C9    T    
C1    C14   S    
O3    S1    S    
O2    S1    D    
C15   H9    S    
C13   O13   A    
C7    C18   S    
C6    H6    S    
C2    H3    S    
C13   O11   A    
C8    C16   S    
C16   C18   S    
O12   Zn2   S    
C14   H8    S    
C2    C17   S    
C11   O9    A    
C17   H5    S    
O13   Zn1   S    
C1    O8    A    
O4    S2    D    
C6    C8    S    
O9    Zn1   S    
O1    Zn1   S    
O11   Zn2   S    
H10   O3    S    
C11   C15   S    
C6    C18   S    
C5    H7    S    
C2    C5    S    
N1    Zn2   S    
C4    C10   T    
H2    O6    S    
C7    C9    S    
N2    Zn1   S    
C1    O1    A    
O14   S1    D    
C8    C10   S    
C18   H1    S    
C4    C13   S    
C5    C7    S    
C6    C17   S    
C14   C15   D    
C5    C16   S    
C16   H4    S    
C3    C12   S    
C7    C17   S    
O5    S2    D    
O8    Zn2   S    
N2    S2    S    
C2    C8    S    
N1    S1    S    
O7    Zn2   S    
