data_mof_unit_33788.cif
_audit_creation_date              2012-12-11T14:07:39-0500
_audit_creation_method            fapswitch 2.2
_symmetry_space_group_name_H-M    P1
_symmetry_Int_Tables_number       1
_space_group_crystal_system       triclinic
_cell_length_a                    19.913079
_cell_length_b                    17.106
_cell_length_c                    15.503963
_cell_angle_alpha                 89.92815
_cell_angle_beta                  52.81408
_cell_angle_gamma                 90.038823
_cell_volume                      4207.37906408

loop_
_atom_site_label
_atom_site_type_symbol
_atom_type_description
_atom_site_fract_x
_atom_site_fract_y
_atom_site_fract_z
_atom_type_partial_charge
C1    C     C_R   0.336088 0.168221 0.059112 0.725977
C2    C     C_R   0.714484 0.856284 0.969225 -0.470433
C3    C     C_R   0.214226 0.644254 0.969809 -0.467228
C4    C     C_R   0.155265 0.316626 0.065337 -0.430625
C5    C     C_R   0.599424 0.814855 0.702000 -0.028542
C6    C     C_R   0.692252 0.139541 0.676167 -0.011347
C7    C     C_R   0.191934 0.360755 0.675690 -0.037648
C8    C     C_R   0.095813 0.687514 0.704898 -0.022609
C9    C     C_3   0.258362 0.209032 0.456296 0.895162
C10   C     C_3   0.188348 0.875264 0.527862 1.015383
C11   C     C_3   0.671917 0.636170 0.510781 0.969972
C12   C     C_R   0.364753 0.806416 0.009835 0.657224
C13   C     C_3   0.759002 0.287865 0.452544 0.905769
C14   C     C_3   0.203644 0.249789 0.567741 0.184597
C15   C     C_3   0.118047 0.825560 0.626602 0.091156
C16   C     C_3   0.608360 0.688102 0.611438 0.202814
C17   C     C_3   0.703044 0.247459 0.564628 0.093405
C18   C     C_3   0.380310 0.225833 0.467637 -0.410315
C19   C     C_3   0.296282 0.765955 0.444018 -0.524117
C20   C     C_3   0.799622 0.715449 0.465822 -0.565134
C21   C     C_3   0.878028 0.278440 0.470599 -0.560504
C22   C     C_3   0.719469 0.762076 0.398796 0.311303
C23   C     C_R   0.869518 0.695428 0.003049 0.598688
C24   C     C_3   0.866298 0.174863 0.366617 0.417183
C25   C     C_3   0.361102 0.325164 0.365219 0.421009
C26   C     C_3   0.178240 0.769601 0.422344 0.288188
C27   C     C_3   0.352547 0.236647 0.393492 -0.334268
C28   C     C_3   0.242710 0.819776 0.426471 -0.312591
C29   C     C_3   0.750474 0.687243 0.422990 -0.281158
C30   C     C_3   0.853646 0.263676 0.393678 -0.255864
C31   C     C_3   0.651647 0.767832 0.601376 -0.420326
C32   C     C_3   0.754943 0.183035 0.573303 -0.308425
C33   C     C_3   0.254695 0.317653 0.572669 -0.364110
C34   C     C_R   0.835833 0.331945 0.059769 0.737467
C35   C     C_3   0.145684 0.736537 0.604944 -0.394106
C36   C     C_3   0.739967 0.753168 0.577842 0.821693
C37   C     C_3   0.828445 0.222697 0.570487 0.832198
C38   C     C_3   0.331552 0.282512 0.566044 0.802316
C39   C     C_3   0.241704 0.727880 0.556748 0.813329
C40   C     C_R   0.351081 0.827265 0.220835 -0.166461
C41   C     C_R   0.408671 0.200476 0.202998 -0.097198
C42   C     C_R   0.908787 0.299626 0.203537 -0.009636
C43   C     C_R   0.849077 0.669552 0.219139 -0.081103
C44   C     C_3   0.664699 0.811912 0.501723 0.969512
C45   C     C_R   0.671228 0.916516 0.045451 0.519715
C46   C     C_3   0.796036 0.129101 0.468928 0.956863
C47   C     C_3   0.291523 0.370489 0.468167 0.973179
C48   C     C_3   0.134122 0.709536 0.516777 0.992148
C49   C     C_2   0.281344 0.692194 0.951230 0.628642
C50   C     C_2   0.216050 0.268980 0.061801 0.530937
C51   C     C_2   0.715146 0.231325 0.063282 0.534430
C52   C     C_2   0.783846 0.810156 0.947322 0.628158
C53   C     C_2   0.711436 0.309951 0.063669 0.762250
C54   C     C_2   0.773720 0.732340 0.959260 0.667944
C55   C     C_2   0.267914 0.769457 0.967777 0.699188
C56   C     C_R   0.633423 0.106493 0.103607 0.598795
C57   C     C_2   0.212130 0.190360 0.062317 0.768204
C58   C     C_R   0.353881 0.891566 0.913029 0.525883
C59   C     C_R   0.328895 0.089358 0.953933 0.464729
C60   C     C_R   0.828500 0.411007 0.954775 0.459542
C61   C     C_R   0.857657 0.609973 0.908030 0.544500
C62   C     C_R   0.416845 0.110238 0.296634 0.942491
C63   C     C_R   0.356262 0.922482 0.313469 0.805696
C64   C     C_R   0.859646 0.581110 0.315478 0.807618
C65   C     C_R   0.916596 0.390386 0.296997 0.926863
C66   C     C_R   0.284359 0.145371 0.034049 -0.343918
C67   C     C_R   0.133923 0.393553 0.102992 0.594758
C68   C     C_R   0.327558 0.819574 0.961396 -0.296450
C69   C     C_R   0.834893 0.683490 0.951125 -0.279024
C70   C     C_R   0.783862 0.354971 0.035176 -0.348116
C71   C     C_R   0.305604 0.862025 0.323032 0.023910
C72   C     C_R   0.404015 0.188521 0.294392 -0.093618
C73   C     C_R   0.904791 0.311862 0.294488 -0.087824
C74   C     C_R   0.810827 0.642086 0.323092 -0.100137
C75   C     C_R   0.626725 0.198857 0.006418 0.704725
C76   C     C_R   0.664462 0.829470 0.942421 0.793989
C77   C     C_R   0.164560 0.670693 0.942341 0.776842
C78   C     C_R   0.170926 0.583864 0.046083 0.525969
C79   C     C_R   0.127169 0.301360 0.005774 0.678787
C80   C     C_R   0.592709 0.800491 0.794665 0.047894
C81   C     C_R   0.649544 0.171877 0.779659 -0.063932
C82   C     C_R   0.149323 0.328013 0.779195 -0.122456
C83   C     C_R   0.092723 0.699775 0.795477 -0.028782
C84   C     C_R   0.641913 0.078579 0.685403 0.778323
C85   C     C_R   0.583073 0.892622 0.703544 0.894226
C86   C     C_R   0.082214 0.608773 0.704048 0.871020
C87   C     C_R   0.141744 0.421930 0.685314 0.792947
C88   C     C_R   0.654489 0.183615 0.066406 -0.436826
F1    F     F_    0.317804 0.223446 0.132568 -0.658862
F2    F     F_    0.736679 0.112886 0.451559 -0.594110
F3    F     F_    0.229009 0.383514 0.455535 -0.599743
F4    F     F_    0.048889 0.708878 0.562551 -0.617252
F5    F     F_    0.356373 0.658764 0.913944 -0.600809
F6    F     F_    0.286741 0.307644 0.032816 -0.624415
F7    F     F_    0.785606 0.192690 0.034858 -0.622218
F8    F     F_    0.857296 0.845929 0.912745 -0.601485
F9    F     F_    0.642136 0.348691 0.088656 -0.556806
F10   F     F_    0.699124 0.696701 0.998037 -0.619962
F11   F     F_    0.192017 0.802688 0.008138 -0.608634
F12   F     F_    0.376077 0.735440 0.038057 -0.623695
F13   F     F_    0.142586 0.151589 0.087881 -0.555033
F14   F     F_    0.443504 0.077625 0.350837 -0.608411
F15   F     F_    0.342211 0.969842 0.391972 -0.559323
F16   F     F_    0.849220 0.540312 0.397537 -0.575207
F17   F     F_    0.943662 0.423600 0.350321 -0.613166
F18   F     F_    0.621251 0.269536 0.971596 -0.605673
F19   F     F_    0.683571 0.771487 0.871602 -0.636273
F20   F     F_    0.183345 0.729939 0.873042 -0.637894
F21   F     F_    0.122171 0.230834 0.970349 -0.607804
F22   F     F_    0.655332 0.032161 0.606365 -0.557465
F23   F     F_    0.883035 0.766059 0.029776 -0.602178
F24   F     F_    0.550704 0.924817 0.656020 -0.585747
F25   F     F_    0.050164 0.576589 0.656237 -0.580994
F26   F     F_    0.155191 0.469348 0.606784 -0.564672
F27   F     F_    0.251569 0.128212 0.471797 -0.636594
F28   F     F_    0.237757 0.908048 0.553892 -0.559707
F29   F     F_    0.697423 0.573731 0.541958 -0.571245
F30   F     F_    0.749950 0.368708 0.465533 -0.633869
F31   F     F_    0.817362 0.276902 0.133750 -0.638833
F32   F     F_    0.786243 0.807724 0.317568 -0.610218
F33   F     F_    0.946714 0.152227 0.329056 -0.618164
F34   F     F_    0.441832 0.351035 0.322221 -0.615712
F35   F     F_    0.211420 0.730937 0.326215 -0.626398
F36   F     F_    0.587360 0.821241 0.521007 -0.608625
H1    H     H_    0.554494 0.701198 0.609734 0.202072
H2    H     H_    0.861009 0.160931 0.301100 0.170230
H3    H     H_    0.351887 0.336460 0.302559 0.168063
H4    H     H_    0.130087 0.809873 0.432415 0.148531
H5    H     H_    0.449614 0.234415 0.419994 0.244619
H6    H     H_    0.328040 0.720685 0.379497 0.227264
H7    H     H_    0.849319 0.757840 0.407268 0.242710
H8    H     H_    0.947246 0.271886 0.425931 0.263045
H9    H     H_    0.339778 0.772003 0.200265 0.295645
H10   H     H_    0.414734 0.256444 0.166654 0.248587
H11   H     H_    0.914105 0.243534 0.168098 0.231553
H12   H     H_    0.649866 0.218214 0.571760 0.190681
H13   H     H_    0.825645 0.713635 0.195019 0.252263
H14   H     H_    0.590126 0.743644 0.826940 0.260201
H15   H     H_    0.664767 0.223751 0.803042 0.276626
H16   H     H_    0.164399 0.275365 0.801590 0.265855
H17   H     H_    0.090460 0.754938 0.830070 0.273598
H18   H     H_    0.236142 0.184302 0.352212 0.377877
H19   H     H_    0.126614 0.972926 0.566928 0.396747
H20   H     H_    0.664269 0.561449 0.422060 0.359907
H21   H     H_    0.679000 0.291333 0.419300 0.364405
H22   H     H_    0.213868 0.161914 0.641745 0.418312
H23   H     H_    0.148271 0.276075 0.577370 0.203520
H24   H     H_    0.144629 0.860177 0.724146 0.430079
H25   H     H_    0.614282 0.624378 0.713408 0.429368
H26   H     H_    0.707196 0.338768 0.639024 0.419777
H27   H     H_    0.785010 0.699046 0.645084 0.378429
H28   H     H_    0.845028 0.290676 0.658129 0.342498
H29   H     H_    0.307249 0.273650 0.709270 0.347993
H30   H     H_    0.315096 0.752876 0.597698 0.372792
H31   H     H_    0.758819 0.883600 0.457941 0.382121
H32   H     H_    0.878476 0.061751 0.466333 0.386992
H33   H     H_    0.375466 0.442129 0.456676 0.390244
H34   H     H_    0.060091 0.830819 0.631590 0.180280
H35   H     H_    0.226890 0.634233 0.422640 0.368751
H36   H     H_    0.830556 0.814544 0.561741 0.345892
H37   H     H_    0.928305 0.189907 0.558397 0.344646
H38   H     H_    0.431770 0.319441 0.549840 0.350749
H39   H     H_    0.252401 0.629861 0.614489 0.341140
H40   H     H_    0.401520 0.948830 0.782792 0.359138
H41   H     H_    0.366883 0.069837 0.810447 0.333833
H42   H     H_    0.865522 0.428263 0.811239 0.325602
H43   H     H_    0.903299 0.548199 0.782192 0.358591
H44   H     H_    0.748977 0.928655 0.079570 0.392645
H45   H     H_    0.367202 0.164862 0.498607 0.277050
H46   H     H_    0.648320 0.118317 0.214930 0.372740
H47   H     H_    0.149680 0.381490 0.213517 0.373030
H48   H     H_    0.247929 0.572563 0.081500 0.391178
H49   H     H_    0.348500 0.799469 0.434264 0.246134
H50   H     H_    0.834069 0.667111 0.471142 0.272723
H51   H     H_    0.862369 0.339662 0.500201 0.275550
H52   H     H_    0.682368 0.744075 0.369963 0.145237
N1    N     N_R   0.408680 0.130160 0.995800 -0.129540
N2    N     N_R   0.403730 0.078230 0.935950 -0.167280
N3    N     N_R   0.903730 0.421770 0.935950 -0.167857
N4    N     N_R   0.903730 0.578230 0.935950 -0.185246
N5    N     N_R   0.426630 0.075970 0.212960 -0.161249
N6    N     N_R   0.426630 0.924030 0.212960 -0.141709
N7    N     N_R   0.926630 0.575970 0.212960 -0.138407
N8    N     N_R   0.926630 0.424030 0.212960 -0.165460
N9    N     N_R   0.591320 0.134600 0.004200 -0.171696
N10   N     N_R   0.591320 0.865400 0.004200 -0.143220
N11   N     N_R   0.091320 0.634600 0.004200 -0.135701
N12   N     N_R   0.408680 0.869840 0.995800 -0.156191
N13   N     N_R   0.091320 0.365400 0.004200 -0.171620
N14   N     N_R   0.578320 0.867660 0.846880 -0.130103
N15   N     N_R   0.578320 0.132340 0.846880 -0.107541
N16   N     N_R   0.078320 0.367660 0.846880 -0.094716
N17   N     N_R   0.078320 0.632340 0.846880 -0.135950
N18   N     N_R   0.573370 0.074390 0.787040 -0.149225
N19   N     N_R   0.573370 0.925610 0.787040 -0.169752
N20   N     N_R   0.073370 0.574390 0.787040 -0.178670
N21   N     N_R   0.073370 0.425610 0.787040 -0.147158
N22   N     N_R   0.596270 0.927870 0.064040 -0.118567
N23   N     N_R   0.908680 0.630160 0.995800 -0.156333
N24   N     N_R   0.596270 0.072130 0.064040 -0.148221
N25   N     N_R   0.096270 0.427870 0.064040 -0.150429
N26   N     N_R   0.096270 0.572130 0.064040 -0.119315
N27   N     N_R   0.908680 0.369840 0.995800 -0.133387
N28   N     N_R   0.421680 0.867580 0.153120 -0.106954
N29   N     N_R   0.421680 0.132420 0.153120 -0.116990
N30   N     N_R   0.921680 0.367580 0.153120 -0.118416
N31   N     N_R   0.921680 0.632420 0.153120 -0.093955
N32   N     N_R   0.403730 0.921770 0.935950 -0.187454
Ni1   Ni    Ni4+2 0.500000 0.131190 0.000000 0.283664
Ni2   Ni    Ni4+2 0.500000 0.868810 0.000000 0.282320
Ni3   Ni    Ni4+2 0.000000 0.631190 0.000000 0.298587
Ni4   Ni    Ni4+2 0.000000 0.368810 0.000000 0.280892
Ni5   Ni    Ni4+2 0.488650 0.000000 0.862740 0.244287
Ni6   Ni    Ni4+2 0.988650 0.500000 0.862740 0.237295
Ni7   Ni    Ni4+2 0.511350 0.000000 0.137260 0.335584
Ni8   Ni    Ni4+2 0.011350 0.500000 0.137260 0.333196
O1    O     O_3   0.227685 0.229595 0.397726 -0.718085
O2    O     O_3   0.796722 0.266591 0.664683 -0.737789
O3    O     O_3   0.304804 0.239376 0.659554 -0.738175
O4    O     O_3   0.256843 0.765902 0.624369 -0.676950
O5    O     O_3   0.699634 0.887554 0.484344 -0.513538
O6    O     O_3   0.823439 0.056190 0.479980 -0.617386
O7    O     O_3   0.318365 0.444922 0.475934 -0.607359
O8    O     O_3   0.164942 0.633211 0.477912 -0.517583
O9    O     O_3   0.773735 0.824748 0.581480 -0.745949
O10   O     O_3   0.881798 0.164205 0.562342 -0.722622
O11   O     O_3   0.385746 0.343244 0.550976 -0.746492
O12   O     O_3   0.152360 0.935326 0.505994 -0.740876
O13   O     O_3   0.265301 0.648356 0.545203 -0.718897
O14   O     O_3   0.352453 0.914115 0.829284 -0.593222
O15   O     O_3   0.311798 0.070173 0.883247 -0.603285
O16   O     O_3   0.810967 0.430381 0.884545 -0.612044
O17   O     O_3   0.856869 0.586048 0.824313 -0.594467
O18   O     O_3   0.692606 0.948500 0.106967 -0.612917
O19   O     O_3   0.625218 0.078555 0.192823 -0.586098
O20   O     O_3   0.126121 0.421195 0.191958 -0.586055
O21   O     O_3   0.191497 0.552706 0.108912 -0.607859
O22   O     O_3   0.631096 0.606804 0.468621 -0.757883
O23   O     O_3   0.733246 0.264662 0.389418 -0.711670
O24   O     O_3   0.168701 0.196175 0.654316 -0.630699
O25   O     O_3   0.094411 0.856309 0.725584 -0.605273
O26   O     O_3   0.570623 0.649527 0.711424 -0.599172
O27   O     O_3   0.664277 0.301515 0.650826 -0.621665
O28   O     O_3   0.730470 0.702133 0.656187 -0.674496

loop_
_geom_bond_atom_site_label_1
_geom_bond_atom_site_label_2
_ccdc_geom_bond_type
C6    C32   S    
C15   O25   S    
C81   H15   S    
N32   Ni5   S    
C22   C29   S    
C8    C83   A    
N7    N31   A    
C23   C69   A    
N5    N29   A    
H19   O12   S    
C85   F24   S    
C59   O15   S    
N18   Ni5   S    
H38   O11   S    
C3    C49   S    
C76   N10   A    
C13   O23   S    
C81   N15   A    
C60   N3    A    
C22   F32   S    
C12   C68   A    
N11   N26   A    
C36   O9    S    
C22   C44   S    
C86   F25   S    
C67   N25   A    
H40   O14   S    
C40   C71   A    
N12   N32   A    
C39   O13   S    
N10   N22   A    
C10   C15   S    
C59   C66   A    
N17   Ni3   S    
C35   C48   S    
C9    O1    S    
H35   O8    S    
C12   N12   A    
C23   N23   A    
C11   O22   S    
N24   Ni7   S    
C65   C73   A    
H36   O9    S    
C21   C37   S    
H32   O6    S    
N1    Ni1   S    
N31   Ni3   S    
N16   Ni4   S    
C87   F26   S    
C82   H16   S    
C18   H45   S    
C86   N20   A    
H27   O28   S    
C64   N7    A    
C1    N1    A    
C7    C87   A    
C75   F18   S    
C40   N28   A    
C84   N18   A    
H25   O26   S    
C21   H51   S    
C40   H9    S    
H28   O2    S    
C1    F1    S    
C51   F7    S    
C56   O19   S    
C52   F8    S    
C60   C70   A    
C25   F34   S    
C57   C66   S    
C8    C86   A    
C26   C48   S    
C79   N13   A    
C20   C29   S    
C5    C85   A    
H48   O21   S    
C43   C74   A    
C57   F13   S    
C63   N6    A    
C10   O12   S    
C7    C33   S    
C55   F11   S    
N29   Ni1   S    
C75   N9    A    
N12   Ni2   S    
C37   O2    S    
C14   C33   S    
N22   Ni7   S    
C80   N14   A    
C41   H10   S    
C47   F3    S    
C15   C35   S    
C52   C54   D    
C55   C68   S    
H47   O20   S    
C59   N2    A    
C2    C45   A    
H41   O15   S    
C20   H50   S    
C67   O20   S    
C6    C84   A    
C31   C44   S    
C79   F21   S    
N8    N30   A    
C43   N31   A    
C9    F27   S    
C41   N29   A    
C13   F30   S    
C13   C30   S    
C45   O18   S    
C4    C79   A    
C63   F15   S    
C47   O7    S    
C83   H17   S    
C30   C73   S    
C85   N19   A    
C29   C74   S    
C48   O8    S    
N13   N25   A    
C45   N22   A    
N16   N21   A    
C16   C31   S    
C14   H23   S    
C44   F36   S    
C84   F22   S    
C12   F12   S    
C4    C50   S    
C42   H11   S    
C51   C53   D    
C8    C35   S    
C36   O28   S    
C83   N17   A    
C35   C39   S    
C9    C14   S    
C19   H49   S    
C21   H8    S    
C58   O14   S    
N20   Ni6   S    
C11   C16   S    
C39   O4    S    
C18   C38   S    
C58   N32   A    
C34   N27   A    
N17   N20   A    
C17   H12   S    
C1    C66   A    
C62   C72   A    
N5    Ni7   S    
C26   H4    S    
C32   C37   S    
C5    C80   A    
C19   C28   S    
C17   O27   S    
C63   C71   A    
H18   O1    S    
C19   C39   S    
C24   H2    S    
N15   Ni1   S    
C41   C72   A    
N14   N19   A    
C58   C68   A    
C37   O10   S    
H46   O19   S    
H22   O24   S    
N3    N27   A    
C78   O21   S    
N10   Ni2   S    
N26   Ni8   S    
N6    Ni7   S    
C77   N11   A    
N9    Ni1   S    
N27   Ni4   S    
H31   O5    S    
C28   C71   S    
C25   C27   S    
C26   F35   S    
C87   N21   A    
C20   H7    S    
H30   O4    S    
C11   F29   S    
C61   O17   S    
N6    N28   A    
C2    C76   A    
C9    C27   S    
H33   O7    S    
H37   O10   S    
C16   H1    S    
N11   Ni3   S    
C10   C28   S    
C34   F31   S    
H43   O17   S    
C34   C70   A    
C25   C47   S    
H26   O27   S    
C42   C73   A    
H42   O16   S    
C42   N30   A    
N2    Ni5   S    
C82   N16   A    
C60   O16   S    
C50   C57   D    
C32   C46   S    
C38   O3    S    
C77   F20   S    
C64   F16   S    
C18   C27   S    
C78   N26   A    
C53   C70   S    
H39   O13   S    
N13   Ni4   S    
C51   C88   S    
C4    C67   A    
C22   H52   S    
C65   F17   S    
C54   F10   S    
C46   F2    S    
C76   F19   S    
C23   F23   S    
C21   C30   S    
C50   F6    S    
C26   C28   S    
C33   C38   S    
C46   O6    S    
C2    C52   S    
C13   C17   S    
C53   F9    S    
N4    Ni6   S    
N14   Ni2   S    
N15   N18   A    
C24   C46   S    
N4    N23   A    
C49   C55   D    
N7    Ni8   S    
C62   N5    A    
C14   O24   S    
H44   O18   S    
H24   O25   S    
C54   C69   S    
C5    C31   S    
C19   H6    S    
C80   H14   S    
H21   O23   S    
N3    Ni6   S    
C24   F33   S    
C33   C47   S    
C43   H13   S    
N23   Ni3   S    
C61   C69   A    
N9    N24   A    
C25   H3    S    
C10   F28   S    
C24   C30   S    
H29   O3    S    
N8    Ni8   S    
N21   Ni6   S    
N25   Ni8   S    
C20   C36   S    
N30   Ni4   S    
C75   C88   A    
C7    C82   A    
C56   C88   A    
C11   C29   S    
C61   N4    A    
C15   H34   S    
N1    N2    A    
C48   F4    S    
N28   Ni2   S    
C6    C81   A    
C17   C32   S    
C64   C74   A    
C31   C36   S    
H20   O22   S    
C18   H5    S    
C44   O5    S    
C49   F5    S    
C3    C77   A    
C3    C78   A    
C27   C72   S    
N19   Ni5   S    
C56   N24   A    
C38   O11   S    
C62   F14   S    
C65   N8    A    
C16   O26   S    
