data_mof_unit_18306.cif
_audit_creation_date              2012-12-10T17:43:33-0500
_audit_creation_method            fapswitch 2.2
_symmetry_space_group_name_H-M    P1
_symmetry_Int_Tables_number       1
_space_group_crystal_system       triclinic
_cell_length_a                    14.910263
_cell_length_b                    10.61909
_cell_length_c                    9.928603
_cell_angle_alpha                 91.265633
_cell_angle_beta                  90.455449
_cell_angle_gamma                 91.173818
_cell_volume                      1571.26088129

loop_
_atom_site_label
_atom_site_type_symbol
_atom_type_description
_atom_site_fract_x
_atom_site_fract_y
_atom_site_fract_z
_atom_type_partial_charge
C1    C     C_R   0.507581 0.260344 0.498349 0.982465
C2    C     C_R   0.907593 0.584315 0.590041 0.069865
C3    C     C_R   0.950793 0.315768 0.352482 -0.186919
C4    C     C_R   0.043890 0.313429 0.357221 -0.167324
C5    C     C_R   0.091935 0.404682 0.433760 0.145674
C6    C     C_R   0.046842 0.497358 0.510228 -0.020817
C7    C     C_R   0.095080 0.592890 0.584378 -0.045756
C8    C     C_R   0.048111 0.674279 0.672985 0.317182
C9    C     C_R   0.954871 0.670059 0.673350 -0.250998
C10   C     C_R   0.184573 0.404846 0.435297 -0.261872
C11   C     C_R   0.231477 0.503636 0.499349 -0.120025
C12   C     C_R   0.327105 0.501316 0.499495 0.959306
C13   C     C_R   0.187802 0.602975 0.564401 0.260367
C14   C     C_R   0.606147 0.112213 0.703348 0.417177
C15   C     C_R   0.613962 0.058437 0.829617 -0.219610
C16   C     C_R   0.558221 0.957760 0.862949 -0.265285
C17   C     C_R   0.502353 0.900146 0.765201 0.369471
C18   C     C_R   0.504603 0.942725 0.629797 -0.057980
C19   C     C_R   0.542992 0.061518 0.607954 -0.026559
C20   C     C_R   0.512793 0.125940 0.494231 -0.123307
C21   C     C_R   0.465781 0.063046 0.389744 -0.256608
C22   C     C_R   0.449275 0.935818 0.396031 0.408555
C23   C     C_R   0.489656 0.739324 0.502859 0.919470
C24   C     C_R   0.474128 0.873084 0.513150 -0.144784
C25   C     C_R   0.362814 0.375899 0.139442 -0.127659
C26   C     C_R   0.279874 0.355071 0.078613 -0.187626
C27   C     C_R   0.270954 0.372167 0.941728 -0.132950
C28   C     C_R   0.348233 0.388710 0.864691 0.302668
C29   C     C_R   0.428577 0.441470 0.926937 0.117389
C30   C     C_R   0.431378 0.439555 0.071346 0.144656
C31   C     C_R   0.566700 0.556566 0.073395 -0.068191
C32   C     C_R   0.567242 0.555303 0.930485 -0.060460
C33   C     C_R   0.672911 0.500710 0.500445 0.911574
C34   C     C_R   0.814789 0.583927 0.587580 -0.222159
C35   C     C_R   0.768371 0.499336 0.502258 -0.023853
C36   C     C_R   0.812533 0.411093 0.422366 -0.192698
C37   C     C_R   0.905357 0.406925 0.427645 0.124889
C38   C     C_R   0.953346 0.495897 0.509769 0.081926
H1    H     H_    0.778462 0.650818 0.649595 0.140504
H2    H     H_    0.661031 0.097554 0.903701 0.190386
H3    H     H_    0.558042 0.924882 0.965429 0.197663
H4    H     H_    0.621003 0.603678 0.128528 0.144442
H5    H     H_    0.372352 0.340304 0.238299 0.191644
H6    H     H_    0.224400 0.316312 0.135044 0.162735
H7    H     H_    0.208103 0.342144 0.894262 0.186742
H8    H     H_    0.774420 0.344402 0.359039 0.155942
H9    H     H_    0.621895 0.601402 0.878642 0.138806
H10   H     H_    0.914367 0.246380 0.290524 0.159533
H11   H     H_    0.078401 0.242150 0.298851 0.159747
H12   H     H_    0.220501 0.330324 0.383944 0.149970
H13   H     H_    0.919158 0.732955 0.740588 0.180291
H14   H     H_    0.440194 0.113008 0.303954 0.190265
N1    N     N_R   0.499150 0.498800 0.142780 -0.107989
N2    N     N_R   0.499120 0.498720 0.857170 -0.099484
O1    O     O_R   0.500000 0.316780 0.614690 -0.556321
O2    O     O_R   0.499990 0.316750 0.385360 -0.669297
O3    O     O_R   0.367850 0.499980 0.614680 -0.584258
O4    O     O_R   0.367840 0.499960 0.385350 -0.624121
O5    O     O_R   0.500010 0.683250 0.614640 -0.612710
O6    O     O_R   0.500000 0.683220 0.385310 -0.572229
O7    O     O_R   0.632160 0.500040 0.614650 -0.590828
O8    O     O_R   0.632150 0.500020 0.385320 -0.643519
Zn1   Zn    Zn3+2 0.500010 0.500020 0.653130 1.034412
Zn2   Zn    Zn3+2 0.499990 0.499980 0.346870 0.987018
Cl1   Cl    Cl    0.686492 0.228184 0.662352 -0.651056
Br1   Br    Br    0.408271 0.794066 0.834909 -0.337403
Cl2   Cl    Cl    0.391350 0.861473 0.259136 -0.512356
Br2   Br    Br    0.342970 0.252934 0.734257 -0.462753
Br3   Br    Br    0.250518 0.763370 0.578354 -0.349932
Br4   Br    Br    0.103410 0.775995 0.814719 -0.365036

loop_
_geom_bond_atom_site_label_1
_geom_bond_atom_site_label_2
_ccdc_geom_bond_type
C15   C16   A    
C25   C30   A    
C23   C24   S    
O2    Zn2   S    
C36   H8    S    
C29   C30   A    
C31   H4    S    
C2    C38   A    
C8    Br4   S    
C19   C20   A    
C9    H13   S    
C7    C13   A    
C4    H11   S    
O6    Zn2   S    
C29   N2    A    
C12   O4    A    
C2    C34   A    
C6    C38   A    
C17   C18   A    
C1    O1    A    
C26   H6    S    
C5    C10   A    
C21   C22   A    
C31   N1    A    
C23   O5    A    
C5    C6    A    
C11   C13   A    
C25   H5    S    
C26   C27   A    
C37   C38   A    
C13   Br3   S    
C33   O7    A    
C18   C24   A    
C12   O3    A    
C16   H3    S    
C32   N2    A    
C28   C29   A    
C33   C35   S    
C14   Cl1   S    
O3    Zn1   S    
C6    C7    A    
C17   Br1   S    
C23   O6    A    
C22   Cl2   S    
C30   N1    A    
C22   C24   A    
C15   H2    S    
C33   O8    A    
C16   C17   A    
C27   H7    S    
C34   H1    S    
C10   H12   S    
C3    H10   S    
C7    C8    A    
C18   C19   A    
C20   C21   A    
C3    C37   A    
C36   C37   A    
C34   C35   A    
C10   C11   A    
C27   C28   A    
O7    Zn1   S    
N1    Zn2   S    
N2    Zn1   S    
C4    C5    A    
C1    C20   S    
O8    Zn2   S    
O4    Zn2   S    
C28   Br2   S    
C25   C26   A    
C14   C15   A    
C2    C9    A    
O5    Zn1   S    
C14   C19   A    
C1    O2    A    
C21   H14   S    
C3    C4    A    
C31   C32   A    
C11   C12   S    
C32   H9    S    
C8    C9    A    
C35   C36   A    
O1    Zn1   S    
