data_mof_unit_53146.cif
_audit_creation_date              2012-12-11T14:30:45-0500
_audit_creation_method            fapswitch 2.2
_symmetry_space_group_name_H-M    P1
_symmetry_Int_Tables_number       1
_space_group_crystal_system       triclinic
_cell_length_a                    17.454325
_cell_length_b                    24.535485
_cell_length_c                    14.940373
_cell_angle_alpha                 89.658697
_cell_angle_beta                  125.537814
_cell_angle_gamma                 90.441467
_cell_volume                      5206.27350984

loop_
_atom_site_label
_atom_site_type_symbol
_atom_type_description
_atom_site_fract_x
_atom_site_fract_y
_atom_site_fract_z
_atom_type_partial_charge
C1    C     C_R   0.857390 0.654163 0.908866 0.358256
C2    C     C_R   0.053664 0.503760 0.731643 0.078494
C3    C     C_R   0.550615 0.003001 0.359913 0.035307
C4    C     C_R   0.553471 0.003796 0.731429 0.078242
C5    C     C_R   0.674843 0.500100 0.685257 0.165382
C6    C     C_R   0.325479 0.500522 0.292866 0.169644
C7    C     C_R   0.174284 0.999972 0.701679 0.168031
C8    C     C_R   0.825195 0.000876 0.309983 0.165874
C9    C     C_3   0.508055 0.455984 0.542961 0.373719
C10   C     C_3   0.493461 0.456253 0.431895 0.376254
C11   C     C_3   0.006888 0.955031 0.560209 0.375846
C12   C     C_R   0.140368 0.654679 0.091632 0.351629
C13   C     C_3   0.992288 0.957573 0.449234 0.374310
C14   C     C_3   0.433957 0.500330 0.504266 0.176251
C15   C     C_3   0.568680 0.500663 0.471258 0.170451
C16   C     C_3   0.931384 0.998406 0.523322 0.179034
C17   C     C_3   0.065989 0.002871 0.490235 0.170952
C18   C     C_3   0.419376 0.500579 0.392005 -0.046274
C19   C     C_3   0.582964 0.500283 0.583127 -0.047803
C20   C     C_3   0.917137 0.000878 0.411508 -0.047096
C21   C     C_3   0.080638 0.000259 0.602385 -0.047005
C22   C     C_3   0.493980 0.545890 0.430961 -0.221886
C23   C     C_R   0.357157 0.154075 0.908633 0.351710
C24   C     C_3   0.509246 0.545543 0.544653 -0.218378
C25   C     C_3   0.990390 0.047092 0.452342 -0.223998
C26   C     C_3   0.005705 0.044544 0.565991 -0.218206
C27   C     C_2   0.115529 0.763755 0.905427 -0.375049
C28   C     C_2   0.867496 0.755434 0.095407 -0.362700
C29   C     C_2   0.610038 0.268032 0.910132 -0.364565
C30   C     C_2   0.364044 0.254166 0.094169 -0.352411
C31   C     C_2   0.117555 0.745691 0.991316 0.541789
C32   C     C_2   0.870533 0.742083 0.011104 0.543438
C33   C     C_2   0.626434 0.245421 0.001399 0.554741
C34   C     C_R   0.643632 0.153545 0.094401 0.345471
C35   C     C_2   0.368359 0.241649 0.010474 0.568224
C36   C     C_2   0.674495 0.310886 0.921960 0.510915
C37   C     C_2   0.302231 0.297465 0.080205 0.503710
C38   C     C_2   0.178255 0.808168 0.921410 0.508963
C39   C     C_2   0.805783 0.798932 0.081244 0.507499
C40   C     C_R   0.915716 0.362310 0.089824 0.488654
C41   C     C_R   0.068939 0.353896 0.910771 0.562898
C42   C     C_R   0.417620 0.861859 0.091140 0.498532
C43   C     C_R   0.570685 0.854610 0.910950 0.558245
C44   C     C_2   0.768515 0.301431 0.987823 0.447090
C45   C     C_R   0.832436 0.342876 0.996505 -0.073427
C46   C     C_2   0.208449 0.288441 0.012328 0.455816
C47   C     C_2   0.272006 0.800271 0.992552 0.476965
C48   C     C_2   0.711938 0.790168 0.012654 0.462217
C49   C     C_2   0.128251 0.470133 0.549876 -0.088426
C50   C     C_2   0.126515 0.466040 0.646650 -0.062804
C51   C     C_2   0.628730 0.970157 0.550254 -0.088796
C52   C     C_2   0.626575 0.966080 0.646744 -0.062136
C53   C     C_2   0.072687 0.506125 0.469512 -0.151221
C54   C     C_2   0.102513 0.508997 0.679593 -0.184923
C55   C     C_2   0.573710 0.006334 0.470040 -0.151362
C56   C     C_R   0.146538 0.330454 0.003899 -0.112906
C57   C     C_2   0.602447 0.009040 0.679541 -0.184588
C58   C     C_R   0.036069 0.547578 0.295590 -0.239828
C59   C     C_R   0.022828 0.547998 0.758199 -0.232406
C60   C     C_R   0.536410 0.047623 0.295745 -0.245053
C61   C     C_R   0.522767 0.048026 0.758162 -0.232034
C62   C     C_R   0.731815 0.455063 0.723962 -0.062522
C63   C     C_R   0.268509 0.455251 0.261003 -0.074818
C64   C     C_R   0.231112 0.955034 0.733849 -0.064784
C65   C     C_R   0.768422 0.955337 0.271448 -0.070595
C66   C     C_R   0.047715 0.457307 0.304041 0.564019
C67   C     C_R   0.335710 0.841130 0.998780 -0.104620
C68   C     C_R   0.016267 0.457580 0.747878 0.473650
C69   C     C_R   0.548318 0.957384 0.304395 0.567699
C70   C     C_R   0.515973 0.957607 0.747507 0.474113
C71   C     C_R   0.729604 0.546220 0.727972 -0.158489
C72   C     C_R   0.270355 0.546419 0.258132 -0.162285
C73   C     C_R   0.229589 0.046087 0.738982 -0.162014
C74   C     C_R   0.770247 0.046779 0.270187 -0.157243
C75   C     C_R   0.824573 0.364782 0.907268 -0.174975
C76   C     C_R   0.162763 0.357592 0.092852 -0.175901
C77   C     C_R   0.326987 0.862989 0.908606 -0.174081
C78   C     C_R   0.649877 0.832159 0.004108 -0.116068
C79   C     C_R   0.665377 0.858959 0.093119 -0.173815
C80   C     C_R   0.943907 0.651249 0.091423 -0.216550
C81   C     C_R   0.052914 0.652896 0.909594 -0.246917
C82   C     C_R   0.443758 0.151289 0.091201 -0.204363
C83   C     C_R   0.556127 0.153123 0.911843 -0.224736
C84   C     C_R   0.888479 0.684862 0.002266 -0.062139
C85   C     C_R   0.106292 0.686740 0.998842 -0.035222
C86   C     C_R   0.387996 0.184774 0.001885 -0.063268
C87   C     C_R   0.612709 0.186067 0.003273 -0.043003
C88   C     C_3   0.819313 0.676168 0.796482 -1.003493
C89   C     C_R   0.049865 0.502899 0.359512 0.034339
C90   C     C_3   0.179128 0.675047 0.205106 -0.996973
C91   C     C_3   0.318828 0.175957 0.796072 -1.016201
C92   C     C_3   0.674646 0.173181 0.205892 -1.065106
C93   C     C_3   0.357047 0.499806 0.523148 -0.924057
C94   C     C_3   0.646590 0.500513 0.454304 -0.912272
C95   C     C_3   0.853346 0.995499 0.540107 -0.930328
C96   C     C_3   0.142799 0.005107 0.471385 -0.912013
H1    H     H_    0.486634 0.582400 0.382344 0.161435
H2    H     H_    0.131329 0.425621 0.679202 0.204925
H3    H     H_    0.665293 0.938411 0.539383 0.193683
H4    H     H_    0.631149 0.925653 0.679156 0.204779
H5    H     H_    0.035311 0.537601 0.480044 0.132542
H6    H     H_    0.108202 0.549920 0.655744 0.129816
H7    H     H_    0.536696 0.038018 0.480653 0.133004
H8    H     H_    0.608371 0.049978 0.655965 0.130345
H9    H     H_    0.046657 0.589816 0.320726 0.135519
H10   H     H_    0.036621 0.590334 0.752110 0.139781
H11   H     H_    0.547020 0.089877 0.320789 0.135291
H12   H     H_    0.517193 0.581805 0.593539 0.162278
H13   H     H_    0.536580 0.090376 0.752188 0.140031
H14   H     H_    0.711922 0.414138 0.691990 0.116830
H15   H     H_    0.290657 0.413879 0.288055 0.132828
H16   H     H_    0.209045 0.914108 0.702998 0.124562
H17   H     H_    0.789039 0.913979 0.300221 0.124801
H18   H     H_    0.706008 0.587602 0.703992 0.131108
H19   H     H_    0.295059 0.587970 0.277743 0.134148
H20   H     H_    0.205248 0.087549 0.718873 0.135092
H21   H     H_    0.793139 0.088281 0.295239 0.132454
H22   H     H_    0.774395 0.353131 0.822576 0.144380
H23   H     H_    0.982050 0.084502 0.405342 0.159412
H24   H     H_    0.209470 0.345315 0.177937 0.135475
H25   H     H_    0.278045 0.850115 0.824452 0.141898
H26   H     H_    0.713530 0.847390 0.178426 0.140123
H27   H     H_    0.989817 0.663555 0.176620 0.119569
H28   H     H_    0.004601 0.665864 0.825074 0.124001
H29   H     H_    0.489453 0.163738 0.176340 0.122233
H30   H     H_    0.508701 0.166925 0.827846 0.120352
H31   H     H_    0.818751 0.644251 0.744075 0.233754
H32   H     H_    0.747230 0.692240 0.757629 0.287445
H33   H     H_    0.865918 0.708414 0.800798 0.230633
H34   H     H_    0.012895 0.079803 0.616629 0.162640
H35   H     H_    0.185473 0.641416 0.258727 0.232843
H36   H     H_    0.248923 0.694506 0.241588 0.290945
H37   H     H_    0.130236 0.704218 0.203136 0.230003
H38   H     H_    0.314823 0.143513 0.742274 0.238196
H39   H     H_    0.248051 0.193685 0.758860 0.287577
H40   H     H_    0.367062 0.206953 0.800033 0.232499
H41   H     H_    0.660791 0.141556 0.248295 0.248616
H42   H     H_    0.751204 0.182327 0.257364 0.256234
H43   H     H_    0.634470 0.209886 0.198289 0.277397
H44   H     H_    0.458737 0.388528 0.555159 0.320538
H45   H     H_    0.089104 0.738814 0.833192 0.101483
H46   H     H_    0.541338 0.388923 0.419377 0.321035
H47   H     H_    0.959222 0.886186 0.569182 0.319598
H48   H     H_    0.041605 0.891658 0.433639 0.320350
H49   H     H_    0.108170 0.773595 0.103390 0.304351
H50   H     H_    0.881819 0.774508 0.902655 0.305688
H51   H     H_    0.731076 0.255324 0.152765 0.355881
H52   H     H_    0.377058 0.273306 0.899178 0.313609
H53   H     H_    0.569895 0.357776 0.820639 0.346227
H54   H     H_    0.408811 0.344332 0.179048 0.354827
H55   H     H_    0.072846 0.852666 0.813156 0.351094
H56   H     H_    0.889782 0.727692 0.163175 0.103530
H57   H     H_    0.912519 0.845227 0.182289 0.348052
H58   H     H_    0.871998 0.250925 0.076379 0.341291
H59   H     H_    0.104039 0.239618 0.916128 0.351750
H60   H     H_    0.375592 0.751672 0.091452 0.340289
H61   H     H_    0.607597 0.741209 0.916650 0.351569
H62   H     H_    0.026859 0.333742 0.216382 0.309016
H63   H     H_    0.944195 0.339576 0.784931 0.293875
H64   H     H_    0.529577 0.834002 0.217445 0.306939
H65   H     H_    0.446512 0.838888 0.785348 0.294242
H66   H     H_    0.123824 0.397305 0.321135 0.287534
H67   H     H_    0.568558 0.247785 0.831050 0.096792
H68   H     H_    0.936549 0.397392 0.667965 0.319050
H69   H     H_    0.625637 0.897964 0.322019 0.286855
H70   H     H_    0.435692 0.897572 0.667599 0.318957
H71   H     H_    0.312515 0.462800 0.485561 0.238518
H72   H     H_    0.389592 0.499697 0.612759 0.267935
H73   H     H_    0.312436 0.536550 0.485348 0.248015
H74   H     H_    0.690298 0.463474 0.492427 0.235316
H75   H     H_    0.615131 0.500727 0.364967 0.269744
H76   H     H_    0.691644 0.537243 0.493010 0.245448
H77   H     H_    0.810085 0.958275 0.500293 0.239672
H78   H     H_    0.385611 0.225947 0.161055 0.100704
H79   H     H_    0.884690 0.994162 0.629385 0.268604
H80   H     H_    0.807714 0.031917 0.503036 0.249015
H81   H     H_    0.187838 0.968419 0.507493 0.235212
H82   H     H_    0.110191 0.006429 0.381783 0.268696
H83   H     H_    0.186766 0.042144 0.510716 0.245841
H84   H     H_    0.165141 0.438589 0.539029 0.192827
N1    N     N_R   0.892320 0.603520 0.941090 -0.051797
N2    N     N_R   0.973240 0.529450 0.794410 -0.059461
N3    N     N_R   0.526760 0.029450 0.205590 -0.058870
N4    N     N_R   0.473240 0.029450 0.794410 -0.059546
N5    N     N_R   0.819350 0.473090 0.793940 -0.057154
N6    N     N_R   0.180650 0.473090 0.206060 -0.066698
N7    N     N_R   0.319350 0.973090 0.793940 -0.059077
N8    N     N_R   0.680650 0.973090 0.206060 -0.065737
N9    N     N_R   0.027860 0.473090 0.206590 -0.112357
N10   N     N_R   0.972140 0.473090 0.793410 -0.116583
N11   N     N_R   0.527860 0.973090 0.206590 -0.112669
N12   N     N_R   0.107680 0.603520 0.058910 -0.052680
N13   N     N_R   0.472140 0.973090 0.793410 -0.116412
N14   N     N_R   0.818250 0.529450 0.792940 -0.043475
N15   N     N_R   0.181750 0.529450 0.207060 -0.046553
N16   N     N_R   0.318250 0.029450 0.792940 -0.044338
N17   N     N_R   0.681750 0.029450 0.207060 -0.045103
N18   N     N_R   0.896320 0.399020 0.944720 -0.074905
N19   N     N_R   0.103680 0.399020 0.055280 -0.071209
N20   N     N_R   0.396320 0.899020 0.944720 -0.072462
N21   N     N_R   0.603680 0.899020 0.055280 -0.072717
N22   N     N_R   0.949790 0.603520 0.054810 -0.036900
N23   N     N_R   0.392320 0.103520 0.941090 -0.051310
N24   N     N_R   0.050210 0.603520 0.945190 -0.037993
N25   N     N_R   0.449790 0.103520 0.054810 -0.037931
N26   N     N_R   0.550210 0.103520 0.945190 -0.039546
N27   N     N_R   0.607680 0.103520 0.058910 -0.047316
N28   N     N_R   0.953790 0.399020 0.058440 -0.109065
N29   N     N_R   0.046210 0.399020 0.941560 -0.115195
N30   N     N_R   0.453790 0.899020 0.058440 -0.108419
N31   N     N_R   0.546210 0.899020 0.941560 -0.115680
N32   N     N_R   0.026760 0.529450 0.205590 -0.057551
Ni1   Ni    Ni4+2 0.934100 0.565890 0.869590 0.211385
Ni2   Ni    Ni4+2 0.065900 0.565890 0.130410 0.209802
Ni3   Ni    Ni4+2 0.434100 0.065890 0.869590 0.212455
Ni4   Ni    Ni4+2 0.565900 0.065890 0.130410 0.211613
Ni5   Ni    Ni4+2 0.068420 0.436630 0.132700 0.191695
Ni6   Ni    Ni4+2 0.931580 0.436630 0.867300 0.188661
Ni7   Ni    Ni4+2 0.568420 0.936630 0.132700 0.192313
Ni8   Ni    Ni4+2 0.431580 0.936630 0.867300 0.187061
O1    O     O_3   0.517675 0.409678 0.603644 -0.734435
O2    O     O_3   0.339152 0.346520 0.134650 -0.744212
O3    O     O_3   0.142539 0.855494 0.859972 -0.745154
O4    O     O_3   0.842849 0.847688 0.136925 -0.747236
O5    O     O_3   0.803110 0.251627 0.040105 -0.780964
O6    O     O_3   0.173151 0.240179 0.954064 -0.747245
O7    O     O_3   0.306530 0.752669 0.053694 -0.742679
O8    O     O_3   0.676637 0.741965 0.954134 -0.743170
O9    O     O_3   0.960944 0.338391 0.191337 -0.715425
O10   O     O_3   0.008030 0.325367 0.815717 -0.734120
O11   O     O_3   0.463996 0.838843 0.193530 -0.711230
O12   O     O_3   0.482996 0.410266 0.370860 -0.735480
O13   O     O_3   0.510917 0.825720 0.816054 -0.732474
O14   O     O_3   0.092311 0.409489 0.355264 -0.754872
O15   O     O_3   0.000964 0.409121 0.694728 -0.730318
O16   O     O_3   0.593770 0.909800 0.355930 -0.754328
O17   O     O_3   0.499846 0.909362 0.693397 -0.728572
O18   O     O_3   0.017688 0.907568 0.618608 -0.737394
O19   O     O_3   0.982898 0.912823 0.385999 -0.734438
O20   O     O_3   0.149575 0.779961 0.079290 -0.703233
O21   O     O_3   0.840331 0.778977 0.926959 -0.711504
O22   O     O_3   0.674531 0.276060 0.096704 -0.727236
O23   O     O_3   0.338467 0.278996 0.927045 -0.713955
O24   O     O_3   0.639578 0.359216 0.863976 -0.744294

loop_
_geom_bond_atom_site_label_1
_geom_bond_atom_site_label_2
_ccdc_geom_bond_type
N26   Ni3   S    
C6    C63   A    
N13   Ni8   S    
C83   C87   A    
C31   O20   S    
C40   N28   A    
H59   O6    S    
C35   O23   S    
C31   C85   S    
C29   C33   D    
N7    N16   A    
C29   H67   S    
N1    N22   A    
C67   C77   A    
N5    N14   A    
C80   C84   A    
C61   H13   S    
C69   N11   A    
C72   N15   A    
C4    C70   A    
C63   H15   S    
C91   H38   S    
C13   O19   S    
C11   O18   S    
C15   C19   S    
N31   Ni8   S    
N23   N25   A    
C29   C36   S    
C93   H73   S    
C76   H24   S    
C73   H20   S    
C12   C85   A    
C66   O14   S    
C56   C76   A    
N29   Ni6   S    
C27   H45   S    
C12   C90   S    
C3    C69   A    
C69   O16   S    
C10   C18   S    
C37   O2    S    
C83   N26   A    
C2    C68   A    
C10   C15   S    
H53   O24   S    
C48   O8    S    
C35   C86   S    
H44   O1    S    
C64   H16   S    
C20   C25   S    
C27   C38   S    
C14   C24   S    
N4    N13   A    
C66   N9    A    
C55   H7    S    
N3    Ni4   S    
C48   C78   S    
C57   H8    S    
C95   H79   S    
N15   Ni2   S    
H61   O8    S    
C94   H76   S    
C3    C55   S    
C9    C19   S    
C15   C22   S    
C80   N22   A    
C91   H40   S    
N10   Ni6   S    
C93   H72   S    
C53   H5    S    
C79   N21   A    
C23   C86   A    
N19   Ni5   S    
C4    C57   S    
H52   O23   S    
C96   H82   S    
C24   H12   S    
C70   O17   S    
C96   H81   S    
C66   C89   A    
C43   N31   A    
C9    C10   S    
C14   C93   S    
C51   C55   D    
C42   N30   A    
C77   N20   A    
C49   H84   S    
C90   H36   S    
C42   O11   S    
C60   N3    A    
C65   N8    A    
C92   H42   S    
C8    C65   A    
C22   H1    S    
C18   C22   S    
H68   O15   S    
C51   H3    S    
H54   O2    S    
H47   O18   S    
C33   O22   S    
N18   Ni6   S    
C75   H22   S    
C88   H33   S    
N14   Ni1   S    
C32   C84   S    
C92   H41   S    
C25   H23   S    
H62   O9    S    
C47   C67   S    
C79   H26   S    
C21   C26   S    
N9    Ni5   S    
C81   C85   A    
C81   N24   A    
N7    Ni8   S    
C26   H34   S    
C16   C26   S    
C40   C45   A    
C12   N12   A    
N6    Ni5   S    
C6    C18   S    
C50   H2    S    
C59   H10   S    
N5    Ni6   S    
C81   H28   S    
C27   C31   D    
C51   C52   S    
C36   O24   S    
H63   O10   S    
N6    N15   A    
C28   C32   D    
C72   H19   S    
N21   Ni7   S    
H57   O4    S    
C7    C73   A    
C2    C54   S    
N11   Ni7   S    
C90   H37   S    
C1    N1    A    
N26   N27   A    
N4    Ni3   S    
H58   O5    S    
H51   O22   S    
C25   C26   S    
C82   C86   A    
N18   N28   A    
C4    C61   A    
C11   C21   S    
N20   N30   A    
N30   Ni7   S    
C30   C37   S    
C23   N23   A    
C1    C84   A    
C38   O3    S    
C59   N2    A    
C6    C72   A    
C95   H80   S    
H55   O3    S    
C82   H29   S    
C68   O15   S    
C30   H78   S    
C94   H75   S    
N2    Ni1   S    
C47   O7    S    
C43   C78   A    
C11   C16   S    
H46   O12   S    
C62   H14   S    
C74   N17   A    
C68   N10   A    
C16   C20   S    
C63   N6    A    
C8    C74   A    
C46   O6    S    
C9    C14   S    
C91   H39   S    
N12   Ni2   S    
C17   C96   S    
C50   C54   D    
N22   Ni2   S    
C60   H11   S    
C93   H71   S    
C10   O12   S    
N17   Ni4   S    
C62   N5    A    
C5    C19   S    
C90   H35   S    
C30   C35   D    
H60   O7    S    
H49   O20   S    
C8    C20   S    
N32   Ni2   S    
C28   H56   S    
C43   O13   S    
C42   C67   A    
N20   Ni8   S    
C22   C24   S    
C39   O4    S    
C36   C44   D    
C61   N4    A    
N23   Ni3   S    
C83   H30   S    
C44   C45   S    
C44   O5    S    
C75   N18   A    
H70   O17   S    
N28   Ni5   S    
N16   Ni3   S    
C74   H21   S    
C16   C95   S    
N12   N24   A    
C13   C20   S    
C78   C79   A    
C65   H17   S    
C14   C18   S    
C54   H6    S    
C41   C56   A    
N25   Ni4   S    
C71   N14   A    
N9    N32   A    
N3    N11   A    
C32   O21   S    
C40   O9    S    
H48   O19   S    
C58   N32   A    
C34   N27   A    
C88   H31   S    
C28   C39   S    
C38   C47   D    
C45   C75   A    
C58   H9    S    
C17   C25   S    
C19   C24   S    
C33   C87   S    
C41   N29   A    
C76   N19   A    
C7    C21   S    
C3    C60   A    
C53   C89   S    
C11   C13   S    
C2    C59   A    
N8    N17   A    
C1    C88   S    
C70   N13   A    
C49   C53   D    
N24   Ni1   S    
H50   O21   S    
N27   Ni4   S    
C37   C46   D    
C52   H4    S    
C5    C62   A    
C23   C91   S    
C34   C87   A    
C96   H83   S    
C95   H77   S    
C58   C89   A    
C34   C92   S    
C7    C64   A    
C64   N7    A    
C77   H25   S    
C52   C57   D    
C13   C17   S    
H66   O14   S    
C9    O1    S    
C15   C94   S    
H65   O13   S    
C41   O10   S    
C71   H18   S    
H69   O16   S    
C5    C71   A    
C49   C50   S    
C73   N16   A    
C46   C56   S    
N1    Ni1   S    
N2    N10   A    
N19   N29   A    
N8    Ni7   S    
C88   H32   S    
C92   H43   S    
N21   N31   A    
C82   N25   A    
C94   H74   S    
H64   O11   S    
C39   C48   D    
C80   H27   S    
C17   C21   S    
